MODEL 1
REMARK VINA RESULT:    -8.315      0.000      0.000
REMARK INTER + INTRA:         -11.643
REMARK INTER:                 -10.745
REMARK INTRA:                  -0.897
REMARK UNBOUND:                -0.897
REMARK  Name = 
REMARK  5 active torsions:
REMARK  status: ('A' for Active; 'I' for Inactive)
REMARK    1  A    between atoms: C_2  and  C_3
REMARK    2  A    between atoms: N_7  and  C_8
REMARK    3  A    between atoms: C_8  and  C_9
REMARK    4  A    between atoms: C_11  and  C_12
REMARK    5  A    between atoms: C_19  and  C_20
REMARK                            x       y       z     vdW  Elec       q    Type
REMARK                         _______ _______ _______ _____ _____    ______ ____
ROOT
ATOM      1  C   UNL     1      44.643   5.239  11.650  0.00  0.00    +0.000 A 
ATOM      2  C   UNL     1      44.868   6.609  11.476  0.00  0.00    +0.000 A 
ATOM      3  C   UNL     1      45.775   7.322  12.273  0.00  0.00    +0.000 A 
ATOM      4  C   UNL     1      46.493   6.614  13.248  0.00  0.00    +0.000 A 
ATOM      5  C   UNL     1      46.295   5.242  13.449  0.00  0.00    +0.000 A 
ATOM      6  C   UNL     1      45.386   4.561  12.626  0.00  0.00    +0.000 A 
ENDROOT
BRANCH   3   7
ATOM      7  C   UNL     1      45.906   8.780  12.134  0.00  0.00    +0.000 A 
ATOM      8  C   UNL     1      47.149   9.418  12.172  0.00  0.00    +0.000 A 
ATOM      9  C   UNL     1      47.232  10.802  12.062  0.00  0.00    +0.000 A 
ATOM     10  C   UNL     1      46.057  11.516  11.903  0.00  0.00    +0.000 A 
ATOM     11  N   UNL     1      44.834  10.953  11.859  0.00  0.00    +0.000 NA
ATOM     12  C   UNL     1      44.792   9.607  11.980  0.00  0.00    +0.000 A 
ENDBRANCH   3   7
BRANCH   5  13
ATOM     13  C   UNL     1      46.975   4.537  14.597  0.00  0.00    +0.000 C 
ATOM     14  F   UNL     1      46.158   4.341  15.670  0.00  0.00    +0.000 F 
ATOM     15  F   UNL     1      47.422   3.301  14.241  0.00  0.00    +0.000 F 
ATOM     16  F   UNL     1      48.058   5.210  15.067  0.00  0.00    +0.000 F 
ENDBRANCH   5  13
BRANCH   1  17
ATOM     17  C   UNL     1      43.580   4.485  10.884  0.00  0.00    +0.000 C 
BRANCH  17  22
ATOM     18  C   UNL     1      46.652   2.468   7.292  0.00  0.00    +0.000 A 
ATOM     19  C   UNL     1      46.344   3.792   7.576  0.00  0.00    +0.000 A 
ATOM     20  C   UNL     1      45.466   4.070   8.620  0.00  0.00    +0.000 A 
ATOM     21  C   UNL     1      44.896   3.028   9.340  0.00  0.00    +0.000 A 
ATOM     22  N   UNL     1      44.021   3.212  10.369  0.00  0.00    +0.000 N 
ATOM     23  N   UNL     1      45.183   1.739   9.061  0.00  0.00    +0.000 NA
ATOM     24  C   UNL     1      46.059   1.484   8.060  0.00  0.00    +0.000 A 
ATOM     25  H   UNL     1      43.562   2.360  10.668  0.00  0.00    +0.000 HD
BRANCH  18  27
ATOM     26  N   UNL     1      48.279   1.861   5.382  0.00  0.00    +0.000 NA
ATOM     27  C   UNL     1      47.549   2.129   6.235  0.00  0.00    +0.000 C 
ENDBRANCH  18  27
ENDBRANCH  17  22
ENDBRANCH   1  17
TORSDOF 5
ENDMDL
MODEL 2
REMARK VINA RESULT:    -8.181      2.675      4.476
REMARK INTER + INTRA:         -11.470
REMARK INTER:                 -10.436
REMARK INTRA:                  -1.034
REMARK UNBOUND:                -0.897
REMARK  Name = 
REMARK  5 active torsions:
REMARK  status: ('A' for Active; 'I' for Inactive)
REMARK    1  A    between atoms: C_2  and  C_3
REMARK    2  A    between atoms: N_7  and  C_8
REMARK    3  A    between atoms: C_8  and  C_9
REMARK    4  A    between atoms: C_11  and  C_12
REMARK    5  A    between atoms: C_19  and  C_20
REMARK                            x       y       z     vdW  Elec       q    Type
REMARK                         _______ _______ _______ _____ _____    ______ ____
ROOT
ATOM      1  C   UNL     1      44.311   5.291  11.650  0.00  0.00    +0.000 A 
ATOM      2  C   UNL     1      45.035   4.663  12.669  0.00  0.00    +0.000 A 
ATOM      3  C   UNL     1      45.931   5.365  13.487  0.00  0.00    +0.000 A 
ATOM      4  C   UNL     1      46.066   6.747  13.282  0.00  0.00    +0.000 A 
ATOM      5  C   UNL     1      45.357   7.409  12.273  0.00  0.00    +0.000 A 
ATOM      6  C   UNL     1      44.462   6.674  11.480  0.00  0.00    +0.000 A 
ENDROOT
BRANCH   3   7
ATOM      7  C   UNL     1      46.755   4.654  14.476  0.00  0.00    +0.000 A 
ATOM      8  C   UNL     1      47.198   5.270  15.650  0.00  0.00    +0.000 A 
ATOM      9  C   UNL     1      47.996   4.572  16.551  0.00  0.00    +0.000 A 
ATOM     10  C   UNL     1      48.322   3.260  16.254  0.00  0.00    +0.000 A 
ATOM     11  N   UNL     1      47.923   2.619  15.138  0.00  0.00    +0.000 NA
ATOM     12  C   UNL     1      47.158   3.331  14.282  0.00  0.00    +0.000 A 
ENDBRANCH   3   7
BRANCH   5  13
ATOM     13  C   UNL     1      45.629   8.864  11.983  0.00  0.00    +0.000 C 
ATOM     14  F   UNL     1      46.936   9.123  11.699  0.00  0.00    +0.000 F 
ATOM     15  F   UNL     1      44.921   9.309  10.908  0.00  0.00    +0.000 F 
ATOM     16  F   UNL     1      45.300   9.683  13.017  0.00  0.00    +0.000 F 
ENDBRANCH   5  13
BRANCH   1  17
ATOM     17  C   UNL     1      43.437   4.527  10.681  0.00  0.00    +0.000 C 
BRANCH  17  22
ATOM     18  C   UNL     1      46.723   2.477   7.304  0.00  0.00    +0.000 A 
ATOM     19  C   UNL     1      46.310   3.791   7.478  0.00  0.00    +0.000 A 
ATOM     20  C   UNL     1      45.394   4.082   8.484  0.00  0.00    +0.000 A 
ATOM     21  C   UNL     1      44.890   3.059   9.278  0.00  0.00    +0.000 A 
ATOM     22  N   UNL     1      43.983   3.255  10.276  0.00  0.00    +0.000 N 
ATOM     23  N   UNL     1      45.279   1.778   9.107  0.00  0.00    +0.000 NA
ATOM     24  C   UNL     1      46.192   1.513   8.141  0.00  0.00    +0.000 A 
ATOM     25  H   UNL     1      43.585   2.396  10.636  0.00  0.00    +0.000 HD
BRANCH  18  27
ATOM     26  N   UNL     1      48.421   1.838   5.468  0.00  0.00    +0.000 NA
ATOM     27  C   UNL     1      47.665   2.126   6.290  0.00  0.00    +0.000 C 
ENDBRANCH  18  27
ENDBRANCH  17  22
ENDBRANCH   1  17
TORSDOF 5
ENDMDL
MODEL 3
REMARK VINA RESULT:    -7.497      2.793      4.797
REMARK INTER + INTRA:         -10.585
REMARK INTER:                  -9.634
REMARK INTRA:                  -0.951
REMARK UNBOUND:                -0.897
REMARK  Name = 
REMARK  5 active torsions:
REMARK  status: ('A' for Active; 'I' for Inactive)
REMARK    1  A    between atoms: C_2  and  C_3
REMARK    2  A    between atoms: N_7  and  C_8
REMARK    3  A    between atoms: C_8  and  C_9
REMARK    4  A    between atoms: C_11  and  C_12
REMARK    5  A    between atoms: C_19  and  C_20
REMARK                            x       y       z     vdW  Elec       q    Type
REMARK                         _______ _______ _______ _____ _____    ______ ____
ROOT
ATOM      1  C   UNL     1      45.469   5.352  12.770  0.00  0.00    +0.000 A 
ATOM      2  C   UNL     1      45.935   4.771  13.954  0.00  0.00    +0.000 A 
ATOM      3  C   UNL     1      47.125   5.187  14.569  0.00  0.00    +0.000 A 
ATOM      4  C   UNL     1      47.837   6.243  13.979  0.00  0.00    +0.000 A 
ATOM      5  C   UNL     1      47.399   6.849  12.795  0.00  0.00    +0.000 A 
ATOM      6  C   UNL     1      46.198   6.412  12.215  0.00  0.00    +0.000 A 
ENDROOT
BRANCH   3   7
ATOM      7  C   UNL     1      47.642   4.482  15.752  0.00  0.00    +0.000 A 
ATOM      8  C   UNL     1      47.945   3.118  15.726  0.00  0.00    +0.000 A 
ATOM      9  C   UNL     1      48.408   2.480  16.873  0.00  0.00    +0.000 A 
ATOM     10  C   UNL     1      48.567   3.236  18.021  0.00  0.00    +0.000 A 
ATOM     11  N   UNL     1      48.290   4.552  18.101  0.00  0.00    +0.000 NA
ATOM     12  C   UNL     1      47.832   5.135  16.971  0.00  0.00    +0.000 A 
ENDBRANCH   3   7
BRANCH   5  13
ATOM     13  C   UNL     1      48.257   7.882  12.109  0.00  0.00    +0.000 C 
ATOM     14  F   UNL     1      48.806   7.440  10.943  0.00  0.00    +0.000 F 
ATOM     15  F   UNL     1      47.546   8.998  11.784  0.00  0.00    +0.000 F 
ATOM     16  F   UNL     1      49.295   8.306  12.877  0.00  0.00    +0.000 F 
ENDBRANCH   5  13
BRANCH   1  17
ATOM     17  C   UNL     1      44.257   4.832  12.031  0.00  0.00    +0.000 C 
BRANCH  17  22
ATOM     18  C   UNL     1      46.102   3.166   7.534  0.00  0.00    +0.000 A 
ATOM     19  C   UNL     1      45.926   4.457   8.014  0.00  0.00    +0.000 A 
ATOM     20  C   UNL     1      45.395   4.634   9.289  0.00  0.00    +0.000 A 
ATOM     21  C   UNL     1      45.030   3.528  10.046  0.00  0.00    +0.000 A 
ATOM     22  N   UNL     1      44.495   3.614  11.297  0.00  0.00    +0.000 N 
ATOM     23  N   UNL     1      45.189   2.272   9.580  0.00  0.00    +0.000 NA
ATOM     24  C   UNL     1      45.731   2.113   8.349  0.00  0.00    +0.000 A 
ATOM     25  H   UNL     1      44.120   2.736  11.637  0.00  0.00    +0.000 HD
BRANCH  18  27
ATOM     26  N   UNL     1      47.092   2.743   5.187  0.00  0.00    +0.000 NA
ATOM     27  C   UNL     1      46.646   2.930   6.235  0.00  0.00    +0.000 C 
ENDBRANCH  18  27
ENDBRANCH  17  22
ENDBRANCH   1  17
TORSDOF 5
ENDMDL
MODEL 4
REMARK VINA RESULT:    -7.168      1.916      2.418
REMARK INTER + INTRA:         -10.161
REMARK INTER:                  -9.253
REMARK INTRA:                  -0.908
REMARK UNBOUND:                -0.897
REMARK  Name = 
REMARK  5 active torsions:
REMARK  status: ('A' for Active; 'I' for Inactive)
REMARK    1  A    between atoms: C_2  and  C_3
REMARK    2  A    between atoms: N_7  and  C_8
REMARK    3  A    between atoms: C_8  and  C_9
REMARK    4  A    between atoms: C_11  and  C_12
REMARK    5  A    between atoms: C_19  and  C_20
REMARK                            x       y       z     vdW  Elec       q    Type
REMARK                         _______ _______ _______ _____ _____    ______ ____
ROOT
ATOM      1  C   UNL     1      45.555   5.604  12.942  0.00  0.00    +0.000 A 
ATOM      2  C   UNL     1      46.387   6.678  12.610  0.00  0.00    +0.000 A 
ATOM      3  C   UNL     1      47.590   6.925  13.289  0.00  0.00    +0.000 A 
ATOM      4  C   UNL     1      47.966   6.036  14.307  0.00  0.00    +0.000 A 
ATOM      5  C   UNL     1      47.158   4.950  14.665  0.00  0.00    +0.000 A 
ATOM      6  C   UNL     1      45.967   4.729  13.957  0.00  0.00    +0.000 A 
ENDROOT
BRANCH   3   7
ATOM      7  C   UNL     1      48.386   8.124  12.985  0.00  0.00    +0.000 A 
ATOM      8  C   UNL     1      48.251   8.816  11.779  0.00  0.00    +0.000 A 
ATOM      9  C   UNL     1      49.039   9.932  11.517  0.00  0.00    +0.000 A 
ATOM     10  C   UNL     1      49.942  10.335  12.486  0.00  0.00    +0.000 A 
ATOM     11  N   UNL     1      50.113   9.705  13.665  0.00  0.00    +0.000 NA
ATOM     12  C   UNL     1      49.338   8.619  13.879  0.00  0.00    +0.000 A 
ENDBRANCH   3   7
BRANCH   5  13
ATOM     13  C   UNL     1      47.518   4.097  15.856  0.00  0.00    +0.000 C 
ATOM     14  F   UNL     1      47.842   2.816  15.524  0.00  0.00    +0.000 F 
ATOM     15  F   UNL     1      48.596   4.589  16.528  0.00  0.00    +0.000 F 
ATOM     16  F   UNL     1      46.514   4.007  16.768  0.00  0.00    +0.000 F 
ENDBRANCH   5  13
BRANCH   1  17
ATOM     17  C   UNL     1      44.199   5.397  12.305  0.00  0.00    +0.000 C 
BRANCH  17  22
ATOM     18  C   UNL     1      45.754   3.392   7.837  0.00  0.00    +0.000 A 
ATOM     19  C   UNL     1      45.955   4.655   8.378  0.00  0.00    +0.000 A 
ATOM     20  C   UNL     1      45.415   4.946   9.627  0.00  0.00    +0.000 A 
ATOM     21  C   UNL     1      44.668   3.986  10.299  0.00  0.00    +0.000 A 
ATOM     22  N   UNL     1      44.098   4.193  11.520  0.00  0.00    +0.000 N 
ATOM     23  N   UNL     1      44.461   2.761   9.774  0.00  0.00    +0.000 NA
ATOM     24  C   UNL     1      45.014   2.482   8.569  0.00  0.00    +0.000 A 
ATOM     25  H   UNL     1      43.444   3.467  11.788  0.00  0.00    +0.000 HD
BRANCH  18  27
ATOM     26  N   UNL     1      46.726   2.752   5.533  0.00  0.00    +0.000 NA
ATOM     27  C   UNL     1      46.290   3.041   6.561  0.00  0.00    +0.000 C 
ENDBRANCH  18  27
ENDBRANCH  17  22
ENDBRANCH   1  17
TORSDOF 5
ENDMDL
MODEL 5
REMARK VINA RESULT:    -6.917      4.019      7.193
REMARK INTER + INTRA:          -9.836
REMARK INTER:                  -8.846
REMARK INTRA:                  -0.990
REMARK UNBOUND:                -0.897
REMARK  Name = 
REMARK  5 active torsions:
REMARK  status: ('A' for Active; 'I' for Inactive)
REMARK    1  A    between atoms: C_2  and  C_3
REMARK    2  A    between atoms: N_7  and  C_8
REMARK    3  A    between atoms: C_8  and  C_9
REMARK    4  A    between atoms: C_11  and  C_12
REMARK    5  A    between atoms: C_19  and  C_20
REMARK                            x       y       z     vdW  Elec       q    Type
REMARK                         _______ _______ _______ _____ _____    ______ ____
ROOT
ATOM      1  C   UNL     1      46.545   4.302  13.517  0.00  0.00    +0.000 A 
ATOM      2  C   UNL     1      46.626   5.689  13.361  0.00  0.00    +0.000 A 
ATOM      3  C   UNL     1      45.955   6.364  12.331  0.00  0.00    +0.000 A 
ATOM      4  C   UNL     1      45.155   5.608  11.461  0.00  0.00    +0.000 A 
ATOM      5  C   UNL     1      45.049   4.217  11.588  0.00  0.00    +0.000 A 
ATOM      6  C   UNL     1      45.728   3.579  12.637  0.00  0.00    +0.000 A 
ENDROOT
BRANCH   3   7
ATOM      7  C   UNL     1      46.149   7.808  12.132  0.00  0.00    +0.000 A 
ATOM      8  C   UNL     1      47.409   8.405  12.227  0.00  0.00    +0.000 A 
ATOM      9  C   UNL     1      47.550   9.778  12.056  0.00  0.00    +0.000 A 
ATOM     10  C   UNL     1      46.415  10.522  11.782  0.00  0.00    +0.000 A 
ATOM     11  N   UNL     1      45.178   9.998  11.681  0.00  0.00    +0.000 NA
ATOM     12  C   UNL     1      45.078   8.663  11.862  0.00  0.00    +0.000 A 
ENDBRANCH   3   7
BRANCH   5  13
ATOM     13  C   UNL     1      44.298   3.416  10.553  0.00  0.00    +0.000 C 
ATOM     14  F   UNL     1      43.753   4.182   9.567  0.00  0.00    +0.000 F 
ATOM     15  F   UNL     1      45.105   2.518   9.922  0.00  0.00    +0.000 F 
ATOM     16  F   UNL     1      43.273   2.696  11.081  0.00  0.00    +0.000 F 
ENDBRANCH   5  13
BRANCH   1  17
ATOM     17  C   UNL     1      47.360   3.548  14.544  0.00  0.00    +0.000 C 
BRANCH  17  22
ATOM     18  C   UNL     1      48.441   6.372  18.698  0.00  0.00    +0.000 A 
ATOM     19  C   UNL     1      49.061   6.319  17.457  0.00  0.00    +0.000 A 
ATOM     20  C   UNL     1      48.561   5.451  16.491  0.00  0.00    +0.000 A 
ATOM     21  C   UNL     1      47.473   4.639  16.787  0.00  0.00    +0.000 A 
ATOM     22  N   UNL     1      46.928   3.757  15.903  0.00  0.00    +0.000 N 
ATOM     23  N   UNL     1      46.872   4.679  17.995  0.00  0.00    +0.000 NA
ATOM     24  C   UNL     1      47.353   5.548  18.917  0.00  0.00    +0.000 A 
ATOM     25  H   UNL     1      46.264   3.119  16.326  0.00  0.00    +0.000 HD
BRANCH  18  27
ATOM     26  N   UNL     1      49.298   7.959  20.545  0.00  0.00    +0.000 NA
ATOM     27  C   UNL     1      48.912   7.248  19.722  0.00  0.00    +0.000 C 
ENDBRANCH  18  27
ENDBRANCH  17  22
ENDBRANCH   1  17
TORSDOF 5
ENDMDL
MODEL 6
REMARK VINA RESULT:    -6.442      3.124      7.353
REMARK INTER + INTRA:          -9.222
REMARK INTER:                  -8.304
REMARK INTRA:                  -0.918
REMARK UNBOUND:                -0.897
REMARK  Name = 
REMARK  5 active torsions:
REMARK  status: ('A' for Active; 'I' for Inactive)
REMARK    1  A    between atoms: C_2  and  C_3
REMARK    2  A    between atoms: N_7  and  C_8
REMARK    3  A    between atoms: C_8  and  C_9
REMARK    4  A    between atoms: C_11  and  C_12
REMARK    5  A    between atoms: C_19  and  C_20
REMARK                            x       y       z     vdW  Elec       q    Type
REMARK                         _______ _______ _______ _____ _____    ______ ____
ROOT
ATOM      1  C   UNL     1      45.496   5.778  10.329  0.00  0.00    +0.000 A 
ATOM      2  C   UNL     1      45.959   5.102   9.196  0.00  0.00    +0.000 A 
ATOM      3  C   UNL     1      45.654   3.754   8.956  0.00  0.00    +0.000 A 
ATOM      4  C   UNL     1      44.829   3.092   9.878  0.00  0.00    +0.000 A 
ATOM      5  C   UNL     1      44.346   3.738  11.022  0.00  0.00    +0.000 A 
ATOM      6  C   UNL     1      44.664   5.089  11.223  0.00  0.00    +0.000 A 
ENDROOT
BRANCH   3   7
ATOM      7  C   UNL     1      46.247   3.045   7.812  0.00  0.00    +0.000 A 
ATOM      8  C   UNL     1      46.483   3.680   6.590  0.00  0.00    +0.000 A 
ATOM      9  C   UNL     1      47.023   2.970   5.522  0.00  0.00    +0.000 A 
ATOM     10  C   UNL     1      47.324   1.633   5.713  0.00  0.00    +0.000 A 
ATOM     11  N   UNL     1      47.117   0.972   6.869  0.00  0.00    +0.000 NA
ATOM     12  C   UNL     1      46.582   1.691   7.880  0.00  0.00    +0.000 A 
ENDBRANCH   3   7
BRANCH   5  13
ATOM     13  C   UNL     1      43.580   2.962  12.066  0.00  0.00    +0.000 C 
ATOM     14  F   UNL     1      42.803   1.974  11.542  0.00  0.00    +0.000 F 
ATOM     15  F   UNL     1      44.411   2.348  12.954  0.00  0.00    +0.000 F 
ATOM     16  F   UNL     1      42.749   3.744  12.805  0.00  0.00    +0.000 F 
ENDBRANCH   5  13
BRANCH   1  17
ATOM     17  C   UNL     1      45.917   7.191  10.663  0.00  0.00    +0.000 C 
BRANCH  17  22
ATOM     18  C   UNL     1      50.068   8.026  13.575  0.00  0.00    +0.000 A 
ATOM     19  C   UNL     1      49.952   7.827  12.205  0.00  0.00    +0.000 A 
ATOM     20  C   UNL     1      48.689   7.617  11.660  0.00  0.00    +0.000 A 
ATOM     21  C   UNL     1      47.574   7.586  12.489  0.00  0.00    +0.000 A 
ATOM     22  N   UNL     1      46.304   7.378  12.039  0.00  0.00    +0.000 N 
ATOM     23  N   UNL     1      47.682   7.769  13.822  0.00  0.00    +0.000 NA
ATOM     24  C   UNL     1      48.914   7.998  14.336  0.00  0.00    +0.000 A 
ATOM     25  H   UNL     1      45.635   7.206  12.780  0.00  0.00    +0.000 HD
BRANCH  18  27
ATOM     26  N   UNL     1      52.365   8.429  14.681  0.00  0.00    +0.000 NA
ATOM     27  C   UNL     1      51.340   8.249  14.183  0.00  0.00    +0.000 C 
ENDBRANCH  18  27
ENDBRANCH  17  22
ENDBRANCH   1  17
TORSDOF 5
ENDMDL
MODEL 7
REMARK VINA RESULT:    -6.438      4.977      7.901
REMARK INTER + INTRA:          -9.217
REMARK INTER:                  -8.234
REMARK INTRA:                  -0.983
REMARK UNBOUND:                -0.897
REMARK  Name = 
REMARK  5 active torsions:
REMARK  status: ('A' for Active; 'I' for Inactive)
REMARK    1  A    between atoms: C_2  and  C_3
REMARK    2  A    between atoms: N_7  and  C_8
REMARK    3  A    between atoms: C_8  and  C_9
REMARK    4  A    between atoms: C_11  and  C_12
REMARK    5  A    between atoms: C_19  and  C_20
REMARK                            x       y       z     vdW  Elec       q    Type
REMARK                         _______ _______ _______ _____ _____    ______ ____
ROOT
ATOM      1  C   UNL     1      47.559   4.558  15.601  0.00  0.00    +0.000 A 
ATOM      2  C   UNL     1      46.754   4.191  14.518  0.00  0.00    +0.000 A 
ATOM      3  C   UNL     1      46.588   5.019  13.398  0.00  0.00    +0.000 A 
ATOM      4  C   UNL     1      47.288   6.235  13.369  0.00  0.00    +0.000 A 
ATOM      5  C   UNL     1      48.104   6.634  14.435  0.00  0.00    +0.000 A 
ATOM      6  C   UNL     1      48.253   5.775  15.534  0.00  0.00    +0.000 A 
ENDROOT
BRANCH   3   7
ATOM      7  C   UNL     1      45.650   4.649  12.327  0.00  0.00    +0.000 A 
ATOM      8  C   UNL     1      45.552   5.386  11.144  0.00  0.00    +0.000 A 
ATOM      9  C   UNL     1      44.635   5.020  10.163  0.00  0.00    +0.000 A 
ATOM     10  C   UNL     1      43.842   3.909  10.393  0.00  0.00    +0.000 A 
ATOM     11  N   UNL     1      43.896   3.164  11.515  0.00  0.00    +0.000 NA
ATOM     12  C   UNL     1      44.790   3.556  12.449  0.00  0.00    +0.000 A 
ENDBRANCH   3   7
BRANCH   5  13
ATOM     13  C   UNL     1      48.728   8.008  14.439  0.00  0.00    +0.000 C 
ATOM     14  F   UNL     1      47.903   8.975  14.929  0.00  0.00    +0.000 F 
ATOM     15  F   UNL     1      49.851   8.053  15.210  0.00  0.00    +0.000 F 
ATOM     16  F   UNL     1      49.104   8.425  13.200  0.00  0.00    +0.000 F 
ENDBRANCH   5  13
BRANCH   1  17
ATOM     17  C   UNL     1      47.649   3.734  16.866  0.00  0.00    +0.000 C 
BRANCH  17  22
ATOM     18  C   UNL     1      52.477   2.369  17.972  0.00  0.00    +0.000 A 
ATOM     19  C   UNL     1      51.826   3.586  18.126  0.00  0.00    +0.000 A 
ATOM     20  C   UNL     1      50.493   3.690  17.738  0.00  0.00    +0.000 A 
ATOM     21  C   UNL     1      49.846   2.592  17.185  0.00  0.00    +0.000 A 
ATOM     22  N   UNL     1      48.547   2.611  16.771  0.00  0.00    +0.000 N 
ATOM     23  N   UNL     1      50.477   1.410  17.024  0.00  0.00    +0.000 NA
ATOM     24  C   UNL     1      51.766   1.316  17.429  0.00  0.00    +0.000 A 
ATOM     25  H   UNL     1      48.283   1.796  16.231  0.00  0.00    +0.000 HD
BRANCH  18  27
ATOM     26  N   UNL     1      54.944   2.077  18.676  0.00  0.00    +0.000 NA
ATOM     27  C   UNL     1      53.842   2.209  18.358  0.00  0.00    +0.000 C 
ENDBRANCH  18  27
ENDBRANCH  17  22
ENDBRANCH   1  17
TORSDOF 5
ENDMDL
MODEL 8
REMARK VINA RESULT:    -6.080      4.765      8.350
REMARK INTER + INTRA:          -8.754
REMARK INTER:                  -7.909
REMARK INTRA:                  -0.844
REMARK UNBOUND:                -0.897
REMARK  Name = 
REMARK  5 active torsions:
REMARK  status: ('A' for Active; 'I' for Inactive)
REMARK    1  A    between atoms: C_2  and  C_3
REMARK    2  A    between atoms: N_7  and  C_8
REMARK    3  A    between atoms: C_8  and  C_9
REMARK    4  A    between atoms: C_11  and  C_12
REMARK    5  A    between atoms: C_19  and  C_20
REMARK                            x       y       z     vdW  Elec       q    Type
REMARK                         _______ _______ _______ _____ _____    ______ ____
ROOT
ATOM      1  C   UNL     1      47.065   7.901  13.171  0.00  0.00    +0.000 A 
ATOM      2  C   UNL     1      46.499   6.645  12.925  0.00  0.00    +0.000 A 
ATOM      3  C   UNL     1      45.378   6.482  12.099  0.00  0.00    +0.000 A 
ATOM      4  C   UNL     1      44.843   7.623  11.482  0.00  0.00    +0.000 A 
ATOM      5  C   UNL     1      45.384   8.896  11.704  0.00  0.00    +0.000 A 
ATOM      6  C   UNL     1      46.512   9.018  12.529  0.00  0.00    +0.000 A 
ENDROOT
BRANCH   3   7
ATOM      7  C   UNL     1      44.744   5.163  11.950  0.00  0.00    +0.000 A 
ATOM      8  C   UNL     1      44.610   4.544  10.705  0.00  0.00    +0.000 A 
ATOM      9  C   UNL     1      43.983   3.306  10.600  0.00  0.00    +0.000 A 
ATOM     10  C   UNL     1      43.514   2.713  11.758  0.00  0.00    +0.000 A 
ATOM     11  N   UNL     1      43.617   3.265  12.983  0.00  0.00    +0.000 NA
ATOM     12  C   UNL     1      44.222   4.471  13.045  0.00  0.00    +0.000 A 
ENDBRANCH   3   7
BRANCH   5  13
ATOM     13  C   UNL     1      44.702  10.119  11.143  0.00  0.00    +0.000 C 
ATOM     14  F   UNL     1      43.993   9.869  10.006  0.00  0.00    +0.000 F 
ATOM     15  F   UNL     1      43.812  10.654  12.024  0.00  0.00    +0.000 F 
ATOM     16  F   UNL     1      45.572  11.117  10.832  0.00  0.00    +0.000 F 
ENDBRANCH   5  13
BRANCH   1  17
ATOM     17  C   UNL     1      48.194   8.107  14.155  0.00  0.00    +0.000 C 
BRANCH  17  22
ATOM     18  C   UNL     1      49.455   5.896  18.619  0.00  0.00    +0.000 A 
ATOM     19  C   UNL     1      48.963   7.167  18.348  0.00  0.00    +0.000 A 
ATOM     20  C   UNL     1      48.702   7.520  17.028  0.00  0.00    +0.000 A 
ATOM     21  C   UNL     1      48.957   6.615  16.005  0.00  0.00    +0.000 A 
ATOM     22  N   UNL     1      48.739   6.883  14.687  0.00  0.00    +0.000 N 
ATOM     23  N   UNL     1      49.444   5.382  16.261  0.00  0.00    +0.000 NA
ATOM     24  C   UNL     1      49.669   5.042  17.553  0.00  0.00    +0.000 A 
ATOM     25  H   UNL     1      49.141   6.195  14.062  0.00  0.00    +0.000 HD
BRANCH  18  27
ATOM     26  N   UNL     1      49.960   5.142  21.035  0.00  0.00    +0.000 NA
ATOM     27  C   UNL     1      49.735   5.483  19.956  0.00  0.00    +0.000 C 
ENDBRANCH  18  27
ENDBRANCH  17  22
ENDBRANCH   1  17
TORSDOF 5
ENDMDL
MODEL 9
REMARK VINA RESULT:    -6.048      4.749      6.550
REMARK INTER + INTRA:          -8.713
REMARK INTER:                  -7.787
REMARK INTRA:                  -0.926
REMARK UNBOUND:                -0.897
REMARK  Name = 
REMARK  5 active torsions:
REMARK  status: ('A' for Active; 'I' for Inactive)
REMARK    1  A    between atoms: C_2  and  C_3
REMARK    2  A    between atoms: N_7  and  C_8
REMARK    3  A    between atoms: C_8  and  C_9
REMARK    4  A    between atoms: C_11  and  C_12
REMARK    5  A    between atoms: C_19  and  C_20
REMARK                            x       y       z     vdW  Elec       q    Type
REMARK                         _______ _______ _______ _____ _____    ______ ____
ROOT
ATOM      1  C   UNL     1      48.635   6.597  15.876  0.00  0.00    +0.000 A 
ATOM      2  C   UNL     1      48.600   7.625  16.824  0.00  0.00    +0.000 A 
ATOM      3  C   UNL     1      48.535   7.367  18.201  0.00  0.00    +0.000 A 
ATOM      4  C   UNL     1      48.541   6.028  18.620  0.00  0.00    +0.000 A 
ATOM      5  C   UNL     1      48.577   4.974  17.700  0.00  0.00    +0.000 A 
ATOM      6  C   UNL     1      48.651   5.271  16.331  0.00  0.00    +0.000 A 
ENDROOT
BRANCH   3   7
ATOM      7  C   UNL     1      48.390   8.470  19.163  0.00  0.00    +0.000 A 
ATOM      8  C   UNL     1      47.163   9.099  19.387  0.00  0.00    +0.000 A 
ATOM      9  C   UNL     1      47.070  10.156  20.287  0.00  0.00    +0.000 A 
ATOM     10  C   UNL     1      48.218  10.550  20.952  0.00  0.00    +0.000 A 
ATOM     11  N   UNL     1      49.425   9.979  20.774  0.00  0.00    +0.000 NA
ATOM     12  C   UNL     1      49.479   8.963  19.885  0.00  0.00    +0.000 A 
ENDBRANCH   3   7
BRANCH   5  13
ATOM     13  C   UNL     1      48.438   3.548  18.173  0.00  0.00    +0.000 C 
ATOM     14  F   UNL     1      49.438   2.733  17.734  0.00  0.00    +0.000 F 
ATOM     15  F   UNL     1      48.457   3.458  19.532  0.00  0.00    +0.000 F 
ATOM     16  F   UNL     1      47.276   2.966  17.772  0.00  0.00    +0.000 F 
ENDBRANCH   5  13
BRANCH   1  17
ATOM     17  C   UNL     1      48.580   6.860  14.388  0.00  0.00    +0.000 C 
BRANCH  17  22
ATOM     18  C   UNL     1      44.705   4.054  12.511  0.00  0.00    +0.000 A 
ATOM     19  C   UNL     1      45.975   3.675  12.926  0.00  0.00    +0.000 A 
ATOM     20  C   UNL     1      46.848   4.651  13.400  0.00  0.00    +0.000 A 
ATOM     21  C   UNL     1      46.449   5.982  13.428  0.00  0.00    +0.000 A 
ATOM     22  N   UNL     1      47.243   6.999  13.867  0.00  0.00    +0.000 N 
ATOM     23  N   UNL     1      45.219   6.357  13.016  0.00  0.00    +0.000 NA
ATOM     24  C   UNL     1      44.371   5.394  12.582  0.00  0.00    +0.000 A 
ATOM     25  H   UNL     1      46.875   7.919  13.656  0.00  0.00    +0.000 HD
BRANCH  18  27
ATOM     26  N   UNL     1      43.015   2.313  11.632  0.00  0.00    +0.000 NA
ATOM     27  C   UNL     1      43.771   3.092  12.021  0.00  0.00    +0.000 C 
ENDBRANCH  18  27
ENDBRANCH  17  22
ENDBRANCH   1  17
TORSDOF 5
ENDMDL
