MODEL 1
REMARK VINA RESULT:    -7.440      0.000      0.000
REMARK INTER + INTRA:          -9.791
REMARK INTER:                  -9.180
REMARK INTRA:                  -0.611
REMARK UNBOUND:                -0.611
REMARK  Name = 
REMARK  4 active torsions:
REMARK  status: ('A' for Active; 'I' for Inactive)
REMARK    1  A    between atoms: C_2  and  C_3
REMARK    2  A    between atoms: N_7  and  C_8
REMARK    3  A    between atoms: C_8  and  C_9
REMARK    4  A    between atoms: C_11  and  C_12
REMARK                            x       y       z     vdW  Elec       q    Type
REMARK                         _______ _______ _______ _____ _____    ______ ____
ROOT
ATOM      1  C   UNL     1      44.059   5.739  11.359  0.00  0.00    +0.000 C 
ATOM      2  C   UNL     1      42.914   4.851  11.783  0.00  0.00    +0.000 C 
ATOM      3  C   UNL     1      42.635   6.271  11.405  0.00  0.00    +0.000 C 
ENDROOT
BRANCH   1   8
ATOM      4  C   UNL     1      46.249   2.408   7.944  0.00  0.00    +0.000 A 
ATOM      5  C   UNL     1      45.616   2.137   9.154  0.00  0.00    +0.000 A 
ATOM      6  C   UNL     1      45.092   3.195   9.907  0.00  0.00    +0.000 A 
ATOM      7  C   UNL     1      45.224   4.498   9.438  0.00  0.00    +0.000 A 
ATOM      8  N   UNL     1      44.640   5.613  10.018  0.00  0.00    +0.000 N 
ATOM      9  N   UNL     1      45.877   4.764   8.288  0.00  0.00    +0.000 NA
ATOM     10  C   UNL     1      46.358   3.730   7.561  0.00  0.00    +0.000 A 
ATOM     11  H   UNL     1      45.032   6.451   9.596  0.00  0.00    +0.000 HD
BRANCH   4  13
ATOM     12  N   UNL     1      47.137   0.522   6.411  0.00  0.00    +0.000 NA
ATOM     13  C   UNL     1      46.749   1.370   7.100  0.00  0.00    +0.000 C 
ENDBRANCH   4  13
ENDBRANCH   1   8
BRANCH   1  14
ATOM     14  C   UNL     1      45.054   6.351  12.345  0.00  0.00    +0.000 A 
ATOM     15  C   UNL     1      45.483   5.592  13.432  0.00  0.00    +0.000 A 
ATOM     16  C   UNL     1      46.750   5.810  13.997  0.00  0.00    +0.000 A 
ATOM     17  C   UNL     1      47.464   6.922  13.542  0.00  0.00    +0.000 A 
ATOM     18  C   UNL     1      46.901   7.731  12.572  0.00  0.00    +0.000 A 
ATOM     19  N   UNL     1      45.733   7.463  11.963  0.00  0.00    +0.000 NA
BRANCH  16  20
ATOM     20  C   UNL     1      47.334   4.824  14.927  0.00  0.00    +0.000 A 
ATOM     21  C   UNL     1      47.406   3.463  14.637  0.00  0.00    +0.000 A 
ATOM     22  N   UNL     1      47.951   2.524  15.442  0.00  0.00    +0.000 NA
ATOM     23  C   UNL     1      48.472   2.983  16.587  0.00  0.00    +0.000 A 
ATOM     24  N   UNL     1      48.482   4.263  16.985  0.00  0.00    +0.000 NA
ATOM     25  C   UNL     1      47.915   5.150  16.141  0.00  0.00    +0.000 A 
ENDBRANCH  16  20
ENDBRANCH   1  14
TORSDOF 4
ENDMDL
MODEL 2
REMARK VINA RESULT:    -7.115      1.711      7.555
REMARK INTER + INTRA:          -9.390
REMARK INTER:                  -9.579
REMARK INTRA:                   0.189
REMARK UNBOUND:                -0.611
REMARK  Name = 
REMARK  4 active torsions:
REMARK  status: ('A' for Active; 'I' for Inactive)
REMARK    1  A    between atoms: C_2  and  C_3
REMARK    2  A    between atoms: N_7  and  C_8
REMARK    3  A    between atoms: C_8  and  C_9
REMARK    4  A    between atoms: C_11  and  C_12
REMARK                            x       y       z     vdW  Elec       q    Type
REMARK                         _______ _______ _______ _____ _____    ______ ____
ROOT
ATOM      1  C   UNL     1      45.543   5.459  11.725  0.00  0.00    +0.000 C 
ATOM      2  C   UNL     1      46.440   6.595  11.295  0.00  0.00    +0.000 C 
ATOM      3  C   UNL     1      45.025   6.888  11.679  0.00  0.00    +0.000 C 
ENDROOT
BRANCH   1   8
ATOM      4  C   UNL     1      48.411   5.442  16.122  0.00  0.00    +0.000 A 
ATOM      5  C   UNL     1      48.486   6.298  15.027  0.00  0.00    +0.000 A 
ATOM      6  C   UNL     1      47.603   6.119  13.954  0.00  0.00    +0.000 A 
ATOM      7  C   UNL     1      46.677   5.082  13.997  0.00  0.00    +0.000 A 
ATOM      8  N   UNL     1      45.670   4.879  13.067  0.00  0.00    +0.000 N 
ATOM      9  N   UNL     1      46.634   4.225  15.038  0.00  0.00    +0.000 NA
ATOM     10  C   UNL     1      47.478   4.425  16.077  0.00  0.00    +0.000 A 
ATOM     11  H   UNL     1      45.251   3.966  13.225  0.00  0.00    +0.000 HD
BRANCH   4  13
ATOM     12  N   UNL     1      49.915   5.724  18.208  0.00  0.00    +0.000 NA
ATOM     13  C   UNL     1      49.238   5.609  17.274  0.00  0.00    +0.000 C 
ENDBRANCH   4  13
ENDBRANCH   1   8
BRANCH   1  14
ATOM     14  C   UNL     1      44.916   4.468  10.745  0.00  0.00    +0.000 A 
ATOM     15  C   UNL     1      45.511   4.283   9.497  0.00  0.00    +0.000 A 
ATOM     16  C   UNL     1      45.389   3.056   8.826  0.00  0.00    +0.000 A 
ATOM     17  C   UNL     1      44.510   2.118   9.374  0.00  0.00    +0.000 A 
ATOM     18  C   UNL     1      43.824   2.437  10.532  0.00  0.00    +0.000 A 
ATOM     19  N   UNL     1      44.018   3.571  11.226  0.00  0.00    +0.000 NA
BRANCH  16  20
ATOM     20  C   UNL     1      46.258   2.744   7.674  0.00  0.00    +0.000 A 
ATOM     21  C   UNL     1      47.035   1.590   7.606  0.00  0.00    +0.000 A 
ATOM     22  N   UNL     1      47.828   1.246   6.566  0.00  0.00    +0.000 NA
ATOM     23  C   UNL     1      47.818   2.097   5.533  0.00  0.00    +0.000 A 
ATOM     24  N   UNL     1      47.111   3.234   5.461  0.00  0.00    +0.000 NA
ATOM     25  C   UNL     1      46.347   3.525   6.533  0.00  0.00    +0.000 A 
ENDBRANCH  16  20
ENDBRANCH   1  14
TORSDOF 4
ENDMDL
MODEL 3
REMARK VINA RESULT:    -6.472      2.012      6.762
REMARK INTER + INTRA:          -8.597
REMARK INTER:                  -8.010
REMARK INTRA:                  -0.587
REMARK UNBOUND:                -0.611
REMARK  Name = 
REMARK  4 active torsions:
REMARK  status: ('A' for Active; 'I' for Inactive)
REMARK    1  A    between atoms: C_2  and  C_3
REMARK    2  A    between atoms: N_7  and  C_8
REMARK    3  A    between atoms: C_8  and  C_9
REMARK    4  A    between atoms: C_11  and  C_12
REMARK                            x       y       z     vdW  Elec       q    Type
REMARK                         _______ _______ _______ _____ _____    ______ ____
ROOT
ATOM      1  C   UNL     1      43.629   5.579  11.575  0.00  0.00    +0.000 C 
ATOM      2  C   UNL     1      43.221   6.891  10.946  0.00  0.00    +0.000 C 
ATOM      3  C   UNL     1      42.300   6.233  11.924  0.00  0.00    +0.000 C 
ENDROOT
BRANCH   1   8
ATOM      4  C   UNL     1      48.471   7.037  12.981  0.00  0.00    +0.000 A 
ATOM      5  C   UNL     1      47.736   7.399  11.857  0.00  0.00    +0.000 A 
ATOM      6  C   UNL     1      46.443   6.889  11.687  0.00  0.00    +0.000 A 
ATOM      7  C   UNL     1      45.922   6.019  12.640  0.00  0.00    +0.000 A 
ATOM      8  N   UNL     1      44.618   5.550  12.657  0.00  0.00    +0.000 N 
ATOM      9  N   UNL     1      46.652   5.632  13.707  0.00  0.00    +0.000 NA
ATOM     10  C   UNL     1      47.890   6.151  13.868  0.00  0.00    +0.000 A 
ATOM     11  H   UNL     1      44.543   4.800  13.341  0.00  0.00    +0.000 HD
BRANCH   4  13
ATOM     12  N   UNL     1      50.815   8.019  13.466  0.00  0.00    +0.000 NA
ATOM     13  C   UNL     1      49.770   7.570  13.244  0.00  0.00    +0.000 C 
ENDBRANCH   4  13
ENDBRANCH   1   8
BRANCH   1  14
ATOM     14  C   UNL     1      43.565   4.241  10.838  0.00  0.00    +0.000 A 
ATOM     15  C   UNL     1      44.270   4.092   9.645  0.00  0.00    +0.000 A 
ATOM     16  C   UNL     1      44.739   2.830   9.249  0.00  0.00    +0.000 A 
ATOM     17  C   UNL     1      44.315   1.730  10.001  0.00  0.00    +0.000 A 
ATOM     18  C   UNL     1      43.477   1.940  11.081  0.00  0.00    +0.000 A 
ATOM     19  N   UNL     1      43.111   3.157  11.517  0.00  0.00    +0.000 NA
BRANCH  16  20
ATOM     20  C   UNL     1      45.738   2.708   8.169  0.00  0.00    +0.000 A 
ATOM     21  C   UNL     1      46.041   3.754   7.300  0.00  0.00    +0.000 A 
ATOM     22  N   UNL     1      46.962   3.702   6.312  0.00  0.00    +0.000 NA
ATOM     23  C   UNL     1      47.630   2.546   6.210  0.00  0.00    +0.000 A 
ATOM     24  N   UNL     1      47.449   1.466   6.985  0.00  0.00    +0.000 NA
ATOM     25  C   UNL     1      46.509   1.579   7.947  0.00  0.00    +0.000 A 
ENDBRANCH  16  20
ENDBRANCH   1  14
TORSDOF 4
ENDMDL
MODEL 4
REMARK VINA RESULT:    -6.378      2.970      8.145
REMARK INTER + INTRA:          -8.480
REMARK INTER:                  -8.193
REMARK INTRA:                  -0.287
REMARK UNBOUND:                -0.611
REMARK  Name = 
REMARK  4 active torsions:
REMARK  status: ('A' for Active; 'I' for Inactive)
REMARK    1  A    between atoms: C_2  and  C_3
REMARK    2  A    between atoms: N_7  and  C_8
REMARK    3  A    between atoms: C_8  and  C_9
REMARK    4  A    between atoms: C_11  and  C_12
REMARK                            x       y       z     vdW  Elec       q    Type
REMARK                         _______ _______ _______ _____ _____    ______ ____
ROOT
ATOM      1  C   UNL     1      48.074   4.335  16.979  0.00  0.00    +0.000 C 
ATOM      2  C   UNL     1      48.007   5.243  18.184  0.00  0.00    +0.000 C 
ATOM      3  C   UNL     1      46.805   4.435  17.812  0.00  0.00    +0.000 C 
ENDROOT
BRANCH   1   8
ATOM      4  C   UNL     1      52.696   2.039  17.937  0.00  0.00    +0.000 A 
ATOM      5  C   UNL     1      52.316   3.364  18.129  0.00  0.00    +0.000 A 
ATOM      6  C   UNL     1      51.011   3.758  17.807  0.00  0.00    +0.000 A 
ATOM      7  C   UNL     1      50.123   2.821  17.290  0.00  0.00    +0.000 A 
ATOM      8  N   UNL     1      48.776   3.050  17.055  0.00  0.00    +0.000 N 
ATOM      9  N   UNL     1      50.504   1.547  17.062  0.00  0.00    +0.000 NA
ATOM     10  C   UNL     1      51.761   1.176  17.398  0.00  0.00    +0.000 A 
ATOM     11  H   UNL     1      48.396   2.275  16.516  0.00  0.00    +0.000 HD
BRANCH   4  13
ATOM     12  N   UNL     1      55.049   1.179  18.583  0.00  0.00    +0.000 NA
ATOM     13  C   UNL     1      53.990   1.559  18.303  0.00  0.00    +0.000 C 
ENDBRANCH   4  13
ENDBRANCH   1   8
BRANCH   1  14
ATOM     14  C   UNL     1      47.993   4.845  15.541  0.00  0.00    +0.000 A 
ATOM     15  C   UNL     1      47.004   4.340  14.698  0.00  0.00    +0.000 A 
ATOM     16  C   UNL     1      46.496   5.121  13.648  0.00  0.00    +0.000 A 
ATOM     17  C   UNL     1      47.147   6.330  13.384  0.00  0.00    +0.000 A 
ATOM     18  C   UNL     1      48.232   6.691  14.161  0.00  0.00    +0.000 A 
ATOM     19  N   UNL     1      48.653   5.990  15.228  0.00  0.00    +0.000 NA
BRANCH  16  20
ATOM     20  C   UNL     1      45.253   4.728  12.957  0.00  0.00    +0.000 A 
ATOM     21  C   UNL     1      44.106   5.520  12.957  0.00  0.00    +0.000 A 
ATOM     22  N   UNL     1      42.952   5.217  12.322  0.00  0.00    +0.000 NA
ATOM     23  C   UNL     1      42.961   4.071  11.631  0.00  0.00    +0.000 A 
ATOM     24  N   UNL     1      43.995   3.222  11.536  0.00  0.00    +0.000 NA
ATOM     25  C   UNL     1      45.115   3.576  12.199  0.00  0.00    +0.000 A 
ENDBRANCH  16  20
ENDBRANCH   1  14
TORSDOF 4
ENDMDL
MODEL 5
REMARK VINA RESULT:    -6.245      2.022      6.783
REMARK INTER + INTRA:          -8.317
REMARK INTER:                  -7.875
REMARK INTRA:                  -0.442
REMARK UNBOUND:                -0.611
REMARK  Name = 
REMARK  4 active torsions:
REMARK  status: ('A' for Active; 'I' for Inactive)
REMARK    1  A    between atoms: C_2  and  C_3
REMARK    2  A    between atoms: N_7  and  C_8
REMARK    3  A    between atoms: C_8  and  C_9
REMARK    4  A    between atoms: C_11  and  C_12
REMARK                            x       y       z     vdW  Elec       q    Type
REMARK                         _______ _______ _______ _____ _____    ______ ____
ROOT
ATOM      1  C   UNL     1      49.056   7.915  12.525  0.00  0.00    +0.000 C 
ATOM      2  C   UNL     1      50.168   7.679  11.531  0.00  0.00    +0.000 C 
ATOM      3  C   UNL     1      49.939   9.061  12.055  0.00  0.00    +0.000 C 
ENDROOT
BRANCH   1   8
ATOM      4  C   UNL     1      47.545   4.521  16.234  0.00  0.00    +0.000 A 
ATOM      5  C   UNL     1      47.295   4.496  14.865  0.00  0.00    +0.000 A 
ATOM      6  C   UNL     1      47.811   5.515  14.054  0.00  0.00    +0.000 A 
ATOM      7  C   UNL     1      48.552   6.539  14.633  0.00  0.00    +0.000 A 
ATOM      8  N   UNL     1      49.222   7.529  13.931  0.00  0.00    +0.000 N 
ATOM      9  N   UNL     1      48.757   6.587  15.966  0.00  0.00    +0.000 NA
ATOM     10  C   UNL     1      48.272   5.585  16.733  0.00  0.00    +0.000 A 
ATOM     11  H   UNL     1      49.532   8.246  14.581  0.00  0.00    +0.000 HD
BRANCH   4  13
ATOM     12  N   UNL     1      46.725   2.634  17.803  0.00  0.00    +0.000 NA
ATOM     13  C   UNL     1      47.102   3.481  17.106  0.00  0.00    +0.000 C 
ENDBRANCH   4  13
ENDBRANCH   1   8
BRANCH   1  14
ATOM     14  C   UNL     1      47.580   7.978  12.133  0.00  0.00    +0.000 A 
ATOM     15  C   UNL     1      47.071   7.018  11.260  0.00  0.00    +0.000 A 
ATOM     16  C   UNL     1      45.717   6.648  11.320  0.00  0.00    +0.000 A 
ATOM     17  C   UNL     1      44.889   7.406  12.153  0.00  0.00    +0.000 A 
ATOM     18  C   UNL     1      45.436   8.455  12.869  0.00  0.00    +0.000 A 
ATOM     19  N   UNL     1      46.749   8.743  12.886  0.00  0.00    +0.000 NA
BRANCH  16  20
ATOM     20  C   UNL     1      45.243   5.433  10.630  0.00  0.00    +0.000 A 
ATOM     21  C   UNL     1      45.631   5.100   9.334  0.00  0.00    +0.000 A 
ATOM     22  N   UNL     1      45.245   3.989   8.667  0.00  0.00    +0.000 NA
ATOM     23  C   UNL     1      44.447   3.159   9.350  0.00  0.00    +0.000 A 
ATOM     24  N   UNL     1      44.007   3.349  10.603  0.00  0.00    +0.000 NA
ATOM     25  C   UNL     1      44.421   4.480  11.210  0.00  0.00    +0.000 A 
ENDBRANCH  16  20
ENDBRANCH   1  14
TORSDOF 4
ENDMDL
MODEL 6
REMARK VINA RESULT:    -6.086      1.912      3.301
REMARK INTER + INTRA:          -8.120
REMARK INTER:                  -7.562
REMARK INTRA:                  -0.558
REMARK UNBOUND:                -0.611
REMARK  Name = 
REMARK  4 active torsions:
REMARK  status: ('A' for Active; 'I' for Inactive)
REMARK    1  A    between atoms: C_2  and  C_3
REMARK    2  A    between atoms: N_7  and  C_8
REMARK    3  A    between atoms: C_8  and  C_9
REMARK    4  A    between atoms: C_11  and  C_12
REMARK                            x       y       z     vdW  Elec       q    Type
REMARK                         _______ _______ _______ _____ _____    ______ ____
ROOT
ATOM      1  C   UNL     1      44.552   4.706  11.861  0.00  0.00    +0.000 C 
ATOM      2  C   UNL     1      43.318   3.892  12.170  0.00  0.00    +0.000 C 
ATOM      3  C   UNL     1      43.298   5.368  12.411  0.00  0.00    +0.000 C 
ENDROOT
BRANCH   1   8
ATOM      4  C   UNL     1      46.460   2.848   7.338  0.00  0.00    +0.000 A 
ATOM      5  C   UNL     1      46.097   2.156   8.489  0.00  0.00    +0.000 A 
ATOM      6  C   UNL     1      45.597   2.865   9.588  0.00  0.00    +0.000 A 
ATOM      7  C   UNL     1      45.484   4.249   9.513  0.00  0.00    +0.000 A 
ATOM      8  N   UNL     1      44.888   5.049  10.475  0.00  0.00    +0.000 N 
ATOM      9  N   UNL     1      45.878   4.925   8.414  0.00  0.00    +0.000 NA
ATOM     10  C   UNL     1      46.338   4.224   7.353  0.00  0.00    +0.000 A 
ATOM     11  H   UNL     1      45.092   6.024  10.270  0.00  0.00    +0.000 HD
BRANCH   4  13
ATOM     12  N   UNL     1      47.294   1.654   5.199  0.00  0.00    +0.000 NA
ATOM     13  C   UNL     1      46.918   2.179   6.161  0.00  0.00    +0.000 C 
ENDBRANCH   4  13
ENDBRANCH   1   8
BRANCH   1  14
ATOM     14  C   UNL     1      45.790   4.724  12.758  0.00  0.00    +0.000 A 
ATOM     15  C   UNL     1      46.737   5.732  12.582  0.00  0.00    +0.000 A 
ATOM     16  C   UNL     1      47.525   6.164  13.661  0.00  0.00    +0.000 A 
ATOM     17  C   UNL     1      47.441   5.424  14.844  0.00  0.00    +0.000 A 
ATOM     18  C   UNL     1      46.597   4.330  14.893  0.00  0.00    +0.000 A 
ATOM     19  N   UNL     1      45.770   3.979  13.893  0.00  0.00    +0.000 NA
BRANCH  16  20
ATOM     20  C   UNL     1      48.295   7.420  13.569  0.00  0.00    +0.000 A 
ATOM     21  C   UNL     1      47.893   8.599  14.194  0.00  0.00    +0.000 A 
ATOM     22  N   UNL     1      48.573   9.767  14.160  0.00  0.00    +0.000 NA
ATOM     23  C   UNL     1      49.727   9.739  13.484  0.00  0.00    +0.000 A 
ATOM     24  N   UNL     1      50.237   8.675  12.848  0.00  0.00    +0.000 NA
ATOM     25  C   UNL     1      49.508   7.542  12.911  0.00  0.00    +0.000 A 
ENDBRANCH  16  20
ENDBRANCH   1  14
TORSDOF 4
ENDMDL
MODEL 7
REMARK VINA RESULT:    -5.936      2.201      7.481
REMARK INTER + INTRA:          -7.936
REMARK INTER:                  -8.184
REMARK INTRA:                   0.249
REMARK UNBOUND:                -0.611
REMARK  Name = 
REMARK  4 active torsions:
REMARK  status: ('A' for Active; 'I' for Inactive)
REMARK    1  A    between atoms: C_2  and  C_3
REMARK    2  A    between atoms: N_7  and  C_8
REMARK    3  A    between atoms: C_8  and  C_9
REMARK    4  A    between atoms: C_11  and  C_12
REMARK                            x       y       z     vdW  Elec       q    Type
REMARK                         _______ _______ _______ _____ _____    ______ ____
ROOT
ATOM      1  C   UNL     1      46.542   7.094  13.062  0.00  0.00    +0.000 C 
ATOM      2  C   UNL     1      47.430   8.006  12.250  0.00  0.00    +0.000 C 
ATOM      3  C   UNL     1      46.358   8.603  13.106  0.00  0.00    +0.000 C 
ENDROOT
BRANCH   1   8
ATOM      4  C   UNL     1      50.717   6.577  16.201  0.00  0.00    +0.000 A 
ATOM      5  C   UNL     1      50.536   7.424  15.113  0.00  0.00    +0.000 A 
ATOM      6  C   UNL     1      49.320   7.398  14.416  0.00  0.00    +0.000 A 
ATOM      7  C   UNL     1      48.322   6.517  14.819  0.00  0.00    +0.000 A 
ATOM      8  N   UNL     1      47.037   6.484  14.301  0.00  0.00    +0.000 N 
ATOM      9  N   UNL     1      48.515   5.664  15.847  0.00  0.00    +0.000 NA
ATOM     10  C   UNL     1      49.685   5.717  16.522  0.00  0.00    +0.000 A 
ATOM     11  H   UNL     1      46.566   5.645  14.632  0.00  0.00    +0.000 HD
BRANCH   4  13
ATOM     12  N   UNL     1      52.863   6.607  17.645  0.00  0.00    +0.000 NA
ATOM     13  C   UNL     1      51.907   6.599  16.990  0.00  0.00    +0.000 C 
ENDBRANCH   4  13
ENDBRANCH   1   8
BRANCH   1  14
ATOM     14  C   UNL     1      45.399   6.279  12.456  0.00  0.00    +0.000 A 
ATOM     15  C   UNL     1      45.553   5.746  11.177  0.00  0.00    +0.000 A 
ATOM     16  C   UNL     1      44.879   4.571  10.810  0.00  0.00    +0.000 A 
ATOM     17  C   UNL     1      43.927   4.078  11.708  0.00  0.00    +0.000 A 
ATOM     18  C   UNL     1      43.709   4.757  12.893  0.00  0.00    +0.000 A 
ATOM     19  N   UNL     1      44.426   5.824  13.286  0.00  0.00    +0.000 NA
BRANCH  16  20
ATOM     20  C   UNL     1      45.268   3.835   9.591  0.00  0.00    +0.000 A 
ATOM     21  C   UNL     1      45.749   4.469   8.447  0.00  0.00    +0.000 A 
ATOM     22  N   UNL     1      46.140   3.841   7.316  0.00  0.00    +0.000 NA
ATOM     23  C   UNL     1      46.065   2.504   7.348  0.00  0.00    +0.000 A 
ATOM     24  N   UNL     1      45.634   1.768   8.382  0.00  0.00    +0.000 NA
ATOM     25  C   UNL     1      45.250   2.454   9.478  0.00  0.00    +0.000 A 
ENDBRANCH  16  20
ENDBRANCH   1  14
TORSDOF 4
ENDMDL
MODEL 8
REMARK VINA RESULT:    -5.798      3.203      7.355
REMARK INTER + INTRA:          -7.765
REMARK INTER:                  -6.898
REMARK INTRA:                  -0.868
REMARK UNBOUND:                -0.611
REMARK  Name = 
REMARK  4 active torsions:
REMARK  status: ('A' for Active; 'I' for Inactive)
REMARK    1  A    between atoms: C_2  and  C_3
REMARK    2  A    between atoms: N_7  and  C_8
REMARK    3  A    between atoms: C_8  and  C_9
REMARK    4  A    between atoms: C_11  and  C_12
REMARK                            x       y       z     vdW  Elec       q    Type
REMARK                         _______ _______ _______ _____ _____    ______ ____
ROOT
ATOM      1  C   UNL     1      48.949   8.248  12.517  0.00  0.00    +0.000 C 
ATOM      2  C   UNL     1      50.043   7.398  11.915  0.00  0.00    +0.000 C 
ATOM      3  C   UNL     1      49.995   8.859  11.596  0.00  0.00    +0.000 C 
ENDROOT
BRANCH   1   8
ATOM      4  C   UNL     1      48.542   6.633  17.495  0.00  0.00    +0.000 A 
ATOM      5  C   UNL     1      48.577   5.878  16.326  0.00  0.00    +0.000 A 
ATOM      6  C   UNL     1      48.700   6.529  15.092  0.00  0.00    +0.000 A 
ATOM      7  C   UNL     1      48.772   7.917  15.056  0.00  0.00    +0.000 A 
ATOM      8  N   UNL     1      49.023   8.670  13.920  0.00  0.00    +0.000 N 
ATOM      9  N   UNL     1      48.692   8.651  16.186  0.00  0.00    +0.000 NA
ATOM     10  C   UNL     1      48.596   8.007  17.371  0.00  0.00    +0.000 A 
ATOM     11  H   UNL     1      48.848   9.650  14.125  0.00  0.00    +0.000 HD
BRANCH   4  13
ATOM     12  N   UNL     1      48.426   5.520  19.828  0.00  0.00    +0.000 NA
ATOM     13  C   UNL     1      48.481   6.028  18.788  0.00  0.00    +0.000 C 
ENDBRANCH   4  13
ENDBRANCH   1   8
BRANCH   1  14
ATOM     14  C   UNL     1      47.507   8.240  12.010  0.00  0.00    +0.000 A 
ATOM     15  C   UNL     1      46.897   7.019  11.727  0.00  0.00    +0.000 A 
ATOM     16  C   UNL     1      45.505   6.876  11.841  0.00  0.00    +0.000 A 
ATOM     17  C   UNL     1      44.764   8.039  12.070  0.00  0.00    +0.000 A 
ATOM     18  C   UNL     1      45.428   9.247  12.177  0.00  0.00    +0.000 A 
ATOM     19  N   UNL     1      46.767   9.367  12.167  0.00  0.00    +0.000 NA
BRANCH  16  20
ATOM     20  C   UNL     1      44.889   5.535  11.850  0.00  0.00    +0.000 A 
ATOM     21  C   UNL     1      45.321   4.512  12.692  0.00  0.00    +0.000 A 
ATOM     22  N   UNL     1      44.777   3.276  12.756  0.00  0.00    +0.000 NA
ATOM     23  C   UNL     1      43.730   3.067  11.947  0.00  0.00    +0.000 A 
ATOM     24  N   UNL     1      43.206   3.963  11.098  0.00  0.00    +0.000 NA
ATOM     25  C   UNL     1      43.798   5.174  11.076  0.00  0.00    +0.000 A 
ENDBRANCH  16  20
ENDBRANCH   1  14
TORSDOF 4
ENDMDL
MODEL 9
REMARK VINA RESULT:    -5.732      4.117      6.791
REMARK INTER + INTRA:          -7.684
REMARK INTER:                  -7.205
REMARK INTRA:                  -0.478
REMARK UNBOUND:                -0.611
REMARK  Name = 
REMARK  4 active torsions:
REMARK  status: ('A' for Active; 'I' for Inactive)
REMARK    1  A    between atoms: C_2  and  C_3
REMARK    2  A    between atoms: N_7  and  C_8
REMARK    3  A    between atoms: C_8  and  C_9
REMARK    4  A    between atoms: C_11  and  C_12
REMARK                            x       y       z     vdW  Elec       q    Type
REMARK                         _______ _______ _______ _____ _____    ______ ____
ROOT
ATOM      1  C   UNL     1      48.867   7.591  13.157  0.00  0.00    +0.000 C 
ATOM      2  C   UNL     1      49.078   8.357  14.441  0.00  0.00    +0.000 C 
ATOM      3  C   UNL     1      48.782   6.893  14.506  0.00  0.00    +0.000 C 
ENDROOT
BRANCH   1   8
ATOM      4  C   UNL     1      52.433   9.348   9.730  0.00  0.00    +0.000 A 
ATOM      5  C   UNL     1      51.532  10.068  10.507  0.00  0.00    +0.000 A 
ATOM      6  C   UNL     1      50.667   9.383  11.370  0.00  0.00    +0.000 A 
ATOM      7  C   UNL     1      50.717   7.994  11.424  0.00  0.00    +0.000 A 
ATOM      8  N   UNL     1      50.012   7.209  12.323  0.00  0.00    +0.000 N 
ATOM      9  N   UNL     1      51.560   7.293  10.638  0.00  0.00    +0.000 NA
ATOM     10  C   UNL     1      52.404   7.970   9.827  0.00  0.00    +0.000 A 
ATOM     11  H   UNL     1      50.083   6.235  12.042  0.00  0.00    +0.000 HD
BRANCH   4  13
ATOM     12  N   UNL     1      54.169  10.503   8.198  0.00  0.00    +0.000 NA
ATOM     13  C   UNL     1      53.383   9.989   8.877  0.00  0.00    +0.000 C 
ENDBRANCH   4  13
ENDBRANCH   1   8
BRANCH   1  14
ATOM     14  C   UNL     1      47.579   7.664  12.339  0.00  0.00    +0.000 A 
ATOM     15  C   UNL     1      46.927   6.480  11.995  0.00  0.00    +0.000 A 
ATOM     16  C   UNL     1      45.537   6.464  11.799  0.00  0.00    +0.000 A 
ATOM     17  C   UNL     1      44.883   7.700  11.787  0.00  0.00    +0.000 A 
ATOM     18  C   UNL     1      45.624   8.853  11.972  0.00  0.00    +0.000 A 
ATOM     19  N   UNL     1      46.938   8.858  12.258  0.00  0.00    +0.000 NA
BRANCH  16  20
ATOM     20  C   UNL     1      44.804   5.184  11.746  0.00  0.00    +0.000 A 
ATOM     21  C   UNL     1      44.510   4.435  12.883  0.00  0.00    +0.000 A 
ATOM     22  N   UNL     1      43.822   3.271  12.891  0.00  0.00    +0.000 NA
ATOM     23  C   UNL     1      43.390   2.852  11.695  0.00  0.00    +0.000 A 
ATOM     24  N   UNL     1      43.591   3.478  10.527  0.00  0.00    +0.000 NA
ATOM     25  C   UNL     1      44.291   4.630  10.585  0.00  0.00    +0.000 A 
ENDBRANCH  16  20
ENDBRANCH   1  14
TORSDOF 4
ENDMDL
