MODEL 1
REMARK VINA RESULT:    -7.337      0.000      0.000
REMARK INTER + INTRA:         -10.788
REMARK INTER:                  -9.910
REMARK INTRA:                  -0.878
REMARK UNBOUND:                -0.878
REMARK  Name = 
REMARK  6 active torsions:
REMARK  status: ('A' for Active; 'I' for Inactive)
REMARK    1  A    between atoms: C_2  and  C_3
REMARK    2  A    between atoms: N_10  and  C_11
REMARK    3  A    between atoms: C_11  and  C_12
REMARK    4  A    between atoms: C_15  and  C_16
REMARK    5  A    between atoms: C_16  and  N_17
REMARK    6  A    between atoms: C_18  and  C_20
REMARK                            x       y       z     vdW  Elec       q    Type
REMARK                         _______ _______ _______ _____ _____    ______ ____
ROOT
ATOM      1  C   UNL     1      51.510   3.194  17.796  0.00  0.00    +0.000 A 
ATOM      2  C   UNL     1      50.769   4.370  17.959  0.00  0.00    +0.000 A 
ATOM      3  C   UNL     1      49.414   4.414  17.611  0.00  0.00    +0.000 A 
ATOM      4  C   UNL     1      48.765   3.276  17.114  0.00  0.00    +0.000 A 
ATOM      5  C   UNL     1      49.511   2.106  16.930  0.00  0.00    +0.000 A 
ATOM      6  C   UNL     1      50.866   2.062  17.275  0.00  0.00    +0.000 A 
ENDROOT
BRANCH   1   7
ATOM      7  C   UNL     1      52.973   3.154  18.146  0.00  0.00    +0.000 C 
BRANCH   7  15
ATOM      8  C   UNL     1      55.096  -0.727  18.265  0.00  0.00    +0.000 A 
ATOM      9  C   UNL     1      55.440  -1.952  17.716  0.00  0.00    +0.000 A 
ATOM     10  C   UNL     1      55.433  -1.813  16.310  0.00  0.00    +0.000 A 
ATOM     11  C   UNL     1      55.125  -0.501  16.042  0.00  0.00    +0.000 A 
ATOM     12  N   UNL     1      54.872   0.168  17.234  0.00  0.00    +0.000 N 
ATOM     13  C   UNL     1      54.549   1.537  17.300  0.00  0.00    +0.000 C 
ATOM     14  O   UNL     1      55.094   2.318  16.535  0.00  0.00    +0.000 OA
ATOM     15  N   UNL     1      53.518   1.813  18.170  0.00  0.00    +0.000 N 
ATOM     16  H   UNL     1      52.925   1.068  18.512  0.00  0.00    +0.000 HD
BRANCH   8  18
ATOM     17  N   UNL     1      55.074  -0.133  20.776  0.00  0.00    +0.000 NA
ATOM     18  C   UNL     1      55.088  -0.397  19.651  0.00  0.00    +0.000 C 
ENDBRANCH   8  18
ENDBRANCH   7  15
ENDBRANCH   1   7
BRANCH   4  19
ATOM     19  C   UNL     1      47.299   3.313  16.768  0.00  0.00    +0.000 C 
BRANCH  19  20
ATOM     20  N   UNL     1      46.977   4.414  15.894  0.00  0.00    +0.000 N 
ATOM     21  C   UNL     1      46.877   4.220  14.539  0.00  0.00    +0.000 C 
ATOM     22  O   UNL     1      47.198   3.159  14.008  0.00  0.00    +0.000 OA
ATOM     23  H   UNL     1      46.537   5.227  16.316  0.00  0.00    +0.000 HD
BRANCH  21  24
ATOM     24  C   UNL     1      46.376   5.343  13.739  0.00  0.00    +0.000 A 
ATOM     25  C   UNL     1      47.178   6.458  13.529  0.00  0.00    +0.000 A 
ATOM     26  S   UNL     1      46.477   7.618  12.494  0.00  0.00    +0.000 S 
ATOM     27  C   UNL     1      45.109   6.639  12.237  0.00  0.00    +0.000 A 
ATOM     28  N   UNL     1      44.153   6.990  11.336  0.00  0.00    +0.000 NA
ATOM     29  C   UNL     1      43.183   6.143  11.231  0.00  0.00    +0.000 A 
ATOM     30  N   UNL     1      43.061   5.000  11.977  0.00  0.00    +0.000 N 
ATOM     31  C   UNL     1      43.976   4.631  12.934  0.00  0.00    +0.000 A 
ATOM     32  O   UNL     1      43.789   3.659  13.657  0.00  0.00    +0.000 OA
ATOM     33  C   UNL     1      45.134   5.499  13.022  0.00  0.00    +0.000 A 
ATOM     34  H   UNL     1      42.247   4.410  11.888  0.00  0.00    +0.000 HD
ENDBRANCH  21  24
ENDBRANCH  19  20
ENDBRANCH   4  19
TORSDOF 6
ENDMDL
MODEL 2
REMARK VINA RESULT:    -7.329      2.858      4.358
REMARK INTER + INTRA:         -10.778
REMARK INTER:                  -9.924
REMARK INTRA:                  -0.854
REMARK UNBOUND:                -0.878
REMARK  Name = 
REMARK  6 active torsions:
REMARK  status: ('A' for Active; 'I' for Inactive)
REMARK    1  A    between atoms: C_2  and  C_3
REMARK    2  A    between atoms: N_10  and  C_11
REMARK    3  A    between atoms: C_11  and  C_12
REMARK    4  A    between atoms: C_15  and  C_16
REMARK    5  A    between atoms: C_16  and  N_17
REMARK    6  A    between atoms: C_18  and  C_20
REMARK                            x       y       z     vdW  Elec       q    Type
REMARK                         _______ _______ _______ _____ _____    ______ ____
ROOT
ATOM      1  C   UNL     1      50.273   6.632  16.197  0.00  0.00    +0.000 A 
ATOM      2  C   UNL     1      50.913   7.407  15.222  0.00  0.00    +0.000 A 
ATOM      3  C   UNL     1      50.248   7.760  14.043  0.00  0.00    +0.000 A 
ATOM      4  C   UNL     1      48.922   7.366  13.822  0.00  0.00    +0.000 A 
ATOM      5  C   UNL     1      48.289   6.573  14.787  0.00  0.00    +0.000 A 
ATOM      6  C   UNL     1      48.953   6.217  15.965  0.00  0.00    +0.000 A 
ENDROOT
BRANCH   1   7
ATOM      7  C   UNL     1      50.996   6.230  17.454  0.00  0.00    +0.000 C 
BRANCH   7  15
ATOM      8  C   UNL     1      52.156   1.969  17.743  0.00  0.00    +0.000 A 
ATOM      9  C   UNL     1      53.091   0.965  17.938  0.00  0.00    +0.000 A 
ATOM     10  C   UNL     1      54.088   1.465  18.805  0.00  0.00    +0.000 A 
ATOM     11  C   UNL     1      53.714   2.742  19.147  0.00  0.00    +0.000 A 
ATOM     12  N   UNL     1      52.550   3.081  18.466  0.00  0.00    +0.000 N 
ATOM     13  C   UNL     1      51.897   4.319  18.617  0.00  0.00    +0.000 C 
ATOM     14  O   UNL     1      51.859   4.845  19.719  0.00  0.00    +0.000 OA
ATOM     15  N   UNL     1      51.481   4.866  17.424  0.00  0.00    +0.000 N 
ATOM     16  H   UNL     1      51.840   4.512  16.546  0.00  0.00    +0.000 HD
BRANCH   8  18
ATOM     17  N   UNL     1      49.943   1.758  16.432  0.00  0.00    +0.000 NA
ATOM     18  C   UNL     1      50.932   1.853  17.023  0.00  0.00    +0.000 C 
ENDBRANCH   8  18
ENDBRANCH   7  15
ENDBRANCH   1   7
BRANCH   4  19
ATOM     19  C   UNL     1      48.194   7.773  12.567  0.00  0.00    +0.000 C 
BRANCH  19  20
ATOM     20  N   UNL     1      47.445   6.679  11.999  0.00  0.00    +0.000 N 
ATOM     21  C   UNL     1      46.158   6.870  11.563  0.00  0.00    +0.000 C 
ATOM     22  O   UNL     1      45.548   7.918  11.770  0.00  0.00    +0.000 OA
ATOM     23  H   UNL     1      47.975   5.884  11.655  0.00  0.00    +0.000 HD
BRANCH  21  24
ATOM     24  C   UNL     1      45.526   5.761  10.840  0.00  0.00    +0.000 A 
ATOM     25  C   UNL     1      45.791   5.573   9.489  0.00  0.00    +0.000 A 
ATOM     26  S   UNL     1      45.056   4.180   8.836  0.00  0.00    +0.000 S 
ATOM     27  C   UNL     1      44.417   3.743  10.351  0.00  0.00    +0.000 A 
ATOM     28  N   UNL     1      43.768   2.561  10.526  0.00  0.00    +0.000 NA
ATOM     29  C   UNL     1      43.355   2.352  11.732  0.00  0.00    +0.000 A 
ATOM     30  N   UNL     1      43.491   3.240  12.768  0.00  0.00    +0.000 N 
ATOM     31  C   UNL     1      44.093   4.467  12.625  0.00  0.00    +0.000 A 
ATOM     32  O   UNL     1      44.109   5.282  13.541  0.00  0.00    +0.000 OA
ATOM     33  C   UNL     1      44.661   4.708  11.314  0.00  0.00    +0.000 A 
ATOM     34  H   UNL     1      43.093   3.042  13.673  0.00  0.00    +0.000 HD
ENDBRANCH  21  24
ENDBRANCH  19  20
ENDBRANCH   4  19
TORSDOF 6
ENDMDL
MODEL 3
REMARK VINA RESULT:    -7.142      2.267      3.499
REMARK INTER + INTRA:         -10.525
REMARK INTER:                  -9.671
REMARK INTRA:                  -0.853
REMARK UNBOUND:                -0.878
REMARK  Name = 
REMARK  6 active torsions:
REMARK  status: ('A' for Active; 'I' for Inactive)
REMARK    1  A    between atoms: C_2  and  C_3
REMARK    2  A    between atoms: N_10  and  C_11
REMARK    3  A    between atoms: C_11  and  C_12
REMARK    4  A    between atoms: C_15  and  C_16
REMARK    5  A    between atoms: C_16  and  N_17
REMARK    6  A    between atoms: C_18  and  C_20
REMARK                            x       y       z     vdW  Elec       q    Type
REMARK                         _______ _______ _______ _____ _____    ______ ____
ROOT
ATOM      1  C   UNL     1      49.635   5.147  17.604  0.00  0.00    +0.000 A 
ATOM      2  C   UNL     1      50.453   6.142  17.056  0.00  0.00    +0.000 A 
ATOM      3  C   UNL     1      50.037   6.870  15.936  0.00  0.00    +0.000 A 
ATOM      4  C   UNL     1      48.784   6.636  15.354  0.00  0.00    +0.000 A 
ATOM      5  C   UNL     1      47.975   5.626  15.889  0.00  0.00    +0.000 A 
ATOM      6  C   UNL     1      48.391   4.896  17.007  0.00  0.00    +0.000 A 
ENDROOT
BRANCH   1   7
ATOM      7  C   UNL     1      50.093   4.346  18.793  0.00  0.00    +0.000 C 
BRANCH   7  15
ATOM      8  C   UNL     1      53.963   2.503  17.694  0.00  0.00    +0.000 A 
ATOM      9  C   UNL     1      54.846   1.436  17.662  0.00  0.00    +0.000 A 
ATOM     10  C   UNL     1      54.085   0.246  17.632  0.00  0.00    +0.000 A 
ATOM     11  C   UNL     1      52.763   0.621  17.606  0.00  0.00    +0.000 A 
ATOM     12  N   UNL     1      52.672   2.005  17.688  0.00  0.00    +0.000 N 
ATOM     13  C   UNL     1      51.451   2.705  17.663  0.00  0.00    +0.000 C 
ATOM     14  O   UNL     1      50.549   2.307  16.942  0.00  0.00    +0.000 OA
ATOM     15  N   UNL     1      51.381   3.715  18.596  0.00  0.00    +0.000 N 
ATOM     16  H   UNL     1      52.049   3.757  19.355  0.00  0.00    +0.000 HD
BRANCH   8  18
ATOM     17  N   UNL     1      54.579   5.006  17.566  0.00  0.00    +0.000 NA
ATOM     18  C   UNL     1      54.307   3.884  17.623  0.00  0.00    +0.000 C 
ENDBRANCH   8  18
ENDBRANCH   7  15
ENDBRANCH   1   7
BRANCH   4  19
ATOM     19  C   UNL     1      48.321   7.441  14.167  0.00  0.00    +0.000 C 
BRANCH  19  20
ATOM     20  N   UNL     1      46.995   7.064  13.744  0.00  0.00    +0.000 N 
ATOM     21  C   UNL     1      46.728   6.832  12.417  0.00  0.00    +0.000 C 
ATOM     22  O   UNL     1      47.550   7.076  11.536  0.00  0.00    +0.000 OA
ATOM     23  H   UNL     1      46.373   6.684  14.452  0.00  0.00    +0.000 HD
BRANCH  21  24
ATOM     24  C   UNL     1      45.408   6.283  12.088  0.00  0.00    +0.000 A 
ATOM     25  C   UNL     1      44.443   7.099  11.510  0.00  0.00    +0.000 A 
ATOM     26  S   UNL     1      43.008   6.273  11.101  0.00  0.00    +0.000 S 
ATOM     27  C   UNL     1      43.654   4.786  11.616  0.00  0.00    +0.000 A 
ATOM     28  N   UNL     1      42.978   3.622  11.427  0.00  0.00    +0.000 NA
ATOM     29  C   UNL     1      43.597   2.570  11.849  0.00  0.00    +0.000 A 
ATOM     30  N   UNL     1      44.812   2.582  12.485  0.00  0.00    +0.000 N 
ATOM     31  C   UNL     1      45.507   3.739  12.743  0.00  0.00    +0.000 A 
ATOM     32  O   UNL     1      46.541   3.730  13.403  0.00  0.00    +0.000 OA
ATOM     33  C   UNL     1      44.900   4.938  12.202  0.00  0.00    +0.000 A 
ATOM     34  H   UNL     1      45.215   1.730  12.843  0.00  0.00    +0.000 HD
ENDBRANCH  21  24
ENDBRANCH  19  20
ENDBRANCH   4  19
TORSDOF 6
ENDMDL
MODEL 4
REMARK VINA RESULT:    -6.975      7.036      8.114
REMARK INTER + INTRA:         -10.299
REMARK INTER:                  -9.273
REMARK INTRA:                  -1.026
REMARK UNBOUND:                -0.878
REMARK  Name = 
REMARK  6 active torsions:
REMARK  status: ('A' for Active; 'I' for Inactive)
REMARK    1  A    between atoms: C_2  and  C_3
REMARK    2  A    between atoms: N_10  and  C_11
REMARK    3  A    between atoms: C_11  and  C_12
REMARK    4  A    between atoms: C_15  and  C_16
REMARK    5  A    between atoms: C_16  and  N_17
REMARK    6  A    between atoms: C_18  and  C_20
REMARK                            x       y       z     vdW  Elec       q    Type
REMARK                         _______ _______ _______ _____ _____    ______ ____
ROOT
ATOM      1  C   UNL     1      50.240   9.003  11.478  0.00  0.00    +0.000 A 
ATOM      2  C   UNL     1      49.409  10.087  11.786  0.00  0.00    +0.000 A 
ATOM      3  C   UNL     1      48.095   9.878  12.218  0.00  0.00    +0.000 A 
ATOM      4  C   UNL     1      47.590   8.580  12.374  0.00  0.00    +0.000 A 
ATOM      5  C   UNL     1      48.414   7.496  12.046  0.00  0.00    +0.000 A 
ATOM      6  C   UNL     1      49.727   7.704  11.612  0.00  0.00    +0.000 A 
ENDROOT
BRANCH   1   7
ATOM      7  C   UNL     1      51.645   9.228  10.989  0.00  0.00    +0.000 C 
BRANCH   7  15
ATOM      8  C   UNL     1      53.868   5.913   9.078  0.00  0.00    +0.000 A 
ATOM      9  C   UNL     1      54.004   4.922   8.119  0.00  0.00    +0.000 A 
ATOM     10  C   UNL     1      53.313   5.344   6.961  0.00  0.00    +0.000 A 
ATOM     11  C   UNL     1      52.810   6.594   7.231  0.00  0.00    +0.000 A 
ATOM     12  N   UNL     1      53.107   6.938   8.545  0.00  0.00    +0.000 N 
ATOM     13  C   UNL     1      52.747   8.170   9.123  0.00  0.00    +0.000 C 
ATOM     14  O   UNL     1      52.794   9.186   8.445  0.00  0.00    +0.000 OA
ATOM     15  N   UNL     1      52.241   8.048  10.398  0.00  0.00    +0.000 N 
ATOM     16  H   UNL     1      51.945   7.145  10.746  0.00  0.00    +0.000 HD
BRANCH   8  18
ATOM     17  N   UNL     1      55.011   5.957  11.391  0.00  0.00    +0.000 NA
ATOM     18  C   UNL     1      54.498   5.942  10.355  0.00  0.00    +0.000 C 
ENDBRANCH   8  18
ENDBRANCH   7  15
ENDBRANCH   1   7
BRANCH   4  19
ATOM     19  C   UNL     1      46.185   8.352  12.870  0.00  0.00    +0.000 C 
BRANCH  19  20
ATOM     20  N   UNL     1      45.764   6.985  12.689  0.00  0.00    +0.000 N 
ATOM     21  C   UNL     1      44.751   6.679  11.814  0.00  0.00    +0.000 C 
ATOM     22  O   UNL     1      44.073   7.550  11.273  0.00  0.00    +0.000 OA
ATOM     23  H   UNL     1      46.415   6.258  12.971  0.00  0.00    +0.000 HD
BRANCH  21  24
ATOM     24  C   UNL     1      44.500   5.257  11.554  0.00  0.00    +0.000 A 
ATOM     25  C   UNL     1      43.767   4.504  12.463  0.00  0.00    +0.000 A 
ATOM     26  S   UNL     1      43.485   2.902  11.951  0.00  0.00    +0.000 S 
ATOM     27  C   UNL     1      44.272   3.181  10.468  0.00  0.00    +0.000 A 
ATOM     28  N   UNL     1      44.282   2.238   9.489  0.00  0.00    +0.000 NA
ATOM     29  C   UNL     1      44.898   2.594   8.411  0.00  0.00    +0.000 A 
ATOM     30  N   UNL     1      45.544   3.791   8.241  0.00  0.00    +0.000 N 
ATOM     31  C   UNL     1      45.604   4.753   9.221  0.00  0.00    +0.000 A 
ATOM     32  O   UNL     1      46.275   5.770   9.079  0.00  0.00    +0.000 OA
ATOM     33  C   UNL     1      44.845   4.441  10.415  0.00  0.00    +0.000 A 
ATOM     34  H   UNL     1      46.058   3.984   7.395  0.00  0.00    +0.000 HD
ENDBRANCH  21  24
ENDBRANCH  19  20
ENDBRANCH   4  19
TORSDOF 6
ENDMDL
MODEL 5
REMARK VINA RESULT:    -6.588      7.696      9.005
REMARK INTER + INTRA:          -9.777
REMARK INTER:                  -8.890
REMARK INTRA:                  -0.887
REMARK UNBOUND:                -0.878
REMARK  Name = 
REMARK  6 active torsions:
REMARK  status: ('A' for Active; 'I' for Inactive)
REMARK    1  A    between atoms: C_2  and  C_3
REMARK    2  A    between atoms: N_10  and  C_11
REMARK    3  A    between atoms: C_11  and  C_12
REMARK    4  A    between atoms: C_15  and  C_16
REMARK    5  A    between atoms: C_16  and  N_17
REMARK    6  A    between atoms: C_18  and  C_20
REMARK                            x       y       z     vdW  Elec       q    Type
REMARK                         _______ _______ _______ _____ _____    ______ ____
ROOT
ATOM      1  C   UNL     1      50.702   8.834  11.420  0.00  0.00    +0.000 A 
ATOM      2  C   UNL     1      49.878   9.965  11.464  0.00  0.00    +0.000 A 
ATOM      3  C   UNL     1      48.514   9.842  11.754  0.00  0.00    +0.000 A 
ATOM      4  C   UNL     1      47.950   8.589  12.029  0.00  0.00    +0.000 A 
ATOM      5  C   UNL     1      48.771   7.455  11.963  0.00  0.00    +0.000 A 
ATOM      6  C   UNL     1      50.133   7.577  11.671  0.00  0.00    +0.000 A 
ENDROOT
BRANCH   1   7
ATOM      7  C   UNL     1      52.164   8.964  11.082  0.00  0.00    +0.000 C 
BRANCH   7  15
ATOM      8  C   UNL     1      53.685   7.380   7.241  0.00  0.00    +0.000 A 
ATOM      9  C   UNL     1      53.702   7.334   5.856  0.00  0.00    +0.000 A 
ATOM     10  C   UNL     1      53.352   8.616   5.377  0.00  0.00    +0.000 A 
ATOM     11  C   UNL     1      53.171   9.417   6.479  0.00  0.00    +0.000 A 
ATOM     12  N   UNL     1      53.329   8.658   7.633  0.00  0.00    +0.000 N 
ATOM     13  C   UNL     1      53.228   9.193   8.931  0.00  0.00    +0.000 C 
ATOM     14  O   UNL     1      53.660  10.314   9.152  0.00  0.00    +0.000 OA
ATOM     15  N   UNL     1      52.505   8.399   9.794  0.00  0.00    +0.000 N 
ATOM     16  H   UNL     1      51.922   7.654   9.435  0.00  0.00    +0.000 HD
BRANCH   8  18
ATOM     17  N   UNL     1      54.408   5.487   8.840  0.00  0.00    +0.000 NA
ATOM     18  C   UNL     1      54.080   6.334   8.124  0.00  0.00    +0.000 C 
ENDBRANCH   8  18
ENDBRANCH   7  15
ENDBRANCH   1   7
BRANCH   4  19
ATOM     19  C   UNL     1      46.489   8.458  12.372  0.00  0.00    +0.000 C 
BRANCH  19  20
ATOM     20  N   UNL     1      46.048   7.085  12.341  0.00  0.00    +0.000 N 
ATOM     21  C   UNL     1      44.877   6.745  11.711  0.00  0.00    +0.000 C 
ATOM     22  O   UNL     1      44.096   7.594  11.286  0.00  0.00    +0.000 OA
ATOM     23  H   UNL     1      46.749   6.370  12.513  0.00  0.00    +0.000 HD
BRANCH  21  24
ATOM     24  C   UNL     1      44.587   5.314  11.569  0.00  0.00    +0.000 A 
ATOM     25  C   UNL     1      43.922   4.637  12.584  0.00  0.00    +0.000 A 
ATOM     26  S   UNL     1      43.577   3.010  12.207  0.00  0.00    +0.000 S 
ATOM     27  C   UNL     1      44.242   3.175  10.650  0.00  0.00    +0.000 A 
ATOM     28  N   UNL     1      44.158   2.168   9.740  0.00  0.00    +0.000 NA
ATOM     29  C   UNL     1      44.687   2.439   8.593  0.00  0.00    +0.000 A 
ATOM     30  N   UNL     1      45.333   3.610   8.290  0.00  0.00    +0.000 N 
ATOM     31  C   UNL     1      45.487   4.634   9.194  0.00  0.00    +0.000 A 
ATOM     32  O   UNL     1      46.157   5.626   8.929  0.00  0.00    +0.000 OA
ATOM     33  C   UNL     1      44.825   4.417  10.464  0.00  0.00    +0.000 A 
ATOM     34  H   UNL     1      45.778   3.737   7.393  0.00  0.00    +0.000 HD
ENDBRANCH  21  24
ENDBRANCH  19  20
ENDBRANCH   4  19
TORSDOF 6
ENDMDL
MODEL 6
REMARK VINA RESULT:    -6.369      6.858     10.617
REMARK INTER + INTRA:          -9.481
REMARK INTER:                  -8.452
REMARK INTRA:                  -1.029
REMARK UNBOUND:                -0.878
REMARK  Name = 
REMARK  6 active torsions:
REMARK  status: ('A' for Active; 'I' for Inactive)
REMARK    1  A    between atoms: C_2  and  C_3
REMARK    2  A    between atoms: N_10  and  C_11
REMARK    3  A    between atoms: C_11  and  C_12
REMARK    4  A    between atoms: C_15  and  C_16
REMARK    5  A    between atoms: C_16  and  N_17
REMARK    6  A    between atoms: C_18  and  C_20
REMARK                            x       y       z     vdW  Elec       q    Type
REMARK                         _______ _______ _______ _____ _____    ______ ____
ROOT
ATOM      1  C   UNL     1      47.766   8.464  12.800  0.00  0.00    +0.000 A 
ATOM      2  C   UNL     1      48.740   7.530  13.173  0.00  0.00    +0.000 A 
ATOM      3  C   UNL     1      50.057   7.650  12.714  0.00  0.00    +0.000 A 
ATOM      4  C   UNL     1      50.433   8.719  11.890  0.00  0.00    +0.000 A 
ATOM      5  C   UNL     1      49.454   9.641  11.499  0.00  0.00    +0.000 A 
ATOM      6  C   UNL     1      48.138   9.521  11.956  0.00  0.00    +0.000 A 
ENDROOT
BRANCH   1   7
ATOM      7  C   UNL     1      46.345   8.321  13.273  0.00  0.00    +0.000 C 
BRANCH   7  15
ATOM      8  C   UNL     1      45.137   4.108  12.653  0.00  0.00    +0.000 A 
ATOM      9  C   UNL     1      44.184   3.128  12.429  0.00  0.00    +0.000 A 
ATOM     10  C   UNL     1      43.132   3.710  11.687  0.00  0.00    +0.000 A 
ATOM     11  C   UNL     1      43.490   5.015  11.445  0.00  0.00    +0.000 A 
ATOM     12  N   UNL     1      44.701   5.286  12.072  0.00  0.00    +0.000 N 
ATOM     13  C   UNL     1      45.350   6.533  11.996  0.00  0.00    +0.000 C 
ATOM     14  O   UNL     1      45.314   7.164  10.951  0.00  0.00    +0.000 OA
ATOM     15  N   UNL     1      45.854   6.960  13.205  0.00  0.00    +0.000 N 
ATOM     16  H   UNL     1      45.555   6.522  14.067  0.00  0.00    +0.000 HD
BRANCH   8  18
ATOM     17  N   UNL     1      47.439   3.765  13.768  0.00  0.00    +0.000 NA
ATOM     18  C   UNL     1      46.408   3.923  13.270  0.00  0.00    +0.000 C 
ENDBRANCH   8  18
ENDBRANCH   7  15
ENDBRANCH   1   7
BRANCH   4  19
ATOM     19  C   UNL     1      51.857   8.868  11.421  0.00  0.00    +0.000 C 
BRANCH  19  20
ATOM     20  N   UNL     1      52.028   8.415  10.062  0.00  0.00    +0.000 N 
ATOM     21  C   UNL     1      53.114   8.816   9.326  0.00  0.00    +0.000 C 
ATOM     22  O   UNL     1      53.893   9.678   9.731  0.00  0.00    +0.000 OA
ATOM     23  H   UNL     1      51.517   7.582   9.784  0.00  0.00    +0.000 HD
BRANCH  21  24
ATOM     24  C   UNL     1      53.310   8.177   8.020  0.00  0.00    +0.000 A 
ATOM     25  C   UNL     1      53.339   8.951   6.867  0.00  0.00    +0.000 A 
ATOM     26  S   UNL     1      53.677   8.057   5.454  0.00  0.00    +0.000 S 
ATOM     27  C   UNL     1      53.866   6.620   6.345  0.00  0.00    +0.000 A 
ATOM     28  N   UNL     1      54.290   5.473   5.749  0.00  0.00    +0.000 NA
ATOM     29  C   UNL     1      54.407   4.467   6.550  0.00  0.00    +0.000 A 
ATOM     30  N   UNL     1      54.095   4.492   7.885  0.00  0.00    +0.000 N 
ATOM     31  C   UNL     1      53.615   5.613   8.518  0.00  0.00    +0.000 A 
ATOM     32  O   UNL     1      53.247   5.579   9.688  0.00  0.00    +0.000 OA
ATOM     33  C   UNL     1      53.557   6.796   7.683  0.00  0.00    +0.000 A 
ATOM     34  H   UNL     1      54.152   3.655   8.444  0.00  0.00    +0.000 HD
ENDBRANCH  21  24
ENDBRANCH  19  20
ENDBRANCH   4  19
TORSDOF 6
ENDMDL
MODEL 7
REMARK VINA RESULT:    -6.141      7.678     11.137
REMARK INTER + INTRA:          -9.173
REMARK INTER:                  -8.350
REMARK INTRA:                  -0.823
REMARK UNBOUND:                -0.878
REMARK  Name = 
REMARK  6 active torsions:
REMARK  status: ('A' for Active; 'I' for Inactive)
REMARK    1  A    between atoms: C_2  and  C_3
REMARK    2  A    between atoms: N_10  and  C_11
REMARK    3  A    between atoms: C_11  and  C_12
REMARK    4  A    between atoms: C_15  and  C_16
REMARK    5  A    between atoms: C_16  and  N_17
REMARK    6  A    between atoms: C_18  and  C_20
REMARK                            x       y       z     vdW  Elec       q    Type
REMARK                         _______ _______ _______ _____ _____    ______ ____
ROOT
ATOM      1  C   UNL     1      46.994   8.255  11.834  0.00  0.00    +0.000 A 
ATOM      2  C   UNL     1      48.031   7.328  11.672  0.00  0.00    +0.000 A 
ATOM      3  C   UNL     1      49.361   7.754  11.587  0.00  0.00    +0.000 A 
ATOM      4  C   UNL     1      49.686   9.113  11.685  0.00  0.00    +0.000 A 
ATOM      5  C   UNL     1      48.647  10.043  11.825  0.00  0.00    +0.000 A 
ATOM      6  C   UNL     1      47.317   9.618  11.908  0.00  0.00    +0.000 A 
ENDROOT
BRANCH   1   7
ATOM      7  C   UNL     1      45.561   7.800  11.900  0.00  0.00    +0.000 C 
BRANCH   7  15
ATOM      8  C   UNL     1      44.603   3.858  10.131  0.00  0.00    +0.000 A 
ATOM      9  C   UNL     1      44.205   2.534  10.232  0.00  0.00    +0.000 A 
ATOM     10  C   UNL     1      43.346   2.426  11.349  0.00  0.00    +0.000 A 
ATOM     11  C   UNL     1      43.213   3.689  11.872  0.00  0.00    +0.000 A 
ATOM     12  N   UNL     1      44.015   4.573  11.160  0.00  0.00    +0.000 N 
ATOM     13  C   UNL     1      44.084   5.952  11.436  0.00  0.00    +0.000 C 
ATOM     14  O   UNL     1      43.071   6.546  11.773  0.00  0.00    +0.000 OA
ATOM     15  N   UNL     1      45.368   6.449  11.417  0.00  0.00    +0.000 N 
ATOM     16  H   UNL     1      46.160   5.819  11.446  0.00  0.00    +0.000 HD
BRANCH   8  18
ATOM     17  N   UNL     1      46.023   4.879   8.233  0.00  0.00    +0.000 NA
ATOM     18  C   UNL     1      45.385   4.426   9.084  0.00  0.00    +0.000 C 
ENDBRANCH   8  18
ENDBRANCH   7  15
ENDBRANCH   1   7
BRANCH   4  19
ATOM     19  C   UNL     1      51.120   9.571  11.626  0.00  0.00    +0.000 C 
BRANCH  19  20
ATOM     20  N   UNL     1      52.010   8.509  11.224  0.00  0.00    +0.000 N 
ATOM     21  C   UNL     1      52.668   8.571  10.022  0.00  0.00    +0.000 C 
ATOM     22  O   UNL     1      52.420   9.439   9.187  0.00  0.00    +0.000 OA
ATOM     23  H   UNL     1      52.363   7.899  11.956  0.00  0.00    +0.000 HD
BRANCH  21  24
ATOM     24  C   UNL     1      53.685   7.545   9.763  0.00  0.00    +0.000 A 
ATOM     25  C   UNL     1      54.749   7.386  10.643  0.00  0.00    +0.000 A 
ATOM     26  S   UNL     1      55.775   6.083  10.244  0.00  0.00    +0.000 S 
ATOM     27  C   UNL     1      54.793   5.645   8.925  0.00  0.00    +0.000 A 
ATOM     28  N   UNL     1      55.039   4.515   8.210  0.00  0.00    +0.000 NA
ATOM     29  C   UNL     1      54.202   4.297   7.251  0.00  0.00    +0.000 A 
ATOM     30  N   UNL     1      53.168   5.132   6.913  0.00  0.00    +0.000 N 
ATOM     31  C   UNL     1      52.914   6.310   7.574  0.00  0.00    +0.000 A 
ATOM     32  O   UNL     1      52.047   7.086   7.186  0.00  0.00    +0.000 OA
ATOM     33  C   UNL     1      53.766   6.551   8.721  0.00  0.00    +0.000 A 
ATOM     34  H   UNL     1      52.586   4.934   6.114  0.00  0.00    +0.000 HD
ENDBRANCH  21  24
ENDBRANCH  19  20
ENDBRANCH   4  19
TORSDOF 6
ENDMDL
MODEL 8
REMARK VINA RESULT:    -5.939      7.231      9.896
REMARK INTER + INTRA:          -8.901
REMARK INTER:                  -7.820
REMARK INTRA:                  -1.080
REMARK UNBOUND:                -0.878
REMARK  Name = 
REMARK  6 active torsions:
REMARK  status: ('A' for Active; 'I' for Inactive)
REMARK    1  A    between atoms: C_2  and  C_3
REMARK    2  A    between atoms: N_10  and  C_11
REMARK    3  A    between atoms: C_11  and  C_12
REMARK    4  A    between atoms: C_15  and  C_16
REMARK    5  A    between atoms: C_16  and  N_17
REMARK    6  A    between atoms: C_18  and  C_20
REMARK                            x       y       z     vdW  Elec       q    Type
REMARK                         _______ _______ _______ _____ _____    ______ ____
ROOT
ATOM      1  C   UNL     1      52.586   8.573  10.043  0.00  0.00    +0.000 A 
ATOM      2  C   UNL     1      52.051   9.832  10.340  0.00  0.00    +0.000 A 
ATOM      3  C   UNL     1      50.816   9.948  10.987  0.00  0.00    +0.000 A 
ATOM      4  C   UNL     1      50.099   8.807  11.372  0.00  0.00    +0.000 A 
ATOM      5  C   UNL     1      50.623   7.548  11.055  0.00  0.00    +0.000 A 
ATOM      6  C   UNL     1      51.857   7.431  10.407  0.00  0.00    +0.000 A 
ENDROOT
BRANCH   1   7
ATOM      7  C   UNL     1      53.902   8.449   9.325  0.00  0.00    +0.000 C 
BRANCH   7  15
ATOM      8  C   UNL     1      53.173   8.906   4.984  0.00  0.00    +0.000 A 
ATOM      9  C   UNL     1      53.549   8.764   3.657  0.00  0.00    +0.000 A 
ATOM     10  C   UNL     1      54.386   7.631   3.564  0.00  0.00    +0.000 A 
ATOM     11  C   UNL     1      54.466   7.090   4.825  0.00  0.00    +0.000 A 
ATOM     12  N   UNL     1      53.760   7.889   5.717  0.00  0.00    +0.000 N 
ATOM     13  C   UNL     1      53.631   7.593   7.087  0.00  0.00    +0.000 C 
ATOM     14  O   UNL     1      53.506   6.430   7.438  0.00  0.00    +0.000 OA
ATOM     15  N   UNL     1      53.802   8.690   7.901  0.00  0.00    +0.000 N 
ATOM     16  H   UNL     1      54.216   9.538   7.535  0.00  0.00    +0.000 HD
BRANCH   8  18
ATOM     17  N   UNL     1      51.500  10.632   5.923  0.00  0.00    +0.000 NA
ATOM     18  C   UNL     1      52.247   9.856   5.501  0.00  0.00    +0.000 C 
ENDBRANCH   8  18
ENDBRANCH   7  15
ENDBRANCH   1   7
BRANCH   4  19
ATOM     19  C   UNL     1      48.784   8.930  12.096  0.00  0.00    +0.000 C 
BRANCH  19  20
ATOM     20  N   UNL     1      47.955   7.764  11.911  0.00  0.00    +0.000 N 
ATOM     21  C   UNL     1      47.487   7.064  12.995  0.00  0.00    +0.000 C 
ATOM     22  O   UNL     1      47.868   7.304  14.139  0.00  0.00    +0.000 OA
ATOM     23  H   UNL     1      47.488   7.666  11.014  0.00  0.00    +0.000 HD
BRANCH  21  24
ATOM     24  C   UNL     1      46.510   6.001  12.733  0.00  0.00    +0.000 A 
ATOM     25  C   UNL     1      46.782   4.697  13.128  0.00  0.00    +0.000 A 
ATOM     26  S   UNL     1      45.496   3.615  12.837  0.00  0.00    +0.000 S 
ATOM     27  C   UNL     1      44.509   4.865  12.239  0.00  0.00    +0.000 A 
ATOM     28  N   UNL     1      43.206   4.640  11.921  0.00  0.00    +0.000 NA
ATOM     29  C   UNL     1      42.573   5.684  11.500  0.00  0.00    +0.000 A 
ATOM     30  N   UNL     1      43.137   6.921  11.324  0.00  0.00    +0.000 N 
ATOM     31  C   UNL     1      44.461   7.182  11.583  0.00  0.00    +0.000 A 
ATOM     32  O   UNL     1      44.962   8.269  11.321  0.00  0.00    +0.000 OA
ATOM     33  C   UNL     1      45.192   6.066  12.152  0.00  0.00    +0.000 A 
ATOM     34  H   UNL     1      42.601   7.682  10.934  0.00  0.00    +0.000 HD
ENDBRANCH  21  24
ENDBRANCH  19  20
ENDBRANCH   4  19
TORSDOF 6
ENDMDL
MODEL 9
REMARK VINA RESULT:    -5.834      6.231     10.800
REMARK INTER + INTRA:          -8.759
REMARK INTER:                  -7.874
REMARK INTRA:                  -0.884
REMARK UNBOUND:                -0.878
REMARK  Name = 
REMARK  6 active torsions:
REMARK  status: ('A' for Active; 'I' for Inactive)
REMARK    1  A    between atoms: C_2  and  C_3
REMARK    2  A    between atoms: N_10  and  C_11
REMARK    3  A    between atoms: C_11  and  C_12
REMARK    4  A    between atoms: C_15  and  C_16
REMARK    5  A    between atoms: C_16  and  N_17
REMARK    6  A    between atoms: C_18  and  C_20
REMARK                            x       y       z     vdW  Elec       q    Type
REMARK                         _______ _______ _______ _____ _____    ______ ____
ROOT
ATOM      1  C   UNL     1      46.627   9.360  12.354  0.00  0.00    +0.000 A 
ATOM      2  C   UNL     1      47.710   8.474  12.334  0.00  0.00    +0.000 A 
ATOM      3  C   UNL     1      48.951   8.876  11.829  0.00  0.00    +0.000 A 
ATOM      4  C   UNL     1      49.143  10.181  11.356  0.00  0.00    +0.000 A 
ATOM      5  C   UNL     1      48.054  11.061  11.356  0.00  0.00    +0.000 A 
ATOM      6  C   UNL     1      46.812  10.659  11.858  0.00  0.00    +0.000 A 
ENDROOT
BRANCH   1   7
ATOM      7  C   UNL     1      45.284   8.920  12.873  0.00  0.00    +0.000 C 
BRANCH   7  15
ATOM      8  C   UNL     1      45.123   4.503  12.658  0.00  0.00    +0.000 A 
ATOM      9  C   UNL     1      44.430   3.305  12.581  0.00  0.00    +0.000 A 
ATOM     10  C   UNL     1      43.224   3.546  11.886  0.00  0.00    +0.000 A 
ATOM     11  C   UNL     1      43.233   4.872  11.524  0.00  0.00    +0.000 A 
ATOM     12  N   UNL     1      44.374   5.483  12.030  0.00  0.00    +0.000 N 
ATOM     13  C   UNL     1      44.689   6.838  11.812  0.00  0.00    +0.000 C 
ATOM     14  O   UNL     1      44.435   7.345  10.731  0.00  0.00    +0.000 OA
ATOM     15  N   UNL     1      45.143   7.481  12.943  0.00  0.00    +0.000 N 
ATOM     16  H   UNL     1      45.014   7.062  13.855  0.00  0.00    +0.000 HD
BRANCH   8  18
ATOM     17  N   UNL     1      47.499   4.828  13.611  0.00  0.00    +0.000 NA
ATOM     18  C   UNL     1      46.435   4.686  13.182  0.00  0.00    +0.000 C 
ENDBRANCH   8  18
ENDBRANCH   7  15
ENDBRANCH   1   7
BRANCH   4  19
ATOM     19  C   UNL     1      50.488  10.626  10.842  0.00  0.00    +0.000 C 
BRANCH  19  20
ATOM     20  N   UNL     1      51.546   9.737  11.256  0.00  0.00    +0.000 N 
ATOM     21  C   UNL     1      52.588   9.454  10.409  0.00  0.00    +0.000 C 
ATOM     22  O   UNL     1      52.589   9.816   9.234  0.00  0.00    +0.000 OA
ATOM     23  H   UNL     1      51.658   9.585  12.254  0.00  0.00    +0.000 HD
BRANCH  21  24
ATOM     24  C   UNL     1      53.709   8.686  10.963  0.00  0.00    +0.000 A 
ATOM     25  C   UNL     1      54.591   9.289  11.851  0.00  0.00    +0.000 A 
ATOM     26  S   UNL     1      55.769   8.223  12.472  0.00  0.00    +0.000 S 
ATOM     27  C   UNL     1      55.097   6.906  11.630  0.00  0.00    +0.000 A 
ATOM     28  N   UNL     1      55.560   5.642  11.818  0.00  0.00    +0.000 NA
ATOM     29  C   UNL     1      54.944   4.740  11.129  0.00  0.00    +0.000 A 
ATOM     30  N   UNL     1      53.936   4.994  10.235  0.00  0.00    +0.000 N 
ATOM     31  C   UNL     1      53.471   6.261   9.975  0.00  0.00    +0.000 A 
ATOM     32  O   UNL     1      52.640   6.470   9.097  0.00  0.00    +0.000 OA
ATOM     33  C   UNL     1      54.064   7.298  10.795  0.00  0.00    +0.000 A 
ATOM     34  H   UNL     1      53.535   4.250   9.684  0.00  0.00    +0.000 HD
ENDBRANCH  21  24
ENDBRANCH  19  20
ENDBRANCH   4  19
TORSDOF 6
ENDMDL
