MODEL 1
REMARK VINA RESULT:    -7.066      0.000      0.000
REMARK INTER + INTRA:         -11.684
REMARK INTER:                 -10.371
REMARK INTRA:                  -1.313
REMARK UNBOUND:                -1.313
REMARK  Name = 
REMARK  8 active torsions:
REMARK  status: ('A' for Active; 'I' for Inactive)
REMARK    1  A    between atoms: C_2  and  C_3
REMARK    2  A    between atoms: C_3  and  N_4
REMARK    3  A    between atoms: C_5  and  C_7
REMARK    4  A    between atoms: N_17  and  C_18
REMARK    5  A    between atoms: C_18  and  C_19
REMARK    6  A    between atoms: C_22  and  C_23
REMARK    7  A    between atoms: C_23  and  N_24
REMARK    8  A    between atoms: C_25  and  C_27
REMARK                            x       y       z     vdW  Elec       q    Type
REMARK                         _______ _______ _______ _____ _____    ______ ____
ROOT
ATOM      1  O   UNL     1      48.754   6.154  18.327  0.00  0.00    +0.000 OA
ATOM      2  C   UNL     1      48.937   5.829  17.157  0.00  0.00    +0.000 C 
ATOM      3  N   UNL     1      49.206   4.538  16.758  0.00  0.00    +0.000 N 
ATOM      4  H   UNL     1      49.542   4.389  15.811  0.00  0.00    +0.000 HD
ENDROOT
BRANCH   2   5
ATOM      5  C   UNL     1      48.973   6.855  16.025  0.00  0.00    +0.000 C 
BRANCH   5   6
ATOM      6  N   UNL     1      47.845   6.679  15.136  0.00  0.00    +0.000 N 
ATOM      7  C   UNL     1      47.995   6.475  13.789  0.00  0.00    +0.000 C 
ATOM      8  O   UNL     1      49.113   6.465  13.275  0.00  0.00    +0.000 OA
ATOM      9  H   UNL     1      46.921   6.812  15.539  0.00  0.00    +0.000 HD
BRANCH   7  10
ATOM     10  C   UNL     1      46.775   6.268  12.992  0.00  0.00    +0.000 A 
ATOM     11  C   UNL     1      46.180   7.359  12.369  0.00  0.00    +0.000 A 
ATOM     12  S   UNL     1      44.780   6.969  11.481  0.00  0.00    +0.000 S 
ATOM     13  C   UNL     1      44.909   5.326  11.892  0.00  0.00    +0.000 A 
ATOM     14  N   UNL     1      43.989   4.427  11.451  0.00  0.00    +0.000 NA
ATOM     15  C   UNL     1      44.199   3.213  11.836  0.00  0.00    +0.000 A 
ATOM     16  N   UNL     1      45.254   2.816  12.615  0.00  0.00    +0.000 N 
ATOM     17  C   UNL     1      46.210   3.687  13.077  0.00  0.00    +0.000 A 
ATOM     18  O   UNL     1      47.145   3.288  13.765  0.00  0.00    +0.000 OA
ATOM     19  C   UNL     1      46.014   5.072  12.688  0.00  0.00    +0.000 A 
ATOM     20  H   UNL     1      45.366   1.848  12.878  0.00  0.00    +0.000 HD
ENDBRANCH   7  10
ENDBRANCH   5   6
ENDBRANCH   2   5
BRANCH   3  21
ATOM     21  C   UNL     1      49.276   3.438  17.693  0.00  0.00    +0.000 C 
BRANCH  21  22
ATOM     22  C   UNL     1      50.674   2.874  17.775  0.00  0.00    +0.000 A 
ATOM     23  C   UNL     1      50.943   1.553  17.394  0.00  0.00    +0.000 A 
ATOM     24  C   UNL     1      52.236   1.029  17.503  0.00  0.00    +0.000 A 
ATOM     25  C   UNL     1      53.285   1.810  18.010  0.00  0.00    +0.000 A 
ATOM     26  C   UNL     1      53.019   3.136  18.371  0.00  0.00    +0.000 A 
ATOM     27  C   UNL     1      51.726   3.660  18.264  0.00  0.00    +0.000 A 
BRANCH  25  28
ATOM     28  C   UNL     1      54.661   1.225  18.199  0.00  0.00    +0.000 C 
BRANCH  28  29
ATOM     29  N   UNL     1      54.657   0.009  18.981  0.00  0.00    +0.000 N 
ATOM     30  C   UNL     1      55.058  -1.173  18.395  0.00  0.00    +0.000 C 
ATOM     31  O   UNL     1      55.382  -1.233  17.212  0.00  0.00    +0.000 OA
ATOM     32  H   UNL     1      54.538   0.079  19.982  0.00  0.00    +0.000 HD
BRANCH  30  33
ATOM     33  C   UNL     1      55.133  -2.374  19.332  0.00  0.00    +0.000 C 
ATOM     34  C   UNL     1      54.094  -3.428  18.995  0.00  0.00    +0.000 C 
ATOM     35  C   UNL     1      52.864  -2.911  19.710  0.00  0.00    +0.000 C 
ATOM     36  O   UNL     1      53.334  -2.241  20.890  0.00  0.00    +0.000 OA
ATOM     37  C   UNL     1      54.748  -2.023  20.756  0.00  0.00    +0.000 C 
ENDBRANCH  30  33
ENDBRANCH  28  29
ENDBRANCH  25  28
ENDBRANCH  21  22
ENDBRANCH   3  21
TORSDOF 8
ENDMDL
MODEL 2
REMARK VINA RESULT:    -6.913      4.397      7.514
REMARK INTER + INTRA:         -11.459
REMARK INTER:                  -9.832
REMARK INTRA:                  -1.627
REMARK UNBOUND:                -1.313
REMARK  Name = 
REMARK  8 active torsions:
REMARK  status: ('A' for Active; 'I' for Inactive)
REMARK    1  A    between atoms: C_2  and  C_3
REMARK    2  A    between atoms: C_3  and  N_4
REMARK    3  A    between atoms: C_5  and  C_7
REMARK    4  A    between atoms: N_17  and  C_18
REMARK    5  A    between atoms: C_18  and  C_19
REMARK    6  A    between atoms: C_22  and  C_23
REMARK    7  A    between atoms: C_23  and  N_24
REMARK    8  A    between atoms: C_25  and  C_27
REMARK                            x       y       z     vdW  Elec       q    Type
REMARK                         _______ _______ _______ _____ _____    ______ ____
ROOT
ATOM      1  O   UNL     1      49.620   2.578  16.594  0.00  0.00    +0.000 OA
ATOM      2  C   UNL     1      48.861   3.436  17.036  0.00  0.00    +0.000 C 
ATOM      3  N   UNL     1      49.277   4.501  17.806  0.00  0.00    +0.000 N 
ATOM      4  H   UNL     1      48.572   5.042  18.296  0.00  0.00    +0.000 HD
ENDROOT
BRANCH   2   5
ATOM      5  C   UNL     1      47.346   3.354  16.850  0.00  0.00    +0.000 C 
BRANCH   5   6
ATOM      6  N   UNL     1      46.891   4.347  15.901  0.00  0.00    +0.000 N 
ATOM      7  C   UNL     1      46.861   4.115  14.551  0.00  0.00    +0.000 C 
ATOM      8  O   UNL     1      47.257   3.046  14.088  0.00  0.00    +0.000 OA
ATOM      9  H   UNL     1      46.684   5.271  16.272  0.00  0.00    +0.000 HD
BRANCH   7  10
ATOM     10  C   UNL     1      46.340   5.187  13.687  0.00  0.00    +0.000 A 
ATOM     11  C   UNL     1      47.093   6.341  13.510  0.00  0.00    +0.000 A 
ATOM     12  S   UNL     1      46.366   7.491  12.485  0.00  0.00    +0.000 S 
ATOM     13  C   UNL     1      45.013   6.495  12.235  0.00  0.00    +0.000 A 
ATOM     14  N   UNL     1      43.986   6.907  11.444  0.00  0.00    +0.000 NA
ATOM     15  C   UNL     1      43.018   6.060  11.340  0.00  0.00    +0.000 A 
ATOM     16  N   UNL     1      42.989   4.832  11.948  0.00  0.00    +0.000 N 
ATOM     17  C   UNL     1      44.007   4.371  12.748  0.00  0.00    +0.000 A 
ATOM     18  O   UNL     1      43.947   3.261  13.265  0.00  0.00    +0.000 OA
ATOM     19  C   UNL     1      45.117   5.292  12.915  0.00  0.00    +0.000 A 
ATOM     20  H   UNL     1      42.204   4.211  11.821  0.00  0.00    +0.000 HD
ENDBRANCH   7  10
ENDBRANCH   5   6
ENDBRANCH   2   5
BRANCH   3  21
ATOM     21  C   UNL     1      50.667   4.713  18.144  0.00  0.00    +0.000 C 
BRANCH  21  22
ATOM     22  C   UNL     1      51.288   5.778  17.273  0.00  0.00    +0.000 A 
ATOM     23  C   UNL     1      50.522   6.838  16.770  0.00  0.00    +0.000 A 
ATOM     24  C   UNL     1      51.100   7.803  15.938  0.00  0.00    +0.000 A 
ATOM     25  C   UNL     1      52.452   7.721  15.578  0.00  0.00    +0.000 A 
ATOM     26  C   UNL     1      53.222   6.674  16.098  0.00  0.00    +0.000 A 
ATOM     27  C   UNL     1      52.644   5.708  16.929  0.00  0.00    +0.000 A 
BRANCH  25  28
ATOM     28  C   UNL     1      53.058   8.717  14.623  0.00  0.00    +0.000 C 
BRANCH  28  29
ATOM     29  N   UNL     1      52.441   8.694  13.314  0.00  0.00    +0.000 N 
ATOM     30  C   UNL     1      51.597   9.721  12.948  0.00  0.00    +0.000 C 
ATOM     31  O   UNL     1      51.320  10.638  13.715  0.00  0.00    +0.000 OA
ATOM     32  H   UNL     1      52.779   8.029  12.633  0.00  0.00    +0.000 HD
BRANCH  30  33
ATOM     33  C   UNL     1      51.092   9.668  11.509  0.00  0.00    +0.000 C 
ATOM     34  C   UNL     1      49.673   9.139  11.421  0.00  0.00    +0.000 C 
ATOM     35  C   UNL     1      49.884   7.640  11.431  0.00  0.00    +0.000 C 
ATOM     36  O   UNL     1      51.135   7.403  10.768  0.00  0.00    +0.000 OA
ATOM     37  C   UNL     1      51.841   8.651  10.670  0.00  0.00    +0.000 C 
ENDBRANCH  30  33
ENDBRANCH  28  29
ENDBRANCH  25  28
ENDBRANCH  21  22
ENDBRANCH   3  21
TORSDOF 8
ENDMDL
MODEL 3
REMARK VINA RESULT:    -6.831      4.795      9.617
REMARK INTER + INTRA:         -11.339
REMARK INTER:                  -9.786
REMARK INTRA:                  -1.552
REMARK UNBOUND:                -1.313
REMARK  Name = 
REMARK  8 active torsions:
REMARK  status: ('A' for Active; 'I' for Inactive)
REMARK    1  A    between atoms: C_2  and  C_3
REMARK    2  A    between atoms: C_3  and  N_4
REMARK    3  A    between atoms: C_5  and  C_7
REMARK    4  A    between atoms: N_17  and  C_18
REMARK    5  A    between atoms: C_18  and  C_19
REMARK    6  A    between atoms: C_22  and  C_23
REMARK    7  A    between atoms: C_23  and  N_24
REMARK    8  A    between atoms: C_25  and  C_27
REMARK                            x       y       z     vdW  Elec       q    Type
REMARK                         _______ _______ _______ _____ _____    ______ ____
ROOT
ATOM      1  O   UNL     1      52.897   9.457  12.937  0.00  0.00    +0.000 OA
ATOM      2  C   UNL     1      52.406   8.608  13.676  0.00  0.00    +0.000 C 
ATOM      3  N   UNL     1      51.172   8.032  13.462  0.00  0.00    +0.000 N 
ATOM      4  H   UNL     1      50.756   7.497  14.218  0.00  0.00    +0.000 HD
ENDROOT
BRANCH   2   5
ATOM      5  C   UNL     1      53.086   8.168  14.972  0.00  0.00    +0.000 C 
BRANCH   5   6
ATOM      6  N   UNL     1      52.490   6.949  15.477  0.00  0.00    +0.000 N 
ATOM      7  C   UNL     1      51.874   6.884  16.699  0.00  0.00    +0.000 C 
ATOM      8  O   UNL     1      51.833   7.868  17.437  0.00  0.00    +0.000 OA
ATOM      9  H   UNL     1      52.634   6.108  14.925  0.00  0.00    +0.000 HD
BRANCH   7  10
ATOM     10  C   UNL     1      51.268   5.600  17.089  0.00  0.00    +0.000 A 
ATOM     11  C   UNL     1      52.095   4.527  17.398  0.00  0.00    +0.000 A 
ATOM     12  S   UNL     1      51.256   3.110  17.832  0.00  0.00    +0.000 S 
ATOM     13  C   UNL     1      49.751   3.870  17.623  0.00  0.00    +0.000 A 
ATOM     14  N   UNL     1      48.594   3.185  17.828  0.00  0.00    +0.000 NA
ATOM     15  C   UNL     1      47.522   3.875  17.632  0.00  0.00    +0.000 A 
ATOM     16  N   UNL     1      47.502   5.194  17.259  0.00  0.00    +0.000 N 
ATOM     17  C   UNL     1      48.645   5.927  17.049  0.00  0.00    +0.000 A 
ATOM     18  O   UNL     1      48.584   7.109  16.726  0.00  0.00    +0.000 OA
ATOM     19  C   UNL     1      49.885   5.194  17.239  0.00  0.00    +0.000 A 
ATOM     20  H   UNL     1      46.628   5.680  17.128  0.00  0.00    +0.000 HD
ENDBRANCH   7  10
ENDBRANCH   5   6
ENDBRANCH   2   5
BRANCH   3  21
ATOM     21  C   UNL     1      50.350   8.367  12.322  0.00  0.00    +0.000 C 
BRANCH  21  22
ATOM     22  C   UNL     1      49.049   7.601  12.337  0.00  0.00    +0.000 A 
ATOM     23  C   UNL     1      48.044   7.865  11.398  0.00  0.00    +0.000 A 
ATOM     24  C   UNL     1      46.830   7.171  11.439  0.00  0.00    +0.000 A 
ATOM     25  C   UNL     1      46.587   6.210  12.431  0.00  0.00    +0.000 A 
ATOM     26  C   UNL     1      47.600   5.932  13.356  0.00  0.00    +0.000 A 
ATOM     27  C   UNL     1      48.814   6.626  13.316  0.00  0.00    +0.000 A 
BRANCH  25  28
ATOM     28  C   UNL     1      45.253   5.516  12.523  0.00  0.00    +0.000 C 
BRANCH  28  29
ATOM     29  N   UNL     1      44.774   5.039  11.244  0.00  0.00    +0.000 N 
ATOM     30  C   UNL     1      44.822   3.689  10.966  0.00  0.00    +0.000 C 
ATOM     31  O   UNL     1      45.298   2.880  11.757  0.00  0.00    +0.000 OA
ATOM     32  H   UNL     1      44.249   5.673  10.658  0.00  0.00    +0.000 HD
BRANCH  30  33
ATOM     33  C   UNL     1      44.185   3.272   9.644  0.00  0.00    +0.000 C 
ATOM     34  C   UNL     1      44.606   1.877   9.222  0.00  0.00    +0.000 C 
ATOM     35  C   UNL     1      45.931   2.132   8.535  0.00  0.00    +0.000 C 
ATOM     36  O   UNL     1      45.827   3.426   7.923  0.00  0.00    +0.000 OA
ATOM     37  C   UNL     1      44.683   4.099   8.475  0.00  0.00    +0.000 C 
ENDBRANCH  30  33
ENDBRANCH  28  29
ENDBRANCH  25  28
ENDBRANCH  21  22
ENDBRANCH   3  21
TORSDOF 8
ENDMDL
MODEL 4
REMARK VINA RESULT:    -6.645      4.186      9.654
REMARK INTER + INTRA:         -11.066
REMARK INTER:                  -9.646
REMARK INTRA:                  -1.420
REMARK UNBOUND:                -1.313
REMARK  Name = 
REMARK  8 active torsions:
REMARK  status: ('A' for Active; 'I' for Inactive)
REMARK    1  A    between atoms: C_2  and  C_3
REMARK    2  A    between atoms: C_3  and  N_4
REMARK    3  A    between atoms: C_5  and  C_7
REMARK    4  A    between atoms: N_17  and  C_18
REMARK    5  A    between atoms: C_18  and  C_19
REMARK    6  A    between atoms: C_22  and  C_23
REMARK    7  A    between atoms: C_23  and  N_24
REMARK    8  A    between atoms: C_25  and  C_27
REMARK                            x       y       z     vdW  Elec       q    Type
REMARK                         _______ _______ _______ _____ _____    ______ ____
ROOT
ATOM      1  O   UNL     1      47.478   3.188  14.510  0.00  0.00    +0.000 OA
ATOM      2  C   UNL     1      47.057   4.160  15.131  0.00  0.00    +0.000 C 
ATOM      3  N   UNL     1      46.660   5.335  14.531  0.00  0.00    +0.000 N 
ATOM      4  H   UNL     1      46.521   6.151  15.120  0.00  0.00    +0.000 HD
ENDROOT
BRANCH   2   5
ATOM      5  C   UNL     1      47.018   4.193  16.659  0.00  0.00    +0.000 C 
BRANCH   5   6
ATOM      6  N   UNL     1      48.304   3.829  17.214  0.00  0.00    +0.000 N 
ATOM      7  C   UNL     1      49.407   4.633  17.100  0.00  0.00    +0.000 C 
ATOM      8  O   UNL     1      49.350   5.697  16.484  0.00  0.00    +0.000 OA
ATOM      9  H   UNL     1      48.381   2.897  17.611  0.00  0.00    +0.000 HD
BRANCH   7  10
ATOM     10  C   UNL     1      50.651   4.176  17.741  0.00  0.00    +0.000 A 
ATOM     11  C   UNL     1      51.346   5.047  18.571  0.00  0.00    +0.000 A 
ATOM     12  S   UNL     1      52.763   4.382  19.242  0.00  0.00    +0.000 S 
ATOM     13  C   UNL     1      52.508   2.900  18.451  0.00  0.00    +0.000 A 
ATOM     14  N   UNL     1      53.391   1.876  18.597  0.00  0.00    +0.000 NA
ATOM     15  C   UNL     1      53.085   0.807  17.941  0.00  0.00    +0.000 A 
ATOM     16  N   UNL     1      51.968   0.668  17.160  0.00  0.00    +0.000 N 
ATOM     17  C   UNL     1      51.045   1.672  16.989  0.00  0.00    +0.000 A 
ATOM     18  O   UNL     1      50.053   1.502  16.288  0.00  0.00    +0.000 OA
ATOM     19  C   UNL     1      51.349   2.906  17.692  0.00  0.00    +0.000 A 
ATOM     20  H   UNL     1      51.781  -0.198  16.676  0.00  0.00    +0.000 HD
ENDBRANCH   7  10
ENDBRANCH   5   6
ENDBRANCH   2   5
BRANCH   3  21
ATOM     21  C   UNL     1      46.685   5.518  13.097  0.00  0.00    +0.000 C 
BRANCH  21  22
ATOM     22  C   UNL     1      47.588   6.662  12.704  0.00  0.00    +0.000 A 
ATOM     23  C   UNL     1      48.972   6.594  12.912  0.00  0.00    +0.000 A 
ATOM     24  C   UNL     1      49.798   7.672  12.573  0.00  0.00    +0.000 A 
ATOM     25  C   UNL     1      49.255   8.847  12.035  0.00  0.00    +0.000 A 
ATOM     26  C   UNL     1      47.875   8.907  11.808  0.00  0.00    +0.000 A 
ATOM     27  C   UNL     1      47.050   7.830  12.148  0.00  0.00    +0.000 A 
BRANCH  25  28
ATOM     28  C   UNL     1      50.132  10.037  11.739  0.00  0.00    +0.000 C 
BRANCH  28  29
ATOM     29  N   UNL     1      51.172   9.748  10.775  0.00  0.00    +0.000 N 
ATOM     30  C   UNL     1      52.477   9.635  11.204  0.00  0.00    +0.000 C 
ATOM     31  O   UNL     1      52.792   9.811  12.377  0.00  0.00    +0.000 OA
ATOM     32  H   UNL     1      50.901   9.457   9.847  0.00  0.00    +0.000 HD
BRANCH  30  33
ATOM     33  C   UNL     1      53.480   9.212  10.135  0.00  0.00    +0.000 C 
ATOM     34  C   UNL     1      52.954   8.079   9.274  0.00  0.00    +0.000 C 
ATOM     35  C   UNL     1      53.284   6.859  10.107  0.00  0.00    +0.000 C 
ATOM     36  O   UNL     1      54.498   7.165  10.810  0.00  0.00    +0.000 OA
ATOM     37  C   UNL     1      54.726   8.582  10.726  0.00  0.00    +0.000 C 
ENDBRANCH  30  33
ENDBRANCH  28  29
ENDBRANCH  25  28
ENDBRANCH  21  22
ENDBRANCH   3  21
TORSDOF 8
ENDMDL
MODEL 5
REMARK VINA RESULT:    -6.627      4.126      5.815
REMARK INTER + INTRA:         -11.039
REMARK INTER:                  -9.451
REMARK INTRA:                  -1.588
REMARK UNBOUND:                -1.313
REMARK  Name = 
REMARK  8 active torsions:
REMARK  status: ('A' for Active; 'I' for Inactive)
REMARK    1  A    between atoms: C_2  and  C_3
REMARK    2  A    between atoms: C_3  and  N_4
REMARK    3  A    between atoms: C_5  and  C_7
REMARK    4  A    between atoms: N_17  and  C_18
REMARK    5  A    between atoms: C_18  and  C_19
REMARK    6  A    between atoms: C_22  and  C_23
REMARK    7  A    between atoms: C_23  and  N_24
REMARK    8  A    between atoms: C_25  and  C_27
REMARK                            x       y       z     vdW  Elec       q    Type
REMARK                         _______ _______ _______ _____ _____    ______ ____
ROOT
ATOM      1  O   UNL     1      51.339   7.913  11.364  0.00  0.00    +0.000 OA
ATOM      2  C   UNL     1      50.705   8.728  12.027  0.00  0.00    +0.000 C 
ATOM      3  N   UNL     1      51.178   9.300  13.188  0.00  0.00    +0.000 N 
ATOM      4  H   UNL     1      50.520   9.801  13.778  0.00  0.00    +0.000 HD
ENDROOT
BRANCH   2   5
ATOM      5  C   UNL     1      49.272   9.126  11.672  0.00  0.00    +0.000 C 
BRANCH   5   6
ATOM      6  N   UNL     1      48.386   7.985  11.755  0.00  0.00    +0.000 N 
ATOM      7  C   UNL     1      47.503   7.815  12.790  0.00  0.00    +0.000 C 
ATOM      8  O   UNL     1      47.454   8.624  13.715  0.00  0.00    +0.000 OA
ATOM      9  H   UNL     1      48.515   7.256  11.059  0.00  0.00    +0.000 HD
BRANCH   7  10
ATOM     10  C   UNL     1      46.624   6.635  12.746  0.00  0.00    +0.000 A 
ATOM     11  C   UNL     1      47.070   5.436  13.290  0.00  0.00    +0.000 A 
ATOM     12  S   UNL     1      45.947   4.162  13.169  0.00  0.00    +0.000 S 
ATOM     13  C   UNL     1      44.817   5.157  12.383  0.00  0.00    +0.000 A 
ATOM     14  N   UNL     1      43.614   4.661  11.986  0.00  0.00    +0.000 NA
ATOM     15  C   UNL     1      42.850   5.518  11.398  0.00  0.00    +0.000 A 
ATOM     16  N   UNL     1      43.176   6.831  11.181  0.00  0.00    +0.000 N 
ATOM     17  C   UNL     1      44.374   7.377  11.572  0.00  0.00    +0.000 A 
ATOM     18  O   UNL     1      44.623   8.561  11.367  0.00  0.00    +0.000 OA
ATOM     19  C   UNL     1      45.283   6.452  12.225  0.00  0.00    +0.000 A 
ATOM     20  H   UNL     1      42.529   7.454  10.720  0.00  0.00    +0.000 HD
ENDBRANCH   7  10
ENDBRANCH   5   6
ENDBRANCH   2   5
BRANCH   3  21
ATOM     21  C   UNL     1      52.488   8.999  13.720  0.00  0.00    +0.000 C 
BRANCH  21  22
ATOM     22  C   UNL     1      52.414   7.950  14.802  0.00  0.00    +0.000 A 
ATOM     23  C   UNL     1      53.565   7.278  15.236  0.00  0.00    +0.000 A 
ATOM     24  C   UNL     1      53.482   6.285  16.219  0.00  0.00    +0.000 A 
ATOM     25  C   UNL     1      52.246   5.931  16.777  0.00  0.00    +0.000 A 
ATOM     26  C   UNL     1      51.100   6.617  16.359  0.00  0.00    +0.000 A 
ATOM     27  C   UNL     1      51.182   7.609  15.375  0.00  0.00    +0.000 A 
BRANCH  25  28
ATOM     28  C   UNL     1      52.144   4.811  17.780  0.00  0.00    +0.000 C 
BRANCH  28  29
ATOM     29  N   UNL     1      50.799   4.615  18.275  0.00  0.00    +0.000 N 
ATOM     30  C   UNL     1      50.047   3.565  17.791  0.00  0.00    +0.000 C 
ATOM     31  O   UNL     1      50.471   2.812  16.919  0.00  0.00    +0.000 OA
ATOM     32  H   UNL     1      50.505   5.133  19.090  0.00  0.00    +0.000 HD
BRANCH  30  33
ATOM     33  C   UNL     1      48.691   3.372  18.459  0.00  0.00    +0.000 C 
ATOM     34  C   UNL     1      47.634   2.892  17.481  0.00  0.00    +0.000 C 
ATOM     35  C   UNL     1      47.168   4.186  16.848  0.00  0.00    +0.000 C 
ATOM     36  O   UNL     1      47.277   5.196  17.863  0.00  0.00    +0.000 OA
ATOM     37  C   UNL     1      48.085   4.679  18.933  0.00  0.00    +0.000 C 
ENDBRANCH  30  33
ENDBRANCH  28  29
ENDBRANCH  25  28
ENDBRANCH  21  22
ENDBRANCH   3  21
TORSDOF 8
ENDMDL
MODEL 6
REMARK VINA RESULT:    -6.604      5.655      9.710
REMARK INTER + INTRA:         -11.006
REMARK INTER:                  -9.211
REMARK INTRA:                  -1.795
REMARK UNBOUND:                -1.313
REMARK  Name = 
REMARK  8 active torsions:
REMARK  status: ('A' for Active; 'I' for Inactive)
REMARK    1  A    between atoms: C_2  and  C_3
REMARK    2  A    between atoms: C_3  and  N_4
REMARK    3  A    between atoms: C_5  and  C_7
REMARK    4  A    between atoms: N_17  and  C_18
REMARK    5  A    between atoms: C_18  and  C_19
REMARK    6  A    between atoms: C_22  and  C_23
REMARK    7  A    between atoms: C_23  and  N_24
REMARK    8  A    between atoms: C_25  and  C_27
REMARK                            x       y       z     vdW  Elec       q    Type
REMARK                         _______ _______ _______ _____ _____    ______ ____
ROOT
ATOM      1  O   UNL     1      50.947   9.814  14.385  0.00  0.00    +0.000 OA
ATOM      2  C   UNL     1      51.481   8.768  14.027  0.00  0.00    +0.000 C 
ATOM      3  N   UNL     1      51.348   8.239  12.761  0.00  0.00    +0.000 N 
ATOM      4  H   UNL     1      51.647   7.281  12.608  0.00  0.00    +0.000 HD
ENDROOT
BRANCH   2   5
ATOM      5  C   UNL     1      52.282   7.892  14.990  0.00  0.00    +0.000 C 
BRANCH   5   6
ATOM      6  N   UNL     1      51.411   6.978  15.697  0.00  0.00    +0.000 N 
ATOM      7  C   UNL     1      50.940   7.239  16.957  0.00  0.00    +0.000 C 
ATOM      8  O   UNL     1      51.270   8.263  17.553  0.00  0.00    +0.000 OA
ATOM      9  H   UNL     1      51.241   6.078  15.257  0.00  0.00    +0.000 HD
BRANCH   7  10
ATOM     10  C   UNL     1      50.028   6.253  17.561  0.00  0.00    +0.000 A 
ATOM     11  C   UNL     1      50.217   5.878  18.885  0.00  0.00    +0.000 A 
ATOM     12  S   UNL     1      49.089   4.733  19.447  0.00  0.00    +0.000 S 
ATOM     13  C   UNL     1      48.299   4.689  17.943  0.00  0.00    +0.000 A 
ATOM     14  N   UNL     1      47.227   3.876  17.747  0.00  0.00    +0.000 NA
ATOM     15  C   UNL     1      46.722   3.934  16.561  0.00  0.00    +0.000 A 
ATOM     16  N   UNL     1      47.187   4.741  15.556  0.00  0.00    +0.000 N 
ATOM     17  C   UNL     1      48.261   5.584  15.711  0.00  0.00    +0.000 A 
ATOM     18  O   UNL     1      48.640   6.299  14.789  0.00  0.00    +0.000 OA
ATOM     19  C   UNL     1      48.881   5.547  17.024  0.00  0.00    +0.000 A 
ATOM     20  H   UNL     1      46.743   4.746  14.649  0.00  0.00    +0.000 HD
ENDBRANCH   7  10
ENDBRANCH   5   6
ENDBRANCH   2   5
BRANCH   3  21
ATOM     21  C   UNL     1      50.575   8.891  11.728  0.00  0.00    +0.000 C 
BRANCH  21  22
ATOM     22  C   UNL     1      49.100   8.612  11.886  0.00  0.00    +0.000 A 
ATOM     23  C   UNL     1      48.569   7.348  11.600  0.00  0.00    +0.000 A 
ATOM     24  C   UNL     1      47.196   7.107  11.719  0.00  0.00    +0.000 A 
ATOM     25  C   UNL     1      46.321   8.131  12.111  0.00  0.00    +0.000 A 
ATOM     26  C   UNL     1      46.854   9.388  12.417  0.00  0.00    +0.000 A 
ATOM     27  C   UNL     1      48.228   9.629  12.297  0.00  0.00    +0.000 A 
BRANCH  25  28
ATOM     28  C   UNL     1      44.834   7.895  12.168  0.00  0.00    +0.000 C 
BRANCH  28  29
ATOM     29  N   UNL     1      44.410   6.760  11.378  0.00  0.00    +0.000 N 
ATOM     30  C   UNL     1      43.753   5.716  11.994  0.00  0.00    +0.000 C 
ATOM     31  O   UNL     1      43.550   5.702  13.205  0.00  0.00    +0.000 OA
ATOM     32  H   UNL     1      44.439   6.834  10.371  0.00  0.00    +0.000 HD
BRANCH  30  33
ATOM     33  C   UNL     1      43.242   4.624  11.060  0.00  0.00    +0.000 C 
ATOM     34  C   UNL     1      43.439   3.236  11.641  0.00  0.00    +0.000 C 
ATOM     35  C   UNL     1      44.872   2.927  11.264  0.00  0.00    +0.000 C 
ATOM     36  O   UNL     1      45.110   3.583  10.008  0.00  0.00    +0.000 OA
ATOM     37  C   UNL     1      44.053   4.529   9.782  0.00  0.00    +0.000 C 
ENDBRANCH  30  33
ENDBRANCH  28  29
ENDBRANCH  25  28
ENDBRANCH  21  22
ENDBRANCH   3  21
TORSDOF 8
ENDMDL
MODEL 7
REMARK VINA RESULT:    -6.490      5.451      9.841
REMARK INTER + INTRA:         -10.839
REMARK INTER:                  -9.111
REMARK INTRA:                  -1.728
REMARK UNBOUND:                -1.313
REMARK  Name = 
REMARK  8 active torsions:
REMARK  status: ('A' for Active; 'I' for Inactive)
REMARK    1  A    between atoms: C_2  and  C_3
REMARK    2  A    between atoms: C_3  and  N_4
REMARK    3  A    between atoms: C_5  and  C_7
REMARK    4  A    between atoms: N_17  and  C_18
REMARK    5  A    between atoms: C_18  and  C_19
REMARK    6  A    between atoms: C_22  and  C_23
REMARK    7  A    between atoms: C_23  and  N_24
REMARK    8  A    between atoms: C_25  and  C_27
REMARK                            x       y       z     vdW  Elec       q    Type
REMARK                         _______ _______ _______ _____ _____    ______ ____
ROOT
ATOM      1  O   UNL     1      45.068   5.719  11.538  0.00  0.00    +0.000 OA
ATOM      2  C   UNL     1      45.518   5.751  12.679  0.00  0.00    +0.000 C 
ATOM      3  N   UNL     1      46.048   6.883  13.259  0.00  0.00    +0.000 N 
ATOM      4  H   UNL     1      46.579   6.779  14.118  0.00  0.00    +0.000 HD
ENDROOT
BRANCH   2   5
ATOM      5  C   UNL     1      45.620   4.497  13.548  0.00  0.00    +0.000 C 
BRANCH   5   6
ATOM      6  N   UNL     1      46.292   4.790  14.796  0.00  0.00    +0.000 N 
ATOM      7  C   UNL     1      47.261   3.974  15.318  0.00  0.00    +0.000 C 
ATOM      8  O   UNL     1      47.576   2.929  14.750  0.00  0.00    +0.000 OA
ATOM      9  H   UNL     1      45.943   5.584  15.326  0.00  0.00    +0.000 HD
BRANCH   7  10
ATOM     10  C   UNL     1      47.902   4.396  16.574  0.00  0.00    +0.000 A 
ATOM     11  C   UNL     1      47.848   3.555  17.679  0.00  0.00    +0.000 A 
ATOM     12  S   UNL     1      48.634   4.173  19.057  0.00  0.00    +0.000 S 
ATOM     13  C   UNL     1      49.080   5.592  18.236  0.00  0.00    +0.000 A 
ATOM     14  N   UNL     1      49.781   6.569  18.872  0.00  0.00    +0.000 NA
ATOM     15  C   UNL     1      50.053   7.595  18.138  0.00  0.00    +0.000 A 
ATOM     16  N   UNL     1      49.696   7.727  16.822  0.00  0.00    +0.000 N 
ATOM     17  C   UNL     1      48.995   6.764  16.138  0.00  0.00    +0.000 A 
ATOM     18  O   UNL     1      48.704   6.917  14.956  0.00  0.00    +0.000 OA
ATOM     19  C   UNL     1      48.646   5.591  16.921  0.00  0.00    +0.000 A 
ATOM     20  H   UNL     1      49.945   8.554  16.300  0.00  0.00    +0.000 HD
ENDBRANCH   7  10
ENDBRANCH   5   6
ENDBRANCH   2   5
BRANCH   3  21
ATOM     21  C   UNL     1      46.099   8.153  12.569  0.00  0.00    +0.000 C 
BRANCH  21  22
ATOM     22  C   UNL     1      47.503   8.481  12.124  0.00  0.00    +0.000 A 
ATOM     23  C   UNL     1      48.396   7.470  11.745  0.00  0.00    +0.000 A 
ATOM     24  C   UNL     1      49.706   7.781  11.364  0.00  0.00    +0.000 A 
ATOM     25  C   UNL     1      50.156   9.108  11.368  0.00  0.00    +0.000 A 
ATOM     26  C   UNL     1      49.258  10.121  11.726  0.00  0.00    +0.000 A 
ATOM     27  C   UNL     1      47.949   9.810  12.109  0.00  0.00    +0.000 A 
BRANCH  25  28
ATOM     28  C   UNL     1      51.588   9.439  11.030  0.00  0.00    +0.000 C 
BRANCH  28  29
ATOM     29  N   UNL     1      52.187   8.490  10.118  0.00  0.00    +0.000 N 
ATOM     30  C   UNL     1      53.394   8.794   9.523  0.00  0.00    +0.000 C 
ATOM     31  O   UNL     1      53.958   9.867   9.714  0.00  0.00    +0.000 OA
ATOM     32  H   UNL     1      51.807   7.555  10.075  0.00  0.00    +0.000 HD
BRANCH  30  33
ATOM     33  C   UNL     1      54.001   7.683   8.674  0.00  0.00    +0.000 C 
ATOM     34  C   UNL     1      54.136   8.086   7.217  0.00  0.00    +0.000 C 
ATOM     35  C   UNL     1      52.756   7.789   6.669  0.00  0.00    +0.000 C 
ATOM     36  O   UNL     1      52.265   6.657   7.403  0.00  0.00    +0.000 OA
ATOM     37  C   UNL     1      53.092   6.474   8.564  0.00  0.00    +0.000 C 
ENDBRANCH  30  33
ENDBRANCH  28  29
ENDBRANCH  25  28
ENDBRANCH  21  22
ENDBRANCH   3  21
TORSDOF 8
ENDMDL
MODEL 8
REMARK VINA RESULT:    -6.432      3.549      9.462
REMARK INTER + INTRA:         -10.753
REMARK INTER:                  -9.173
REMARK INTRA:                  -1.580
REMARK UNBOUND:                -1.313
REMARK  Name = 
REMARK  8 active torsions:
REMARK  status: ('A' for Active; 'I' for Inactive)
REMARK    1  A    between atoms: C_2  and  C_3
REMARK    2  A    between atoms: C_3  and  N_4
REMARK    3  A    between atoms: C_5  and  C_7
REMARK    4  A    between atoms: N_17  and  C_18
REMARK    5  A    between atoms: C_18  and  C_19
REMARK    6  A    between atoms: C_22  and  C_23
REMARK    7  A    between atoms: C_23  and  N_24
REMARK    8  A    between atoms: C_25  and  C_27
REMARK                            x       y       z     vdW  Elec       q    Type
REMARK                         _______ _______ _______ _____ _____    ______ ____
ROOT
ATOM      1  O   UNL     1      50.357  10.430  16.512  0.00  0.00    +0.000 OA
ATOM      2  C   UNL     1      50.695   9.251  16.459  0.00  0.00    +0.000 C 
ATOM      3  N   UNL     1      50.796   8.538  15.283  0.00  0.00    +0.000 N 
ATOM      4  H   UNL     1      50.881   7.528  15.341  0.00  0.00    +0.000 HD
ENDROOT
BRANCH   2   5
ATOM      5  C   UNL     1      50.952   8.421  17.716  0.00  0.00    +0.000 C 
BRANCH   5   6
ATOM      6  N   UNL     1      50.753   7.012  17.453  0.00  0.00    +0.000 N 
ATOM      7  C   UNL     1      49.669   6.322  17.928  0.00  0.00    +0.000 C 
ATOM      8  O   UNL     1      48.829   6.878  18.635  0.00  0.00    +0.000 OA
ATOM      9  H   UNL     1      51.508   6.526  16.977  0.00  0.00    +0.000 HD
BRANCH   7  10
ATOM     10  C   UNL     1      49.552   4.901  17.561  0.00  0.00    +0.000 A 
ATOM     11  C   UNL     1      48.343   4.425  17.070  0.00  0.00    +0.000 A 
ATOM     12  S   UNL     1      48.357   2.766  16.686  0.00  0.00    +0.000 S 
ATOM     13  C   UNL     1      49.981   2.612  17.161  0.00  0.00    +0.000 A 
ATOM     14  N   UNL     1      50.612   1.410  17.092  0.00  0.00    +0.000 NA
ATOM     15  C   UNL     1      51.841   1.428  17.485  0.00  0.00    +0.000 A 
ATOM     16  N   UNL     1      52.499   2.544  17.932  0.00  0.00    +0.000 N 
ATOM     17  C   UNL     1      51.904   3.780  18.011  0.00  0.00    +0.000 A 
ATOM     18  O   UNL     1      52.532   4.757  18.407  0.00  0.00    +0.000 OA
ATOM     19  C   UNL     1      50.513   3.815  17.596  0.00  0.00    +0.000 A 
ATOM     20  H   UNL     1      53.465   2.493  18.220  0.00  0.00    +0.000 HD
ENDBRANCH   7  10
ENDBRANCH   5   6
ENDBRANCH   2   5
BRANCH   3  21
ATOM     21  C   UNL     1      50.530   9.134  13.993  0.00  0.00    +0.000 C 
BRANCH  21  22
ATOM     22  C   UNL     1      49.253   8.598  13.392  0.00  0.00    +0.000 A 
ATOM     23  C   UNL     1      49.276   7.795  12.245  0.00  0.00    +0.000 A 
ATOM     24  C   UNL     1      48.085   7.328  11.677  0.00  0.00    +0.000 A 
ATOM     25  C   UNL     1      46.845   7.667  12.235  0.00  0.00    +0.000 A 
ATOM     26  C   UNL     1      46.823   8.451  13.395  0.00  0.00    +0.000 A 
ATOM     27  C   UNL     1      48.013   8.920  13.962  0.00  0.00    +0.000 A 
BRANCH  25  28
ATOM     28  C   UNL     1      45.559   7.228  11.583  0.00  0.00    +0.000 C 
BRANCH  28  29
ATOM     29  N   UNL     1      45.308   5.810  11.724  0.00  0.00    +0.000 N 
ATOM     30  C   UNL     1      45.456   4.986  10.628  0.00  0.00    +0.000 C 
ATOM     31  O   UNL     1      45.756   5.426   9.522  0.00  0.00    +0.000 OA
ATOM     32  H   UNL     1      45.210   5.427  12.653  0.00  0.00    +0.000 HD
BRANCH  30  33
ATOM     33  C   UNL     1      45.286   3.496  10.905  0.00  0.00    +0.000 C 
ATOM     34  C   UNL     1      43.885   3.010  10.584  0.00  0.00    +0.000 C 
ATOM     35  C   UNL     1      43.124   3.360  11.845  0.00  0.00    +0.000 C 
ATOM     36  O   UNL     1      44.057   3.230  12.929  0.00  0.00    +0.000 OA
ATOM     37  C   UNL     1      45.384   3.166  12.381  0.00  0.00    +0.000 C 
ENDBRANCH  30  33
ENDBRANCH  28  29
ENDBRANCH  25  28
ENDBRANCH  21  22
ENDBRANCH   3  21
TORSDOF 8
ENDMDL
MODEL 9
REMARK VINA RESULT:    -6.400      4.695      6.752
REMARK INTER + INTRA:         -10.706
REMARK INTER:                  -8.847
REMARK INTRA:                  -1.859
REMARK UNBOUND:                -1.313
REMARK  Name = 
REMARK  8 active torsions:
REMARK  status: ('A' for Active; 'I' for Inactive)
REMARK    1  A    between atoms: C_2  and  C_3
REMARK    2  A    between atoms: C_3  and  N_4
REMARK    3  A    between atoms: C_5  and  C_7
REMARK    4  A    between atoms: N_17  and  C_18
REMARK    5  A    between atoms: C_18  and  C_19
REMARK    6  A    between atoms: C_22  and  C_23
REMARK    7  A    between atoms: C_23  and  N_24
REMARK    8  A    between atoms: C_25  and  C_27
REMARK                            x       y       z     vdW  Elec       q    Type
REMARK                         _______ _______ _______ _____ _____    ______ ____
ROOT
ATOM      1  O   UNL     1      50.170   9.847  13.623  0.00  0.00    +0.000 OA
ATOM      2  C   UNL     1      49.085  10.420  13.649  0.00  0.00    +0.000 C 
ATOM      3  N   UNL     1      48.650  11.182  14.712  0.00  0.00    +0.000 N 
ATOM      4  H   UNL     1      47.671  11.449  14.741  0.00  0.00    +0.000 HD
ENDROOT
BRANCH   2   5
ATOM      5  C   UNL     1      48.058  10.268  12.527  0.00  0.00    +0.000 C 
BRANCH   5   6
ATOM      6  N   UNL     1      47.237   9.096  12.737  0.00  0.00    +0.000 N 
ATOM      7  C   UNL     1      47.559   7.870  12.216  0.00  0.00    +0.000 C 
ATOM      8  O   UNL     1      48.558   7.728  11.512  0.00  0.00    +0.000 OA
ATOM      9  H   UNL     1      46.349   9.240  13.211  0.00  0.00    +0.000 HD
BRANCH   7  10
ATOM     10  C   UNL     1      46.668   6.741  12.531  0.00  0.00    +0.000 A 
ATOM     11  C   UNL     1      47.165   5.668  13.260  0.00  0.00    +0.000 A 
ATOM     12  S   UNL     1      46.023   4.439  13.550  0.00  0.00    +0.000 S 
ATOM     13  C   UNL     1      44.813   5.289  12.712  0.00  0.00    +0.000 A 
ATOM     14  N   UNL     1      43.565   4.765  12.577  0.00  0.00    +0.000 NA
ATOM     15  C   UNL     1      42.742   5.507  11.917  0.00  0.00    +0.000 A 
ATOM     16  N   UNL     1      43.053   6.733  11.387  0.00  0.00    +0.000 N 
ATOM     17  C   UNL     1      44.296   7.304  11.505  0.00  0.00    +0.000 A 
ATOM     18  O   UNL     1      44.531   8.408  11.024  0.00  0.00    +0.000 OA
ATOM     19  C   UNL     1      45.270   6.503  12.226  0.00  0.00    +0.000 A 
ATOM     20  H   UNL     1      42.360   7.269  10.885  0.00  0.00    +0.000 HD
ENDBRANCH   7  10
ENDBRANCH   5   6
ENDBRANCH   2   5
BRANCH   3  21
ATOM     21  C   UNL     1      49.456  11.390  15.894  0.00  0.00    +0.000 C 
BRANCH  21  22
ATOM     22  C   UNL     1      49.068  10.438  16.999  0.00  0.00    +0.000 A 
ATOM     23  C   UNL     1      49.843   9.305  17.281  0.00  0.00    +0.000 A 
ATOM     24  C   UNL     1      49.459   8.411  18.287  0.00  0.00    +0.000 A 
ATOM     25  C   UNL     1      48.284   8.621  19.021  0.00  0.00    +0.000 A 
ATOM     26  C   UNL     1      47.521   9.764  18.753  0.00  0.00    +0.000 A 
ATOM     27  C   UNL     1      47.904  10.658  17.747  0.00  0.00    +0.000 A 
BRANCH  25  28
ATOM     28  C   UNL     1      47.829   7.621  20.052  0.00  0.00    +0.000 C 
BRANCH  28  29
ATOM     29  N   UNL     1      48.477   6.335  19.918  0.00  0.00    +0.000 N 
ATOM     30  C   UNL     1      47.872   5.349  19.167  0.00  0.00    +0.000 C 
ATOM     31  O   UNL     1      46.777   5.516  18.639  0.00  0.00    +0.000 OA
ATOM     32  H   UNL     1      49.436   6.244  20.221  0.00  0.00    +0.000 HD
BRANCH  30  33
ATOM     33  C   UNL     1      48.688   4.073  18.987  0.00  0.00    +0.000 C 
ATOM     34  C   UNL     1      50.173   4.358  18.855  0.00  0.00    +0.000 C 
ATOM     35  C   UNL     1      50.310   4.687  17.384  0.00  0.00    +0.000 C 
ATOM     36  O   UNL     1      49.329   3.893  16.699  0.00  0.00    +0.000 OA
ATOM     37  C   UNL     1      48.400   3.382  17.669  0.00  0.00    +0.000 C 
ENDBRANCH  30  33
ENDBRANCH  28  29
ENDBRANCH  25  28
ENDBRANCH  21  22
ENDBRANCH   3  21
TORSDOF 8
ENDMDL
