MODEL 1
REMARK VINA RESULT:    -8.943      0.000      0.000
REMARK INTER + INTRA:         -12.943
REMARK INTER:                 -12.603
REMARK INTRA:                  -0.340
REMARK UNBOUND:                -0.340
REMARK  Name = 
REMARK  8 active torsions:
REMARK  status: ('A' for Active; 'I' for Inactive)
REMARK    1  A    between atoms: C_1  and  C_2
REMARK    2  A    between atoms: C_2  and  C_3
REMARK    3  A    between atoms: C_3  and  N_4
REMARK    4  A    between atoms: C_3  and  C_13
REMARK    5  A    between atoms: C_5  and  C_7
REMARK    6  A    between atoms: C_16  and  C_17
REMARK    7  A    between atoms: C_17  and  N_18
REMARK    8  A    between atoms: C_19  and  C_21
REMARK                            x       y       z     vdW  Elec       q    Type
REMARK                         _______ _______ _______ _____ _____    ______ ____
ROOT
ATOM      1  C   UNL     1      44.768   6.338  11.185  0.00  0.00    +0.000 A 
ATOM      2  C   UNL     1      46.084   5.877  11.365  0.00  0.00    +0.000 A 
ATOM      3  C   UNL     1      47.008   6.597  12.131  0.00  0.00    +0.000 A 
ATOM      4  C   UNL     1      46.645   7.807  12.733  0.00  0.00    +0.000 A 
ATOM      5  C   UNL     1      45.377   8.334  12.453  0.00  0.00    +0.000 A 
ATOM      6  C   UNL     1      44.445   7.600  11.705  0.00  0.00    +0.000 A 
ENDROOT
BRANCH   1   7
ATOM      7  C   UNL     1      43.759   5.419  10.499  0.00  0.00    +0.000 C 
BRANCH   7   8
ATOM      8  N   UNL     1      44.382   4.793   9.323  0.00  0.00    +0.000 N 
ATOM      9  C   UNL     1      44.900   3.516   9.359  0.00  0.00    +0.000 C 
ATOM     10  O   UNL     1      44.881   2.836  10.386  0.00  0.00    +0.000 OA
ATOM     11  H   UNL     1      44.606   5.356   8.510  0.00  0.00    +0.000 HD
BRANCH   9  12
ATOM     12  C   UNL     1      45.477   2.937   8.039  0.00  0.00    +0.000 C 
ATOM     13  C   UNL     1      46.302   1.674   8.321  0.00  0.00    +0.000 C 
ATOM     14  C   UNL     1      46.807   1.036   7.027  0.00  0.00    +0.000 C 
ATOM     15  C   UNL     1      47.533   2.063   6.167  0.00  0.00    +0.000 C 
ATOM     16  C   UNL     1      46.697   3.330   5.985  0.00  0.00    +0.000 C 
ATOM     17  N   UNL     1      46.281   3.923   7.271  0.00  0.00    +0.000 NA
ATOM     18  H   UNL     1      45.680   4.723   7.062  0.00  0.00    +0.000 HD
ENDBRANCH   9  12
ENDBRANCH   7   8
BRANCH   7  20
ATOM     19  C   UNL     1      43.037   4.772  12.873  0.00  0.00    +0.000 C 
ATOM     20  C   UNL     1      43.091   4.361  11.404  0.00  0.00    +0.000 C 
ENDBRANCH   7  20
ENDBRANCH   1   7
BRANCH   4  21
ATOM     21  C   UNL     1      47.572   8.491  13.707  0.00  0.00    +0.000 C 
BRANCH  21  22
ATOM     22  N   UNL     1      47.853   7.699  14.873  0.00  0.00    +0.000 N 
ATOM     23  C   UNL     1      49.047   7.023  14.978  0.00  0.00    +0.000 C 
ATOM     24  O   UNL     1      49.926   7.118  14.126  0.00  0.00    +0.000 OA
ATOM     25  H   UNL     1      47.065   7.417  15.448  0.00  0.00    +0.000 HD
BRANCH  23  26
ATOM     26  C   UNL     1      49.248   6.223  16.192  0.00  0.00    +0.000 A 
ATOM     27  C   UNL     1      50.278   6.546  17.067  0.00  0.00    +0.000 A 
ATOM     28  S   UNL     1      50.337   5.549  18.449  0.00  0.00    +0.000 S 
ATOM     29  C   UNL     1      49.026   4.614  17.898  0.00  0.00    +0.000 A 
ATOM     30  N   UNL     1      48.574   3.554  18.617  0.00  0.00    +0.000 NA
ATOM     31  C   UNL     1      47.598   2.912  18.064  0.00  0.00    +0.000 A 
ATOM     32  N   UNL     1      47.032   3.241  16.859  0.00  0.00    +0.000 N 
ATOM     33  C   UNL     1      47.431   4.322  16.112  0.00  0.00    +0.000 A 
ATOM     34  O   UNL     1      46.872   4.622  15.071  0.00  0.00    +0.000 OA
ATOM     35  C   UNL     1      48.536   5.070  16.686  0.00  0.00    +0.000 A 
ATOM     36  H   UNL     1      46.262   2.706  16.489  0.00  0.00    +0.000 HD
ENDBRANCH  23  26
ENDBRANCH  21  22
ENDBRANCH   4  21
TORSDOF 7
ENDMDL
MODEL 2
REMARK VINA RESULT:    -8.927      2.210      2.568
REMARK INTER + INTRA:         -12.920
REMARK INTER:                 -11.798
REMARK INTRA:                  -1.121
REMARK UNBOUND:                -0.340
REMARK  Name = 
REMARK  8 active torsions:
REMARK  status: ('A' for Active; 'I' for Inactive)
REMARK    1  A    between atoms: C_1  and  C_2
REMARK    2  A    between atoms: C_2  and  C_3
REMARK    3  A    between atoms: C_3  and  N_4
REMARK    4  A    between atoms: C_3  and  C_13
REMARK    5  A    between atoms: C_5  and  C_7
REMARK    6  A    between atoms: C_16  and  C_17
REMARK    7  A    between atoms: C_17  and  N_18
REMARK    8  A    between atoms: C_19  and  C_21
REMARK                            x       y       z     vdW  Elec       q    Type
REMARK                         _______ _______ _______ _____ _____    ______ ____
ROOT
ATOM      1  C   UNL     1      45.819   5.085  12.425  0.00  0.00    +0.000 A 
ATOM      2  C   UNL     1      46.199   4.495  13.644  0.00  0.00    +0.000 A 
ATOM      3  C   UNL     1      47.135   5.105  14.486  0.00  0.00    +0.000 A 
ATOM      4  C   UNL     1      47.728   6.321  14.130  0.00  0.00    +0.000 A 
ATOM      5  C   UNL     1      47.450   6.850  12.862  0.00  0.00    +0.000 A 
ATOM      6  C   UNL     1      46.493   6.249  12.029  0.00  0.00    +0.000 A 
ENDROOT
BRANCH   1   7
ATOM      7  C   UNL     1      44.660   4.469  11.645  0.00  0.00    +0.000 C 
BRANCH   7   8
ATOM      8  N   UNL     1      45.184   3.727  10.487  0.00  0.00    +0.000 N 
ATOM      9  C   UNL     1      44.699   3.920   9.212  0.00  0.00    +0.000 C 
ATOM     10  O   UNL     1      43.788   4.714   8.976  0.00  0.00    +0.000 OA
ATOM     11  H   UNL     1      45.790   2.928  10.632  0.00  0.00    +0.000 HD
BRANCH   9  12
ATOM     12  C   UNL     1      45.371   3.125   8.059  0.00  0.00    +0.000 C 
ATOM     13  C   UNL     1      46.068   1.872   8.604  0.00  0.00    +0.000 C 
ATOM     14  C   UNL     1      46.662   1.028   7.477  0.00  0.00    +0.000 C 
ATOM     15  C   UNL     1      47.547   1.878   6.575  0.00  0.00    +0.000 C 
ATOM     16  C   UNL     1      46.828   3.150   6.126  0.00  0.00    +0.000 C 
ATOM     17  N   UNL     1      46.320   3.944   7.261  0.00  0.00    +0.000 NA
ATOM     18  H   UNL     1      45.804   4.738   6.877  0.00  0.00    +0.000 HD
ENDBRANCH   9  12
ENDBRANCH   7   8
BRANCH   7  20
ATOM     19  C   UNL     1      43.355   2.267  11.799  0.00  0.00    +0.000 C 
ATOM     20  C   UNL     1      43.683   3.600  12.467  0.00  0.00    +0.000 C 
ENDBRANCH   7  20
ENDBRANCH   1   7
BRANCH   4  21
ATOM     21  C   UNL     1      48.593   7.073  15.110  0.00  0.00    +0.000 C 
BRANCH  21  22
ATOM     22  N   UNL     1      49.664   6.278  15.645  0.00  0.00    +0.000 N 
ATOM     23  C   UNL     1      49.615   5.838  16.948  0.00  0.00    +0.000 C 
ATOM     24  O   UNL     1      48.645   6.051  17.670  0.00  0.00    +0.000 OA
ATOM     25  H   UNL     1      50.556   6.306  15.159  0.00  0.00    +0.000 HD
BRANCH  23  26
ATOM     26  C   UNL     1      50.758   5.048  17.421  0.00  0.00    +0.000 A 
ATOM     27  C   UNL     1      51.870   5.694  17.947  0.00  0.00    +0.000 A 
ATOM     28  S   UNL     1      53.083   4.628  18.496  0.00  0.00    +0.000 S 
ATOM     29  C   UNL     1      52.189   3.269  17.996  0.00  0.00    +0.000 A 
ATOM     30  N   UNL     1      52.683   2.012  18.156  0.00  0.00    +0.000 NA
ATOM     31  C   UNL     1      51.917   1.077  17.700  0.00  0.00    +0.000 A 
ATOM     32  N   UNL     1      50.699   1.287  17.104  0.00  0.00    +0.000 N 
ATOM     33  C   UNL     1      50.143   2.534  16.952  0.00  0.00    +0.000 A 
ATOM     34  O   UNL     1      49.034   2.685  16.468  0.00  0.00    +0.000 OA
ATOM     35  C   UNL     1      50.974   3.622  17.438  0.00  0.00    +0.000 A 
ATOM     36  H   UNL     1      50.143   0.511  16.782  0.00  0.00    +0.000 HD
ENDBRANCH  23  26
ENDBRANCH  21  22
ENDBRANCH   4  21
TORSDOF 7
ENDMDL
MODEL 3
REMARK VINA RESULT:    -8.432      1.650      1.909
REMARK INTER + INTRA:         -12.223
REMARK INTER:                 -11.221
REMARK INTRA:                  -1.002
REMARK UNBOUND:                -0.340
REMARK  Name = 
REMARK  8 active torsions:
REMARK  status: ('A' for Active; 'I' for Inactive)
REMARK    1  A    between atoms: C_1  and  C_2
REMARK    2  A    between atoms: C_2  and  C_3
REMARK    3  A    between atoms: C_3  and  N_4
REMARK    4  A    between atoms: C_3  and  C_13
REMARK    5  A    between atoms: C_5  and  C_7
REMARK    6  A    between atoms: C_16  and  C_17
REMARK    7  A    between atoms: C_17  and  N_18
REMARK    8  A    between atoms: C_19  and  C_21
REMARK                            x       y       z     vdW  Elec       q    Type
REMARK                         _______ _______ _______ _____ _____    ______ ____
ROOT
ATOM      1  C   UNL     1      45.719   5.413  11.991  0.00  0.00    +0.000 A 
ATOM      2  C   UNL     1      46.450   4.997  13.117  0.00  0.00    +0.000 A 
ATOM      3  C   UNL     1      47.354   5.855  13.755  0.00  0.00    +0.000 A 
ATOM      4  C   UNL     1      47.560   7.154  13.278  0.00  0.00    +0.000 A 
ATOM      5  C   UNL     1      46.932   7.531  12.083  0.00  0.00    +0.000 A 
ATOM      6  C   UNL     1      46.009   6.678  11.459  0.00  0.00    +0.000 A 
ENDROOT
BRANCH   1   7
ATOM      7  C   UNL     1      44.617   4.501  11.457  0.00  0.00    +0.000 C 
BRANCH   7   8
ATOM      8  N   UNL     1      45.136   3.705  10.333  0.00  0.00    +0.000 N 
ATOM      9  C   UNL     1      44.679   3.873   9.043  0.00  0.00    +0.000 C 
ATOM     10  O   UNL     1      43.799   4.689   8.766  0.00  0.00    +0.000 OA
ATOM     11  H   UNL     1      45.712   2.892  10.514  0.00  0.00    +0.000 HD
BRANCH   9  12
ATOM     12  C   UNL     1      45.344   3.021   7.929  0.00  0.00    +0.000 C 
ATOM     13  C   UNL     1      46.087   1.824   8.537  0.00  0.00    +0.000 C 
ATOM     14  C   UNL     1      46.675   0.922   7.454  0.00  0.00    +0.000 C 
ATOM     15  C   UNL     1      47.516   1.731   6.474  0.00  0.00    +0.000 C 
ATOM     16  C   UNL     1      46.753   2.952   5.961  0.00  0.00    +0.000 C 
ATOM     17  N   UNL     1      46.252   3.807   7.055  0.00  0.00    +0.000 NA
ATOM     18  H   UNL     1      45.706   4.561   6.632  0.00  0.00    +0.000 HD
ENDBRANCH   9  12
ENDBRANCH   7   8
BRANCH   7  20
ATOM     19  C   UNL     1      43.353   2.316  11.908  0.00  0.00    +0.000 C 
ATOM     20  C   UNL     1      43.924   3.601  12.503  0.00  0.00    +0.000 C 
ENDBRANCH   7  20
ENDBRANCH   1   7
BRANCH   4  21
ATOM     21  C   UNL     1      48.388   8.140  14.063  0.00  0.00    +0.000 C 
BRANCH  21  22
ATOM     22  N   UNL     1      48.283   7.961  15.486  0.00  0.00    +0.000 N 
ATOM     23  C   UNL     1      49.226   7.221  16.162  0.00  0.00    +0.000 C 
ATOM     24  O   UNL     1      50.207   6.747  15.597  0.00  0.00    +0.000 OA
ATOM     25  H   UNL     1      47.376   8.127  15.912  0.00  0.00    +0.000 HD
BRANCH  23  26
ATOM     26  C   UNL     1      49.034   7.072  17.609  0.00  0.00    +0.000 A 
ATOM     27  C   UNL     1      48.926   8.203  18.409  0.00  0.00    +0.000 A 
ATOM     28  S   UNL     1      48.655   7.850  20.056  0.00  0.00    +0.000 S 
ATOM     29  C   UNL     1      48.733   6.175  19.766  0.00  0.00    +0.000 A 
ATOM     30  N   UNL     1      48.602   5.284  20.784  0.00  0.00    +0.000 NA
ATOM     31  C   UNL     1      48.718   4.048  20.427  0.00  0.00    +0.000 A 
ATOM     32  N   UNL     1      48.945   3.624  19.143  0.00  0.00    +0.000 N 
ATOM     33  C   UNL     1      49.050   4.483  18.077  0.00  0.00    +0.000 A 
ATOM     34  O   UNL     1      49.198   4.073  16.937  0.00  0.00    +0.000 OA
ATOM     35  C   UNL     1      48.941   5.888  18.428  0.00  0.00    +0.000 A 
ATOM     36  H   UNL     1      49.011   2.641  18.929  0.00  0.00    +0.000 HD
ENDBRANCH  23  26
ENDBRANCH  21  22
ENDBRANCH   4  21
TORSDOF 7
ENDMDL
MODEL 4
REMARK VINA RESULT:    -8.323      2.404      3.577
REMARK INTER + INTRA:         -12.069
REMARK INTER:                 -10.773
REMARK INTRA:                  -1.296
REMARK UNBOUND:                -0.340
REMARK  Name = 
REMARK  8 active torsions:
REMARK  status: ('A' for Active; 'I' for Inactive)
REMARK    1  A    between atoms: C_1  and  C_2
REMARK    2  A    between atoms: C_2  and  C_3
REMARK    3  A    between atoms: C_3  and  N_4
REMARK    4  A    between atoms: C_3  and  C_13
REMARK    5  A    between atoms: C_5  and  C_7
REMARK    6  A    between atoms: C_16  and  C_17
REMARK    7  A    between atoms: C_17  and  N_18
REMARK    8  A    between atoms: C_19  and  C_21
REMARK                            x       y       z     vdW  Elec       q    Type
REMARK                         _______ _______ _______ _____ _____    ______ ____
ROOT
ATOM      1  C   UNL     1      45.405   4.694  12.168  0.00  0.00    +0.000 A 
ATOM      2  C   UNL     1      45.889   3.425  12.531  0.00  0.00    +0.000 A 
ATOM      3  C   UNL     1      46.665   3.246  13.683  0.00  0.00    +0.000 A 
ATOM      4  C   UNL     1      46.986   4.334  14.501  0.00  0.00    +0.000 A 
ATOM      5  C   UNL     1      46.614   5.617  14.078  0.00  0.00    +0.000 A 
ATOM      6  C   UNL     1      45.818   5.792  12.936  0.00  0.00    +0.000 A 
ENDROOT
BRANCH   1   7
ATOM      7  C   UNL     1      44.413   4.793  11.011  0.00  0.00    +0.000 C 
BRANCH   7   8
ATOM      8  N   UNL     1      44.829   3.890   9.926  0.00  0.00    +0.000 N 
ATOM      9  C   UNL     1      45.498   4.345   8.810  0.00  0.00    +0.000 C 
ATOM     10  O   UNL     1      45.769   5.536   8.655  0.00  0.00    +0.000 OA
ATOM     11  H   UNL     1      44.472   2.942   9.893  0.00  0.00    +0.000 HD
BRANCH   9  12
ATOM     12  C   UNL     1      45.941   3.291   7.759  0.00  0.00    +0.000 C 
ATOM     13  C   UNL     1      46.158   1.925   8.424  0.00  0.00    +0.000 C 
ATOM     14  C   UNL     1      46.509   0.852   7.395  0.00  0.00    +0.000 C 
ATOM     15  C   UNL     1      47.675   1.300   6.522  0.00  0.00    +0.000 C 
ATOM     16  C   UNL     1      47.438   2.698   5.950  0.00  0.00    +0.000 C 
ATOM     17  N   UNL     1      47.151   3.698   6.998  0.00  0.00    +0.000 NA
ATOM     18  H   UNL     1      46.945   4.584   6.531  0.00  0.00    +0.000 HD
ENDBRANCH   9  12
ENDBRANCH   7   8
BRANCH   7  20
ATOM     19  C   UNL     1      42.213   5.863  11.781  0.00  0.00    +0.000 C 
ATOM     20  C   UNL     1      42.928   4.576  11.377  0.00  0.00    +0.000 C 
ENDBRANCH   7  20
ENDBRANCH   1   7
BRANCH   4  21
ATOM     21  C   UNL     1      47.660   4.122  15.834  0.00  0.00    +0.000 C 
BRANCH  21  22
ATOM     22  N   UNL     1      47.568   5.265  16.702  0.00  0.00    +0.000 N 
ATOM     23  C   UNL     1      48.699   5.974  17.035  0.00  0.00    +0.000 C 
ATOM     24  O   UNL     1      49.800   5.702  16.564  0.00  0.00    +0.000 OA
ATOM     25  H   UNL     1      46.736   5.347  17.280  0.00  0.00    +0.000 HD
BRANCH  23  26
ATOM     26  C   UNL     1      48.520   7.114  17.941  0.00  0.00    +0.000 A 
ATOM     27  C   UNL     1      48.474   6.902  19.314  0.00  0.00    +0.000 A 
ATOM     28  S   UNL     1      48.315   8.337  20.221  0.00  0.00    +0.000 S 
ATOM     29  C   UNL     1      48.241   9.285  18.810  0.00  0.00    +0.000 A 
ATOM     30  N   UNL     1      48.078  10.633  18.883  0.00  0.00    +0.000 NA
ATOM     31  C   UNL     1      48.003  11.223  17.736  0.00  0.00    +0.000 A 
ATOM     32  N   UNL     1      48.082  10.586  16.524  0.00  0.00    +0.000 N 
ATOM     33  C   UNL     1      48.280   9.233  16.399  0.00  0.00    +0.000 A 
ATOM     34  O   UNL     1      48.402   8.702  15.308  0.00  0.00    +0.000 OA
ATOM     35  C   UNL     1      48.359   8.521  17.663  0.00  0.00    +0.000 A 
ATOM     36  H   UNL     1      48.030  11.108  15.663  0.00  0.00    +0.000 HD
ENDBRANCH  23  26
ENDBRANCH  21  22
ENDBRANCH   4  21
TORSDOF 7
ENDMDL
MODEL 5
REMARK VINA RESULT:    -8.126      4.943      9.725
REMARK INTER + INTRA:         -11.791
REMARK INTER:                 -10.646
REMARK INTRA:                  -1.145
REMARK UNBOUND:                -0.340
REMARK  Name = 
REMARK  8 active torsions:
REMARK  status: ('A' for Active; 'I' for Inactive)
REMARK    1  A    between atoms: C_1  and  C_2
REMARK    2  A    between atoms: C_2  and  C_3
REMARK    3  A    between atoms: C_3  and  N_4
REMARK    4  A    between atoms: C_3  and  C_13
REMARK    5  A    between atoms: C_5  and  C_7
REMARK    6  A    between atoms: C_16  and  C_17
REMARK    7  A    between atoms: C_17  and  N_18
REMARK    8  A    between atoms: C_19  and  C_21
REMARK                            x       y       z     vdW  Elec       q    Type
REMARK                         _______ _______ _______ _____ _____    ______ ____
ROOT
ATOM      1  C   UNL     1      51.455   3.155  17.686  0.00  0.00    +0.000 A 
ATOM      2  C   UNL     1      50.761   4.375  17.766  0.00  0.00    +0.000 A 
ATOM      3  C   UNL     1      49.404   4.462  17.435  0.00  0.00    +0.000 A 
ATOM      4  C   UNL     1      48.702   3.331  17.004  0.00  0.00    +0.000 A 
ATOM      5  C   UNL     1      49.417   2.143  16.802  0.00  0.00    +0.000 A 
ATOM      6  C   UNL     1      50.771   2.051  17.156  0.00  0.00    +0.000 A 
ENDROOT
BRANCH   1   7
ATOM      7  C   UNL     1      52.877   3.087  18.238  0.00  0.00    +0.000 C 
BRANCH   7   8
ATOM      8  N   UNL     1      53.554   1.891  17.711  0.00  0.00    +0.000 N 
ATOM      9  C   UNL     1      54.272   1.038  18.522  0.00  0.00    +0.000 C 
ATOM     10  O   UNL     1      54.398   1.242  19.730  0.00  0.00    +0.000 OA
ATOM     11  H   UNL     1      53.656   1.767  16.711  0.00  0.00    +0.000 HD
BRANCH   9  12
ATOM     12  C   UNL     1      54.891  -0.226  17.866  0.00  0.00    +0.000 C 
ATOM     13  C   UNL     1      55.045  -0.026  16.352  0.00  0.00    +0.000 C 
ATOM     14  C   UNL     1      55.734  -1.223  15.698  0.00  0.00    +0.000 C 
ATOM     15  C   UNL     1      55.034  -2.523  16.076  0.00  0.00    +0.000 C 
ATOM     16  C   UNL     1      54.838  -2.631  17.589  0.00  0.00    +0.000 C 
ATOM     17  N   UNL     1      54.126  -1.467  18.152  0.00  0.00    +0.000 NA
ATOM     18  H   UNL     1      54.091  -1.588  19.167  0.00  0.00    +0.000 HD
ENDBRANCH   9  12
ENDBRANCH   7   8
BRANCH   7  20
ATOM     19  C   UNL     1      54.136   5.031  19.338  0.00  0.00    +0.000 C 
ATOM     20  C   UNL     1      53.740   4.351  18.030  0.00  0.00    +0.000 C 
ENDBRANCH   7  20
ENDBRANCH   1   7
BRANCH   4  21
ATOM     21  C   UNL     1      47.205   3.375  16.825  0.00  0.00    +0.000 C 
BRANCH  21  22
ATOM     22  N   UNL     1      46.777   4.379  15.889  0.00  0.00    +0.000 N 
ATOM     23  C   UNL     1      46.819   4.128  14.537  0.00  0.00    +0.000 C 
ATOM     24  O   UNL     1      47.159   3.036  14.088  0.00  0.00    +0.000 OA
ATOM     25  H   UNL     1      46.735   5.339  16.219  0.00  0.00    +0.000 HD
BRANCH  23  26
ATOM     26  C   UNL     1      46.382   5.212  13.650  0.00  0.00    +0.000 A 
ATOM     27  C   UNL     1      47.226   6.291  13.415  0.00  0.00    +0.000 A 
ATOM     28  S   UNL     1      46.586   7.433  12.322  0.00  0.00    +0.000 S 
ATOM     29  C   UNL     1      45.135   6.556  12.171  0.00  0.00    +0.000 A 
ATOM     30  N   UNL     1      44.124   7.009  11.385  0.00  0.00    +0.000 NA
ATOM     31  C   UNL     1      43.069   6.265  11.391  0.00  0.00    +0.000 A 
ATOM     32  N   UNL     1      42.938   5.104  12.110  0.00  0.00    +0.000 N 
ATOM     33  C   UNL     1      43.942   4.587  12.891  0.00  0.00    +0.000 A 
ATOM     34  O   UNL     1      43.816   3.524  13.475  0.00  0.00    +0.000 OA
ATOM     35  C   UNL     1      45.147   5.397  12.927  0.00  0.00    +0.000 A 
ATOM     36  H   UNL     1      42.090   4.560  12.060  0.00  0.00    +0.000 HD
ENDBRANCH  23  26
ENDBRANCH  21  22
ENDBRANCH   4  21
TORSDOF 7
ENDMDL
MODEL 6
REMARK VINA RESULT:    -7.818      2.495      3.354
REMARK INTER + INTRA:         -11.358
REMARK INTER:                 -10.194
REMARK INTRA:                  -1.163
REMARK UNBOUND:                -0.340
REMARK  Name = 
REMARK  8 active torsions:
REMARK  status: ('A' for Active; 'I' for Inactive)
REMARK    1  A    between atoms: C_1  and  C_2
REMARK    2  A    between atoms: C_2  and  C_3
REMARK    3  A    between atoms: C_3  and  N_4
REMARK    4  A    between atoms: C_3  and  C_13
REMARK    5  A    between atoms: C_5  and  C_7
REMARK    6  A    between atoms: C_16  and  C_17
REMARK    7  A    between atoms: C_17  and  N_18
REMARK    8  A    between atoms: C_19  and  C_21
REMARK                            x       y       z     vdW  Elec       q    Type
REMARK                         _______ _______ _______ _____ _____    ______ ____
ROOT
ATOM      1  C   UNL     1      45.849   5.475  12.201  0.00  0.00    +0.000 A 
ATOM      2  C   UNL     1      46.285   4.905  13.409  0.00  0.00    +0.000 A 
ATOM      3  C   UNL     1      47.238   5.543  14.212  0.00  0.00    +0.000 A 
ATOM      4  C   UNL     1      47.792   6.767  13.823  0.00  0.00    +0.000 A 
ATOM      5  C   UNL     1      47.457   7.277  12.561  0.00  0.00    +0.000 A 
ATOM      6  C   UNL     1      46.484   6.649  11.769  0.00  0.00    +0.000 A 
ENDROOT
BRANCH   1   7
ATOM      7  C   UNL     1      44.676   4.827  11.468  0.00  0.00    +0.000 C 
BRANCH   7   8
ATOM      8  N   UNL     1      45.183   3.978  10.379  0.00  0.00    +0.000 N 
ATOM      9  C   UNL     1      44.630   3.997   9.116  0.00  0.00    +0.000 C 
ATOM     10  O   UNL     1      43.670   4.716   8.838  0.00  0.00    +0.000 OA
ATOM     11  H   UNL     1      45.835   3.230  10.583  0.00  0.00    +0.000 HD
BRANCH   9  12
ATOM     12  C   UNL     1      45.288   3.103   8.030  0.00  0.00    +0.000 C 
ATOM     13  C   UNL     1      45.968   1.888   8.672  0.00  0.00    +0.000 C 
ATOM     14  C   UNL     1      46.546   0.948   7.615  0.00  0.00    +0.000 C 
ATOM     15  C   UNL     1      47.442   1.710   6.646  0.00  0.00    +0.000 C 
ATOM     16  C   UNL     1      46.740   2.952   6.098  0.00  0.00    +0.000 C 
ATOM     17  N   UNL     1      46.246   3.842   7.168  0.00  0.00    +0.000 NA
ATOM     18  H   UNL     1      45.740   4.610   6.722  0.00  0.00    +0.000 HD
ENDBRANCH   9  12
ENDBRANCH   7   8
BRANCH   7  20
ATOM     19  C   UNL     1      43.713   2.545  12.133  0.00  0.00    +0.000 C 
ATOM     20  C   UNL     1      43.674   4.055  12.354  0.00  0.00    +0.000 C 
ENDBRANCH   7  20
ENDBRANCH   1   7
BRANCH   4  21
ATOM     21  C   UNL     1      48.675   7.547  14.764  0.00  0.00    +0.000 C 
BRANCH  21  22
ATOM     22  N   UNL     1      49.743   6.761  15.320  0.00  0.00    +0.000 N 
ATOM     23  C   UNL     1      49.716   6.394  16.646  0.00  0.00    +0.000 C 
ATOM     24  O   UNL     1      48.767   6.667  17.376  0.00  0.00    +0.000 OA
ATOM     25  H   UNL     1      50.624   6.743  14.813  0.00  0.00    +0.000 HD
BRANCH  23  26
ATOM     26  C   UNL     1      50.853   5.609  17.137  0.00  0.00    +0.000 A 
ATOM     27  C   UNL     1      50.631   4.540  17.998  0.00  0.00    +0.000 A 
ATOM     28  S   UNL     1      52.053   3.705  18.431  0.00  0.00    +0.000 S 
ATOM     29  C   UNL     1      53.021   4.777  17.531  0.00  0.00    +0.000 A 
ATOM     30  N   UNL     1      54.373   4.637  17.498  0.00  0.00    +0.000 NA
ATOM     31  C   UNL     1      54.985   5.540  16.807  0.00  0.00    +0.000 A 
ATOM     32  N   UNL     1      54.366   6.567  16.142  0.00  0.00    +0.000 N 
ATOM     33  C   UNL     1      53.003   6.731  16.118  0.00  0.00    +0.000 A 
ATOM     34  O   UNL     1      52.477   7.623  15.472  0.00  0.00    +0.000 OA
ATOM     35  C   UNL     1      52.268   5.746  16.892  0.00  0.00    +0.000 A 
ATOM     36  H   UNL     1      54.902   7.233  15.608  0.00  0.00    +0.000 HD
ENDBRANCH  23  26
ENDBRANCH  21  22
ENDBRANCH   4  21
TORSDOF 7
ENDMDL
MODEL 7
REMARK VINA RESULT:    -7.675      3.448      4.801
REMARK INTER + INTRA:         -11.156
REMARK INTER:                  -9.840
REMARK INTRA:                  -1.316
REMARK UNBOUND:                -0.340
REMARK  Name = 
REMARK  8 active torsions:
REMARK  status: ('A' for Active; 'I' for Inactive)
REMARK    1  A    between atoms: C_1  and  C_2
REMARK    2  A    between atoms: C_2  and  C_3
REMARK    3  A    between atoms: C_3  and  N_4
REMARK    4  A    between atoms: C_3  and  C_13
REMARK    5  A    between atoms: C_5  and  C_7
REMARK    6  A    between atoms: C_16  and  C_17
REMARK    7  A    between atoms: C_17  and  N_18
REMARK    8  A    between atoms: C_19  and  C_21
REMARK                            x       y       z     vdW  Elec       q    Type
REMARK                         _______ _______ _______ _____ _____    ______ ____
ROOT
ATOM      1  C   UNL     1      45.859   5.232  12.291  0.00  0.00    +0.000 A 
ATOM      2  C   UNL     1      46.320   4.589  13.453  0.00  0.00    +0.000 A 
ATOM      3  C   UNL     1      47.306   5.166  14.262  0.00  0.00    +0.000 A 
ATOM      4  C   UNL     1      47.867   6.403  13.926  0.00  0.00    +0.000 A 
ATOM      5  C   UNL     1      47.505   6.988  12.705  0.00  0.00    +0.000 A 
ATOM      6  C   UNL     1      46.500   6.419  11.908  0.00  0.00    +0.000 A 
ENDROOT
BRANCH   1   7
ATOM      7  C   UNL     1      44.656   4.642  11.558  0.00  0.00    +0.000 C 
BRANCH   7   8
ATOM      8  N   UNL     1      45.120   3.807  10.439  0.00  0.00    +0.000 N 
ATOM      9  C   UNL     1      44.603   3.933   9.167  0.00  0.00    +0.000 C 
ATOM     10  O   UNL     1      43.713   4.742   8.904  0.00  0.00    +0.000 OA
ATOM     11  H   UNL     1      45.703   2.999  10.621  0.00  0.00    +0.000 HD
BRANCH   9  12
ATOM     12  C   UNL     1      45.214   3.040   8.053  0.00  0.00    +0.000 C 
ATOM     13  C   UNL     1      45.960   1.848   8.665  0.00  0.00    +0.000 C 
ATOM     14  C   UNL     1      46.494   0.908   7.586  0.00  0.00    +0.000 C 
ATOM     15  C   UNL     1      47.311   1.678   6.555  0.00  0.00    +0.000 C 
ATOM     16  C   UNL     1      46.549   2.898   6.038  0.00  0.00    +0.000 C 
ATOM     17  N   UNL     1      46.102   3.789   7.126  0.00  0.00    +0.000 NA
ATOM     18  H   UNL     1      45.552   4.541   6.703  0.00  0.00    +0.000 HD
ENDBRANCH   9  12
ENDBRANCH   7   8
BRANCH   7  20
ATOM     19  C   UNL     1      43.435   2.431  12.002  0.00  0.00    +0.000 C 
ATOM     20  C   UNL     1      43.641   3.880  12.438  0.00  0.00    +0.000 C 
ENDBRANCH   7  20
ENDBRANCH   1   7
BRANCH   4  21
ATOM     21  C   UNL     1      48.789   7.116  14.883  0.00  0.00    +0.000 C 
BRANCH  21  22
ATOM     22  N   UNL     1      50.085   7.388  14.323  0.00  0.00    +0.000 N 
ATOM     23  C   UNL     1      50.556   8.680  14.264  0.00  0.00    +0.000 C 
ATOM     24  O   UNL     1      49.926   9.624  14.733  0.00  0.00    +0.000 OA
ATOM     25  H   UNL     1      50.495   6.678  13.724  0.00  0.00    +0.000 HD
BRANCH  23  26
ATOM     26  C   UNL     1      51.879   8.873  13.661  0.00  0.00    +0.000 A 
ATOM     27  C   UNL     1      52.904   9.435  14.414  0.00  0.00    +0.000 A 
ATOM     28  S   UNL     1      54.387   9.540  13.579  0.00  0.00    +0.000 S 
ATOM     29  C   UNL     1      53.697   8.894  12.163  0.00  0.00    +0.000 A 
ATOM     30  N   UNL     1      54.438   8.738  11.035  0.00  0.00    +0.000 NA
ATOM     31  C   UNL     1      53.781   8.271  10.026  0.00  0.00    +0.000 A 
ATOM     32  N   UNL     1      52.449   7.940  10.048  0.00  0.00    +0.000 N 
ATOM     33  C   UNL     1      51.668   8.048  11.172  0.00  0.00    +0.000 A 
ATOM     34  O   UNL     1      50.500   7.695  11.175  0.00  0.00    +0.000 OA
ATOM     35  C   UNL     1      52.360   8.582  12.332  0.00  0.00    +0.000 A 
ATOM     36  H   UNL     1      51.998   7.566   9.228  0.00  0.00    +0.000 HD
ENDBRANCH  23  26
ENDBRANCH  21  22
ENDBRANCH   4  21
TORSDOF 7
ENDMDL
MODEL 8
REMARK VINA RESULT:    -7.536      3.654      8.703
REMARK INTER + INTRA:         -10.959
REMARK INTER:                  -9.812
REMARK INTRA:                  -1.147
REMARK UNBOUND:                -0.340
REMARK  Name = 
REMARK  8 active torsions:
REMARK  status: ('A' for Active; 'I' for Inactive)
REMARK    1  A    between atoms: C_1  and  C_2
REMARK    2  A    between atoms: C_2  and  C_3
REMARK    3  A    between atoms: C_3  and  N_4
REMARK    4  A    between atoms: C_3  and  C_13
REMARK    5  A    between atoms: C_5  and  C_7
REMARK    6  A    between atoms: C_16  and  C_17
REMARK    7  A    between atoms: C_17  and  N_18
REMARK    8  A    between atoms: C_19  and  C_21
REMARK                            x       y       z     vdW  Elec       q    Type
REMARK                         _______ _______ _______ _____ _____    ______ ____
ROOT
ATOM      1  C   UNL     1      49.163   5.431  17.332  0.00  0.00    +0.000 A 
ATOM      2  C   UNL     1      48.056   5.126  16.520  0.00  0.00    +0.000 A 
ATOM      3  C   UNL     1      47.891   5.719  15.263  0.00  0.00    +0.000 A 
ATOM      4  C   UNL     1      48.825   6.644  14.784  0.00  0.00    +0.000 A 
ATOM      5  C   UNL     1      49.860   7.047  15.639  0.00  0.00    +0.000 A 
ATOM      6  C   UNL     1      50.037   6.434  16.889  0.00  0.00    +0.000 A 
ENDROOT
BRANCH   1   7
ATOM      7  C   UNL     1      49.384   4.614  18.603  0.00  0.00    +0.000 C 
BRANCH   7   8
ATOM      8  N   UNL     1      50.724   4.007  18.573  0.00  0.00    +0.000 N 
ATOM      9  C   UNL     1      50.990   2.854  17.865  0.00  0.00    +0.000 C 
ATOM     10  O   UNL     1      50.114   2.262  17.234  0.00  0.00    +0.000 OA
ATOM     11  H   UNL     1      51.437   4.325  19.218  0.00  0.00    +0.000 HD
BRANCH   9  12
ATOM     12  C   UNL     1      52.455   2.339  17.856  0.00  0.00    +0.000 C 
ATOM     13  C   UNL     1      52.510   0.877  17.393  0.00  0.00    +0.000 C 
ATOM     14  C   UNL     1      53.949   0.377  17.291  0.00  0.00    +0.000 C 
ATOM     15  C   UNL     1      54.705   0.636  18.589  0.00  0.00    +0.000 C 
ATOM     16  C   UNL     1      54.551   2.088  19.042  0.00  0.00    +0.000 C 
ATOM     17  N   UNL     1      53.138   2.496  19.166  0.00  0.00    +0.000 NA
ATOM     18  H   UNL     1      53.123   3.488  19.411  0.00  0.00    +0.000 HD
ENDBRANCH   9  12
ENDBRANCH   7   8
BRANCH   7  20
ATOM     19  C   UNL     1      47.726   5.916  20.063  0.00  0.00    +0.000 C 
ATOM     20  C   UNL     1      49.142   5.362  19.933  0.00  0.00    +0.000 C 
ENDBRANCH   7  20
ENDBRANCH   1   7
BRANCH   4  21
ATOM     21  C   UNL     1      48.754   7.145  13.363  0.00  0.00    +0.000 C 
BRANCH  21  22
ATOM     22  N   UNL     1      47.965   6.303  12.505  0.00  0.00    +0.000 N 
ATOM     23  C   UNL     1      46.672   6.654  12.191  0.00  0.00    +0.000 C 
ATOM     24  O   UNL     1      46.173   7.709  12.573  0.00  0.00    +0.000 OA
ATOM     25  H   UNL     1      48.265   5.340  12.391  0.00  0.00    +0.000 HD
BRANCH  23  26
ATOM     26  C   UNL     1      45.930   5.731  11.325  0.00  0.00    +0.000 A 
ATOM     27  C   UNL     1      46.014   5.865   9.943  0.00  0.00    +0.000 A 
ATOM     28  S   UNL     1      45.134   4.681   9.088  0.00  0.00    +0.000 S 
ATOM     29  C   UNL     1      44.562   3.985  10.532  0.00  0.00    +0.000 A 
ATOM     30  N   UNL     1      43.718   2.920  10.507  0.00  0.00    +0.000 NA
ATOM     31  C   UNL     1      43.334   2.517  11.672  0.00  0.00    +0.000 A 
ATOM     32  N   UNL     1      43.725   3.080  12.860  0.00  0.00    +0.000 N 
ATOM     33  C   UNL     1      44.602   4.133  12.939  0.00  0.00    +0.000 A 
ATOM     34  O   UNL     1      44.974   4.578  14.012  0.00  0.00    +0.000 OA
ATOM     35  C   UNL     1      45.053   4.633  11.651  0.00  0.00    +0.000 A 
ATOM     36  H   UNL     1      43.400   2.707  13.739  0.00  0.00    +0.000 HD
ENDBRANCH  23  26
ENDBRANCH  21  22
ENDBRANCH   4  21
TORSDOF 7
ENDMDL
MODEL 9
REMARK VINA RESULT:    -7.501      2.923      8.474
REMARK INTER + INTRA:         -10.911
REMARK INTER:                  -9.477
REMARK INTRA:                  -1.434
REMARK UNBOUND:                -0.340
REMARK  Name = 
REMARK  8 active torsions:
REMARK  status: ('A' for Active; 'I' for Inactive)
REMARK    1  A    between atoms: C_1  and  C_2
REMARK    2  A    between atoms: C_2  and  C_3
REMARK    3  A    between atoms: C_3  and  N_4
REMARK    4  A    between atoms: C_3  and  C_13
REMARK    5  A    between atoms: C_5  and  C_7
REMARK    6  A    between atoms: C_16  and  C_17
REMARK    7  A    between atoms: C_17  and  N_18
REMARK    8  A    between atoms: C_19  and  C_21
REMARK                            x       y       z     vdW  Elec       q    Type
REMARK                         _______ _______ _______ _____ _____    ______ ____
ROOT
ATOM      1  C   UNL     1      49.514   8.199  15.739  0.00  0.00    +0.000 A 
ATOM      2  C   UNL     1      48.252   8.751  15.462  0.00  0.00    +0.000 A 
ATOM      3  C   UNL     1      47.723   8.743  14.166  0.00  0.00    +0.000 A 
ATOM      4  C   UNL     1      48.447   8.189  13.105  0.00  0.00    +0.000 A 
ATOM      5  C   UNL     1      49.756   7.752  13.350  0.00  0.00    +0.000 A 
ATOM      6  C   UNL     1      50.275   7.740  14.654  0.00  0.00    +0.000 A 
ENDROOT
BRANCH   1   7
ATOM      7  C   UNL     1      49.952   8.070  17.196  0.00  0.00    +0.000 C 
BRANCH   7   8
ATOM      8  N   UNL     1      50.422   6.699  17.451  0.00  0.00    +0.000 N 
ATOM      9  C   UNL     1      49.562   5.684  17.811  0.00  0.00    +0.000 C 
ATOM     10  O   UNL     1      48.354   5.875  17.952  0.00  0.00    +0.000 OA
ATOM     11  H   UNL     1      51.414   6.515  17.543  0.00  0.00    +0.000 HD
BRANCH   9  12
ATOM     12  C   UNL     1      50.163   4.264  17.994  0.00  0.00    +0.000 C 
ATOM     13  C   UNL     1      51.696   4.326  18.011  0.00  0.00    +0.000 C 
ATOM     14  C   UNL     1      52.308   2.952  18.278  0.00  0.00    +0.000 C 
ATOM     15  C   UNL     1      51.749   1.914  17.313  0.00  0.00    +0.000 C 
ATOM     16  C   UNL     1      50.220   1.951  17.280  0.00  0.00    +0.000 C 
ATOM     17  N   UNL     1      49.693   3.294  16.971  0.00  0.00    +0.000 NA
ATOM     18  H   UNL     1      48.674   3.246  17.028  0.00  0.00    +0.000 HD
ENDBRANCH   9  12
ENDBRANCH   7   8
BRANCH   7  20
ATOM     19  C   UNL     1      50.459  10.545  17.638  0.00  0.00    +0.000 C 
ATOM     20  C   UNL     1      50.983   9.112  17.683  0.00  0.00    +0.000 C 
ENDBRANCH   7  20
ENDBRANCH   1   7
BRANCH   4  21
ATOM     21  C   UNL     1      47.812   8.009  11.749  0.00  0.00    +0.000 C 
BRANCH  21  22
ATOM     22  N   UNL     1      47.087   6.773  11.623  0.00  0.00    +0.000 N 
ATOM     23  C   UNL     1      45.718   6.758  11.751  0.00  0.00    +0.000 C 
ATOM     24  O   UNL     1      45.068   7.787  11.915  0.00  0.00    +0.000 OA
ATOM     25  H   UNL     1      47.612   5.911  11.736  0.00  0.00    +0.000 HD
BRANCH  23  26
ATOM     26  C   UNL     1      45.058   5.453  11.627  0.00  0.00    +0.000 A 
ATOM     27  C   UNL     1      44.377   4.920  12.715  0.00  0.00    +0.000 A 
ATOM     28  S   UNL     1      43.626   3.425  12.385  0.00  0.00    +0.000 S 
ATOM     29  C   UNL     1      44.235   3.409  10.796  0.00  0.00    +0.000 A 
ATOM     30  N   UNL     1      43.978   2.368   9.960  0.00  0.00    +0.000 NA
ATOM     31  C   UNL     1      44.531   2.469   8.797  0.00  0.00    +0.000 A 
ATOM     32  N   UNL     1      45.313   3.522   8.394  0.00  0.00    +0.000 N 
ATOM     33  C   UNL     1      45.573   4.611   9.189  0.00  0.00    +0.000 A 
ATOM     34  O   UNL     1      46.226   5.558   8.783  0.00  0.00    +0.000 OA
ATOM     35  C   UNL     1      44.982   4.539  10.514  0.00  0.00    +0.000 A 
ATOM     36  H   UNL     1      45.704   3.547   7.465  0.00  0.00    +0.000 HD
ENDBRANCH  23  26
ENDBRANCH  21  22
ENDBRANCH   4  21
TORSDOF 7
ENDMDL
