MODEL 1
REMARK VINA RESULT:    -7.958      0.000      0.000
REMARK INTER + INTRA:         -11.013
REMARK INTER:                 -10.516
REMARK INTRA:                  -0.497
REMARK UNBOUND:                -0.497
REMARK  Name = 
REMARK  6 active torsions:
REMARK  status: ('A' for Active; 'I' for Inactive)
REMARK    1  A    between atoms: N_1  and  C_2
REMARK    2  A    between atoms: C_2  and  C_3
REMARK    3  A    between atoms: C_6  and  C_7
REMARK    4  A    between atoms: C_7  and  O_8
REMARK    5  A    between atoms: O_8  and  C_9
REMARK    6  A    between atoms: C_12  and  C_13
REMARK                            x       y       z     vdW  Elec       q    Type
REMARK                         _______ _______ _______ _____ _____    ______ ____
ROOT
ATOM      1  O   UNL     1      44.384   5.541  10.657  0.00  0.00    +0.000 OA
ENDROOT
BRANCH   1   2
ATOM      2  C   UNL     1      45.199   5.350  11.732  0.00  0.00    +0.000 A 
ATOM      3  C   UNL     1      46.368   6.046  12.026  0.00  0.00    +0.000 A 
ATOM      4  C   UNL     1      47.086   5.728  13.181  0.00  0.00    +0.000 A 
ATOM      5  C   UNL     1      46.602   4.718  14.007  0.00  0.00    +0.000 A 
ATOM      6  N   UNL     1      45.469   4.010  13.751  0.00  0.00    +0.000 NA
ATOM      7  C   UNL     1      44.805   4.349  12.618  0.00  0.00    +0.000 A 
BRANCH   5   8
ATOM      8  C   UNL     1      47.336   4.373  15.266  0.00  0.00    +0.000 C 
ATOM      9  N   UNL     1      47.721   5.440  16.033  0.00  0.00    +0.000 N 
ATOM     10  O   UNL     1      47.587   3.220  15.591  0.00  0.00    +0.000 OA
ATOM     11  H   UNL     1      47.503   6.381  15.723  0.00  0.00    +0.000 HD
ATOM     12  H   UNL     1      48.236   5.284  16.885  0.00  0.00    +0.000 HD
ENDBRANCH   5   8
ENDBRANCH   1   2
BRANCH   1  13
ATOM     13  C   UNL     1      43.791   4.385  10.062  0.00  0.00    +0.000 C 
BRANCH  13  17
ATOM     14  C   UNL     1      46.665   2.344   7.525  0.00  0.00    +0.000 A 
ATOM     15  C   UNL     1      46.546   3.739   7.482  0.00  0.00    +0.000 A 
ATOM     16  C   UNL     1      45.632   4.404   8.303  0.00  0.00    +0.000 A 
ATOM     17  C   UNL     1      44.798   3.688   9.173  0.00  0.00    +0.000 A 
ATOM     18  C   UNL     1      44.944   2.295   9.243  0.00  0.00    +0.000 A 
ATOM     19  C   UNL     1      45.864   1.630   8.425  0.00  0.00    +0.000 A 
BRANCH  14  20
ATOM     20  C   UNL     1      47.606   1.624   6.592  0.00  0.00    +0.000 C 
BRANCH  20  21
ATOM     21  N   UNL     1      48.703   2.481   6.158  0.00  0.00    +0.000 NA
ATOM     22  H   UNL     1      49.553   1.925   6.093  0.00  0.00    +0.000 HD
ATOM     23  H   UNL     1      48.872   3.184   6.876  0.00  0.00    +0.000 HD
ENDBRANCH  20  21
ENDBRANCH  14  20
ENDBRANCH  13  17
ENDBRANCH   1  13
TORSDOF 6
ENDMDL
MODEL 2
REMARK VINA RESULT:    -7.548      2.246      6.370
REMARK INTER + INTRA:         -10.472
REMARK INTER:                  -9.848
REMARK INTRA:                  -0.624
REMARK UNBOUND:                -0.497
REMARK  Name = 
REMARK  6 active torsions:
REMARK  status: ('A' for Active; 'I' for Inactive)
REMARK    1  A    between atoms: N_1  and  C_2
REMARK    2  A    between atoms: C_2  and  C_3
REMARK    3  A    between atoms: C_6  and  C_7
REMARK    4  A    between atoms: C_7  and  O_8
REMARK    5  A    between atoms: O_8  and  C_9
REMARK    6  A    between atoms: C_12  and  C_13
REMARK                            x       y       z     vdW  Elec       q    Type
REMARK                         _______ _______ _______ _____ _____    ______ ____
ROOT
ATOM      1  O   UNL     1      43.606   3.984  10.170  0.00  0.00    +0.000 OA
ENDROOT
BRANCH   1   2
ATOM      2  C   UNL     1      44.545   3.454   9.337  0.00  0.00    +0.000 A 
ATOM      3  C   UNL     1      44.950   2.125   9.277  0.00  0.00    +0.000 A 
ATOM      4  C   UNL     1      45.926   1.744   8.352  0.00  0.00    +0.000 A 
ATOM      5  C   UNL     1      46.460   2.716   7.512  0.00  0.00    +0.000 A 
ATOM      6  N   UNL     1      46.096   4.026   7.545  0.00  0.00    +0.000 NA
ATOM      7  C   UNL     1      45.150   4.353   8.459  0.00  0.00    +0.000 A 
BRANCH   5   8
ATOM      8  C   UNL     1      47.488   2.332   6.493  0.00  0.00    +0.000 C 
ATOM      9  N   UNL     1      47.426   3.018   5.310  0.00  0.00    +0.000 N 
ATOM     10  O   UNL     1      48.323   1.459   6.691  0.00  0.00    +0.000 OA
ATOM     11  H   UNL     1      46.712   3.726   5.181  0.00  0.00    +0.000 HD
ATOM     12  H   UNL     1      48.075   2.799   4.570  0.00  0.00    +0.000 HD
ENDBRANCH   5   8
ENDBRANCH   1   2
BRANCH   1  13
ATOM     13  C   UNL     1      43.699   3.664  11.561  0.00  0.00    +0.000 C 
BRANCH  13  17
ATOM     14  C   UNL     1      46.999   5.819  13.384  0.00  0.00    +0.000 A 
ATOM     15  C   UNL     1      46.031   6.504  12.637  0.00  0.00    +0.000 A 
ATOM     16  C   UNL     1      44.960   5.819  12.057  0.00  0.00    +0.000 A 
ATOM     17  C   UNL     1      44.842   4.429  12.191  0.00  0.00    +0.000 A 
ATOM     18  C   UNL     1      45.790   3.750  12.970  0.00  0.00    +0.000 A 
ATOM     19  C   UNL     1      46.859   4.436  13.556  0.00  0.00    +0.000 A 
BRANCH  14  20
ATOM     20  C   UNL     1      48.188   6.550  13.954  0.00  0.00    +0.000 C 
BRANCH  20  21
ATOM     21  N   UNL     1      49.287   6.630  13.000  0.00  0.00    +0.000 NA
ATOM     22  H   UNL     1      48.922   6.481  12.061  0.00  0.00    +0.000 HD
ATOM     23  H   UNL     1      49.936   5.867  13.183  0.00  0.00    +0.000 HD
ENDBRANCH  20  21
ENDBRANCH  14  20
ENDBRANCH  13  17
ENDBRANCH   1  13
TORSDOF 6
ENDMDL
MODEL 3
REMARK VINA RESULT:    -7.474      1.444      1.948
REMARK INTER + INTRA:         -10.374
REMARK INTER:                  -9.805
REMARK INTRA:                  -0.569
REMARK UNBOUND:                -0.497
REMARK  Name = 
REMARK  6 active torsions:
REMARK  status: ('A' for Active; 'I' for Inactive)
REMARK    1  A    between atoms: N_1  and  C_2
REMARK    2  A    between atoms: C_2  and  C_3
REMARK    3  A    between atoms: C_6  and  C_7
REMARK    4  A    between atoms: C_7  and  O_8
REMARK    5  A    between atoms: O_8  and  C_9
REMARK    6  A    between atoms: C_12  and  C_13
REMARK                            x       y       z     vdW  Elec       q    Type
REMARK                         _______ _______ _______ _____ _____    ______ ____
ROOT
ATOM      1  O   UNL     1      44.106   4.292  11.571  0.00  0.00    +0.000 OA
ENDROOT
BRANCH   1   2
ATOM      2  C   UNL     1      45.102   5.057  12.100  0.00  0.00    +0.000 A 
ATOM      3  C   UNL     1      45.535   6.296  11.638  0.00  0.00    +0.000 A 
ATOM      4  C   UNL     1      46.571   6.955  12.306  0.00  0.00    +0.000 A 
ATOM      5  C   UNL     1      47.135   6.346  13.422  0.00  0.00    +0.000 A 
ATOM      6  N   UNL     1      46.745   5.134  13.900  0.00  0.00    +0.000 NA
ATOM      7  C   UNL     1      45.740   4.528  13.221  0.00  0.00    +0.000 A 
BRANCH   5   8
ATOM      8  C   UNL     1      48.228   7.042  14.174  0.00  0.00    +0.000 C 
ATOM      9  N   UNL     1      47.826   8.087  14.960  0.00  0.00    +0.000 N 
ATOM     10  O   UNL     1      49.404   6.710  14.089  0.00  0.00    +0.000 OA
ATOM     11  H   UNL     1      46.844   8.337  14.994  0.00  0.00    +0.000 HD
ATOM     12  H   UNL     1      48.511   8.614  15.480  0.00  0.00    +0.000 HD
ENDBRANCH   5   8
ENDBRANCH   1   2
BRANCH   1  13
ATOM     13  C   UNL     1      43.775   4.495  10.195  0.00  0.00    +0.000 C 
BRANCH  13  17
ATOM     14  C   UNL     1      46.544   2.322   7.653  0.00  0.00    +0.000 A 
ATOM     15  C   UNL     1      45.712   1.634   8.546  0.00  0.00    +0.000 A 
ATOM     16  C   UNL     1      44.810   2.325   9.359  0.00  0.00    +0.000 A 
ATOM     17  C   UNL     1      44.734   3.724   9.314  0.00  0.00    +0.000 A 
ATOM     18  C   UNL     1      45.539   4.408   8.394  0.00  0.00    +0.000 A 
ATOM     19  C   UNL     1      46.438   3.716   7.576  0.00  0.00    +0.000 A 
BRANCH  14  20
ATOM     20  C   UNL     1      47.561   1.579   6.823  0.00  0.00    +0.000 C 
BRANCH  20  21
ATOM     21  N   UNL     1      48.595   2.467   6.306  0.00  0.00    +0.000 NA
ATOM     22  H   UNL     1      49.129   2.845   7.086  0.00  0.00    +0.000 HD
ATOM     23  H   UNL     1      48.146   3.260   5.851  0.00  0.00    +0.000 HD
ENDBRANCH  20  21
ENDBRANCH  14  20
ENDBRANCH  13  17
ENDBRANCH   1  13
TORSDOF 6
ENDMDL
MODEL 4
REMARK VINA RESULT:    -7.469      2.014      2.692
REMARK INTER + INTRA:         -10.367
REMARK INTER:                 -10.012
REMARK INTRA:                  -0.355
REMARK UNBOUND:                -0.497
REMARK  Name = 
REMARK  6 active torsions:
REMARK  status: ('A' for Active; 'I' for Inactive)
REMARK    1  A    between atoms: N_1  and  C_2
REMARK    2  A    between atoms: C_2  and  C_3
REMARK    3  A    between atoms: C_6  and  C_7
REMARK    4  A    between atoms: C_7  and  O_8
REMARK    5  A    between atoms: O_8  and  C_9
REMARK    6  A    between atoms: C_12  and  C_13
REMARK                            x       y       z     vdW  Elec       q    Type
REMARK                         _______ _______ _______ _____ _____    ______ ____
ROOT
ATOM      1  O   UNL     1      44.981   3.216  11.588  0.00  0.00    +0.000 OA
ENDROOT
BRANCH   1   2
ATOM      2  C   UNL     1      45.262   4.473  12.033  0.00  0.00    +0.000 A 
ATOM      3  C   UNL     1      46.300   4.842  12.883  0.00  0.00    +0.000 A 
ATOM      4  C   UNL     1      46.453   6.185  13.237  0.00  0.00    +0.000 A 
ATOM      5  C   UNL     1      45.557   7.115  12.721  0.00  0.00    +0.000 A 
ATOM      6  N   UNL     1      44.526   6.792  11.894  0.00  0.00    +0.000 NA
ATOM      7  C   UNL     1      44.412   5.479  11.578  0.00  0.00    +0.000 A 
BRANCH   5   8
ATOM      8  C   UNL     1      45.713   8.565  13.061  0.00  0.00    +0.000 C 
ATOM      9  N   UNL     1      46.675   8.849  13.992  0.00  0.00    +0.000 N 
ATOM     10  O   UNL     1      45.025   9.442  12.554  0.00  0.00    +0.000 OA
ATOM     11  H   UNL     1      47.217   8.093  14.397  0.00  0.00    +0.000 HD
ATOM     12  H   UNL     1      46.823   9.803  14.284  0.00  0.00    +0.000 HD
ENDBRANCH   5   8
ENDBRANCH   1   2
BRANCH   1  13
ATOM     13  C   UNL     1      44.149   3.094  10.431  0.00  0.00    +0.000 C 
BRANCH  13  17
ATOM     14  C   UNL     1      46.608   2.729   6.870  0.00  0.00    +0.000 A 
ATOM     15  C   UNL     1      46.094   3.975   7.253  0.00  0.00    +0.000 A 
ATOM     16  C   UNL     1      45.311   4.103   8.404  0.00  0.00    +0.000 A 
ATOM     17  C   UNL     1      45.006   2.983   9.188  0.00  0.00    +0.000 A 
ATOM     18  C   UNL     1      45.552   1.743   8.827  0.00  0.00    +0.000 A 
ATOM     19  C   UNL     1      46.339   1.616   7.678  0.00  0.00    +0.000 A 
BRANCH  14  20
ATOM     20  C   UNL     1      47.398   2.583   5.594  0.00  0.00    +0.000 C 
BRANCH  20  21
ATOM     21  N   UNL     1      48.567   1.730   5.773  0.00  0.00    +0.000 NA
ATOM     22  H   UNL     1      48.270   0.838   6.163  0.00  0.00    +0.000 HD
ATOM     23  H   UNL     1      49.181   2.158   6.463  0.00  0.00    +0.000 HD
ENDBRANCH  20  21
ENDBRANCH  14  20
ENDBRANCH  13  17
ENDBRANCH   1  13
TORSDOF 6
ENDMDL
MODEL 5
REMARK VINA RESULT:    -6.045      3.374      7.724
REMARK INTER + INTRA:          -8.486
REMARK INTER:                  -8.037
REMARK INTRA:                  -0.448
REMARK UNBOUND:                -0.497
REMARK  Name = 
REMARK  6 active torsions:
REMARK  status: ('A' for Active; 'I' for Inactive)
REMARK    1  A    between atoms: N_1  and  C_2
REMARK    2  A    between atoms: C_2  and  C_3
REMARK    3  A    between atoms: C_6  and  C_7
REMARK    4  A    between atoms: C_7  and  O_8
REMARK    5  A    between atoms: O_8  and  C_9
REMARK    6  A    between atoms: C_12  and  C_13
REMARK                            x       y       z     vdW  Elec       q    Type
REMARK                         _______ _______ _______ _____ _____    ______ ____
ROOT
ATOM      1  O   UNL     1      47.781   5.154  14.929  0.00  0.00    +0.000 OA
ENDROOT
BRANCH   1   2
ATOM      2  C   UNL     1      46.867   4.760  13.998  0.00  0.00    +0.000 A 
ATOM      3  C   UNL     1      46.671   3.468  13.519  0.00  0.00    +0.000 A 
ATOM      4  C   UNL     1      45.677   3.233  12.565  0.00  0.00    +0.000 A 
ATOM      5  C   UNL     1      44.910   4.307  12.125  0.00  0.00    +0.000 A 
ATOM      6  N   UNL     1      45.076   5.583  12.564  0.00  0.00    +0.000 NA
ATOM      7  C   UNL     1      46.052   5.768  13.486  0.00  0.00    +0.000 A 
BRANCH   5   8
ATOM      8  C   UNL     1      43.820   4.079  11.124  0.00  0.00    +0.000 C 
ATOM      9  N   UNL     1      43.767   4.984  10.098  0.00  0.00    +0.000 N 
ATOM     10  O   UNL     1      43.021   3.155  11.213  0.00  0.00    +0.000 OA
ATOM     11  H   UNL     1      44.440   5.741  10.066  0.00  0.00    +0.000 HD
ATOM     12  H   UNL     1      43.047   4.904   9.397  0.00  0.00    +0.000 HD
ENDBRANCH   5   8
ENDBRANCH   1   2
BRANCH   1  13
ATOM     13  C   UNL     1      47.604   4.689  16.269  0.00  0.00    +0.000 C 
BRANCH  13  17
ATOM     14  C   UNL     1      51.120   2.481  17.544  0.00  0.00    +0.000 A 
ATOM     15  C   UNL     1      51.066   3.874  17.688  0.00  0.00    +0.000 A 
ATOM     16  C   UNL     1      49.934   4.590  17.291  0.00  0.00    +0.000 A 
ATOM     17  C   UNL     1      48.836   3.933  16.720  0.00  0.00    +0.000 A 
ATOM     18  C   UNL     1      48.875   2.536  16.611  0.00  0.00    +0.000 A 
ATOM     19  C   UNL     1      50.006   1.818  17.014  0.00  0.00    +0.000 A 
BRANCH  14  20
ATOM     20  C   UNL     1      52.367   1.718  17.914  0.00  0.00    +0.000 C 
BRANCH  20  21
ATOM     21  N   UNL     1      52.092   0.305  18.142  0.00  0.00    +0.000 NA
ATOM     22  H   UNL     1      51.114   0.119  17.932  0.00  0.00    +0.000 HD
ATOM     23  H   UNL     1      52.219   0.102  19.132  0.00  0.00    +0.000 HD
ENDBRANCH  20  21
ENDBRANCH  14  20
ENDBRANCH  13  17
ENDBRANCH   1  13
TORSDOF 6
ENDMDL
MODEL 6
REMARK VINA RESULT:    -5.714      2.066      3.364
REMARK INTER + INTRA:          -8.047
REMARK INTER:                  -7.712
REMARK INTRA:                  -0.335
REMARK UNBOUND:                -0.497
REMARK  Name = 
REMARK  6 active torsions:
REMARK  status: ('A' for Active; 'I' for Inactive)
REMARK    1  A    between atoms: N_1  and  C_2
REMARK    2  A    between atoms: C_2  and  C_3
REMARK    3  A    between atoms: C_6  and  C_7
REMARK    4  A    between atoms: C_7  and  O_8
REMARK    5  A    between atoms: O_8  and  C_9
REMARK    6  A    between atoms: C_12  and  C_13
REMARK                            x       y       z     vdW  Elec       q    Type
REMARK                         _______ _______ _______ _____ _____    ______ ____
ROOT
ATOM      1  O   UNL     1      46.874   6.150  13.349  0.00  0.00    +0.000 OA
ENDROOT
BRANCH   1   2
ATOM      2  C   UNL     1      47.394   5.540  14.451  0.00  0.00    +0.000 A 
ATOM      3  C   UNL     1      48.180   6.130  15.435  0.00  0.00    +0.000 A 
ATOM      4  C   UNL     1      48.627   5.359  16.512  0.00  0.00    +0.000 A 
ATOM      5  C   UNL     1      48.265   4.016  16.563  0.00  0.00    +0.000 A 
ATOM      6  N   UNL     1      47.505   3.403  15.618  0.00  0.00    +0.000 NA
ATOM      7  C   UNL     1      47.095   4.186  14.590  0.00  0.00    +0.000 A 
BRANCH   5   8
ATOM      8  C   UNL     1      48.707   3.172  17.719  0.00  0.00    +0.000 C 
ATOM      9  N   UNL     1      47.872   3.176  18.803  0.00  0.00    +0.000 N 
ATOM     10  O   UNL     1      49.748   2.527  17.706  0.00  0.00    +0.000 OA
ATOM     11  H   UNL     1      47.025   3.733  18.778  0.00  0.00    +0.000 HD
ATOM     12  H   UNL     1      48.116   2.646  19.625  0.00  0.00    +0.000 HD
ENDBRANCH   5   8
ENDBRANCH   1   2
BRANCH   1  13
ATOM     13  C   UNL     1      45.500   5.901  13.041  0.00  0.00    +0.000 C 
BRANCH  13  17
ATOM     14  C   UNL     1      45.201   4.046   9.125  0.00  0.00    +0.000 A 
ATOM     15  C   UNL     1      44.667   3.410  10.254  0.00  0.00    +0.000 A 
ATOM     16  C   UNL     1      44.749   4.006  11.516  0.00  0.00    +0.000 A 
ATOM     17  C   UNL     1      45.386   5.243  11.682  0.00  0.00    +0.000 A 
ATOM     18  C   UNL     1      45.886   5.896  10.547  0.00  0.00    +0.000 A 
ATOM     19  C   UNL     1      45.799   5.303   9.283  0.00  0.00    +0.000 A 
BRANCH  14  20
ATOM     20  C   UNL     1      45.167   3.372   7.777  0.00  0.00    +0.000 C 
BRANCH  20  21
ATOM     21  N   UNL     1      46.284   3.785   6.935  0.00  0.00    +0.000 NA
ATOM     22  H   UNL     1      46.511   3.029   6.291  0.00  0.00    +0.000 HD
ATOM     23  H   UNL     1      47.104   3.920   7.523  0.00  0.00    +0.000 HD
ENDBRANCH  20  21
ENDBRANCH  14  20
ENDBRANCH  13  17
ENDBRANCH   1  13
TORSDOF 6
ENDMDL
MODEL 7
REMARK VINA RESULT:    -5.628      2.690      4.769
REMARK INTER + INTRA:          -7.934
REMARK INTER:                  -7.628
REMARK INTRA:                  -0.306
REMARK UNBOUND:                -0.497
REMARK  Name = 
REMARK  6 active torsions:
REMARK  status: ('A' for Active; 'I' for Inactive)
REMARK    1  A    between atoms: N_1  and  C_2
REMARK    2  A    between atoms: C_2  and  C_3
REMARK    3  A    between atoms: C_6  and  C_7
REMARK    4  A    between atoms: C_7  and  O_8
REMARK    5  A    between atoms: O_8  and  C_9
REMARK    6  A    between atoms: C_12  and  C_13
REMARK                            x       y       z     vdW  Elec       q    Type
REMARK                         _______ _______ _______ _____ _____    ______ ____
ROOT
ATOM      1  O   UNL     1      47.149   3.859  14.646  0.00  0.00    +0.000 OA
ENDROOT
BRANCH   1   2
ATOM      2  C   UNL     1      47.632   3.907  15.919  0.00  0.00    +0.000 A 
ATOM      3  C   UNL     1      47.812   2.832  16.784  0.00  0.00    +0.000 A 
ATOM      4  C   UNL     1      48.329   3.056  18.062  0.00  0.00    +0.000 A 
ATOM      5  C   UNL     1      48.652   4.359  18.429  0.00  0.00    +0.000 A 
ATOM      6  N   UNL     1      48.484   5.436  17.616  0.00  0.00    +0.000 NA
ATOM      7  C   UNL     1      47.977   5.175  16.387  0.00  0.00    +0.000 A 
BRANCH   5   8
ATOM      8  C   UNL     1      49.234   4.626  19.783  0.00  0.00    +0.000 C 
ATOM      9  N   UNL     1      50.589   4.461  19.883  0.00  0.00    +0.000 N 
ATOM     10  O   UNL     1      48.550   4.961  20.742  0.00  0.00    +0.000 OA
ATOM     11  H   UNL     1      51.118   4.171  19.068  0.00  0.00    +0.000 HD
ATOM     12  H   UNL     1      51.047   4.604  20.770  0.00  0.00    +0.000 HD
ENDBRANCH   5   8
ENDBRANCH   1   2
BRANCH   1  13
ATOM     13  C   UNL     1      46.466   5.013  14.152  0.00  0.00    +0.000 C 
BRANCH  13  17
ATOM     14  C   UNL     1      45.027   4.306  10.116  0.00  0.00    +0.000 A 
ATOM     15  C   UNL     1      44.924   3.305  11.091  0.00  0.00    +0.000 A 
ATOM     16  C   UNL     1      45.375   3.529  12.396  0.00  0.00    +0.000 A 
ATOM     17  C   UNL     1      45.958   4.752  12.750  0.00  0.00    +0.000 A 
ATOM     18  C   UNL     1      46.026   5.767  11.785  0.00  0.00    +0.000 A 
ATOM     19  C   UNL     1      45.570   5.544  10.481  0.00  0.00    +0.000 A 
BRANCH  14  20
ATOM     20  C   UNL     1      44.600   4.040   8.695  0.00  0.00    +0.000 C 
BRANCH  20  21
ATOM     21  N   UNL     1      45.717   4.140   7.763  0.00  0.00    +0.000 NA
ATOM     22  H   UNL     1      46.066   5.096   7.765  0.00  0.00    +0.000 HD
ATOM     23  H   UNL     1      45.374   3.959   6.821  0.00  0.00    +0.000 HD
ENDBRANCH  20  21
ENDBRANCH  14  20
ENDBRANCH  13  17
ENDBRANCH   1  13
TORSDOF 6
ENDMDL
MODEL 8
REMARK VINA RESULT:    -5.585      4.001      8.213
REMARK INTER + INTRA:          -7.877
REMARK INTER:                  -7.478
REMARK INTRA:                  -0.399
REMARK UNBOUND:                -0.497
REMARK  Name = 
REMARK  6 active torsions:
REMARK  status: ('A' for Active; 'I' for Inactive)
REMARK    1  A    between atoms: N_1  and  C_2
REMARK    2  A    between atoms: C_2  and  C_3
REMARK    3  A    between atoms: C_6  and  C_7
REMARK    4  A    between atoms: C_7  and  O_8
REMARK    5  A    between atoms: O_8  and  C_9
REMARK    6  A    between atoms: C_12  and  C_13
REMARK                            x       y       z     vdW  Elec       q    Type
REMARK                         _______ _______ _______ _____ _____    ______ ____
ROOT
ATOM      1  O   UNL     1      48.202   5.606  13.957  0.00  0.00    +0.000 OA
ENDROOT
BRANCH   1   2
ATOM      2  C   UNL     1      46.971   5.570  13.373  0.00  0.00    +0.000 A 
ATOM      3  C   UNL     1      46.410   6.544  12.554  0.00  0.00    +0.000 A 
ATOM      4  C   UNL     1      45.131   6.345  12.025  0.00  0.00    +0.000 A 
ATOM      5  C   UNL     1      44.459   5.168  12.338  0.00  0.00    +0.000 A 
ATOM      6  N   UNL     1      44.971   4.196  13.140  0.00  0.00    +0.000 NA
ATOM      7  C   UNL     1      46.212   4.431  13.634  0.00  0.00    +0.000 A 
BRANCH   5   8
ATOM      8  C   UNL     1      43.099   4.915  11.765  0.00  0.00    +0.000 C 
ATOM      9  N   UNL     1      42.244   5.983  11.790  0.00  0.00    +0.000 N 
ATOM     10  O   UNL     1      42.764   3.828  11.311  0.00  0.00    +0.000 OA
ATOM     11  H   UNL     1      42.556   6.863  12.185  0.00  0.00    +0.000 HD
ATOM     12  H   UNL     1      41.304   5.880  11.438  0.00  0.00    +0.000 HD
ENDBRANCH   5   8
ENDBRANCH   1   2
BRANCH   1  13
ATOM     13  C   UNL     1      48.497   6.714  14.812  0.00  0.00    +0.000 C 
BRANCH  13  17
ATOM     14  C   UNL     1      48.910   5.395  18.929  0.00  0.00    +0.000 A 
ATOM     15  C   UNL     1      48.469   4.505  17.940  0.00  0.00    +0.000 A 
ATOM     16  C   UNL     1      48.344   4.919  16.611  0.00  0.00    +0.000 A 
ATOM     17  C   UNL     1      48.637   6.239  16.242  0.00  0.00    +0.000 A 
ATOM     18  C   UNL     1      49.115   7.118  17.225  0.00  0.00    +0.000 A 
ATOM     19  C   UNL     1      49.246   6.702  18.554  0.00  0.00    +0.000 A 
BRANCH  14  20
ATOM     20  C   UNL     1      48.983   4.964  20.372  0.00  0.00    +0.000 C 
BRANCH  20  21
ATOM     21  N   UNL     1      48.427   3.631  20.571  0.00  0.00    +0.000 NA
ATOM     22  H   UNL     1      48.518   3.376  21.552  0.00  0.00    +0.000 HD
ATOM     23  H   UNL     1      48.987   2.962  20.045  0.00  0.00    +0.000 HD
ENDBRANCH  20  21
ENDBRANCH  14  20
ENDBRANCH  13  17
ENDBRANCH   1  13
TORSDOF 6
ENDMDL
