MODEL 1
REMARK VINA RESULT:    -8.157      0.000      0.000
REMARK INTER + INTRA:         -12.550
REMARK INTER:                 -11.495
REMARK INTRA:                  -1.055
REMARK UNBOUND:                -1.055
REMARK  Name = 
REMARK  10 active torsions:
REMARK  status: ('A' for Active; 'I' for Inactive)
REMARK    1  A    between atoms: C_1  and  C_2
REMARK    2  A    between atoms: C_4  and  C_5
REMARK    3  A    between atoms: C_9  and  C_10
REMARK    4  A    between atoms: C_10  and  C_11
REMARK    5  A    between atoms: C_10  and  C_12
REMARK    6  A    between atoms: C_10  and  C_13
REMARK    7  A    between atoms: C_13  and  N_14
REMARK    8  A    between atoms: N_14  and  C_15
REMARK    9  A    between atoms: C_18  and  C_19
REMARK   10  A    between atoms: C_22  and  C_23
REMARK                            x       y       z     vdW  Elec       q    Type
REMARK                         _______ _______ _______ _____ _____    ______ ____
ROOT
ATOM      1  C   UNL     1      46.849   6.104  13.504  0.00  0.00    +0.000 C 
ENDROOT
BRANCH   1   2
ATOM      2  C   UNL     1      46.391   6.888  12.235  0.00  0.00    +0.000 C 
ATOM      3  C   UNL     1      47.649   7.227  11.395  0.00  0.00    +0.000 C 
ATOM      4  C   UNL     1      45.681   8.195  12.646  0.00  0.00    +0.000 C 
BRANCH   2   9
ATOM      5  C   UNL     1      45.202   4.390   9.512  0.00  0.00    +0.000 A 
ATOM      6  C   UNL     1      43.848   4.257   9.851  0.00  0.00    +0.000 A 
ATOM      7  C   UNL     1      43.281   5.018  10.874  0.00  0.00    +0.000 A 
ATOM      8  C   UNL     1      44.068   5.896  11.619  0.00  0.00    +0.000 A 
ATOM      9  C   UNL     1      45.437   6.042  11.351  0.00  0.00    +0.000 A 
ATOM     10  C   UNL     1      45.959   5.316  10.259  0.00  0.00    +0.000 A 
BRANCH   5  14
ATOM     11  C   UNL     1      46.677  -0.068   7.702  0.00  0.00    +0.000 C 
ATOM     12  C   UNL     1      46.528   1.417   7.564  0.00  0.00    +0.000 A 
ATOM     13  C   UNL     1      45.935   2.170   8.573  0.00  0.00    +0.000 A 
ATOM     14  C   UNL     1      45.825   3.566   8.449  0.00  0.00    +0.000 A 
ATOM     15  C   UNL     1      46.322   4.132   7.270  0.00  0.00    +0.000 A 
ATOM     16  C   UNL     1      46.882   3.310   6.304  0.00  0.00    +0.000 A 
ATOM     17  N   UNL     1      46.999   1.973   6.427  0.00  0.00    +0.000 NA
ENDBRANCH   5  14
ENDBRANCH   2   9
ENDBRANCH   1   2
BRANCH   1  18
ATOM     18  N   UNL     1      47.672   6.891  14.435  0.00  0.00    +0.000 N 
ATOM     19  H   UNL     1      47.166   7.677  14.833  0.00  0.00    +0.000 HD
BRANCH  18  20
ATOM     20  C   UNL     1      48.378   6.188  15.421  0.00  0.00    +0.000 A 
ATOM     21  C   UNL     1      49.643   6.600  15.825  0.00  0.00    +0.000 A 
ATOM     22  N   UNL     1      50.420   5.952  16.726  0.00  0.00    +0.000 NA
ATOM     23  C   UNL     1      49.946   4.770  17.232  0.00  0.00    +0.000 A 
ATOM     24  C   UNL     1      48.709   4.248  16.899  0.00  0.00    +0.000 A 
ATOM     25  C   UNL     1      47.939   4.982  15.969  0.00  0.00    +0.000 A 
BRANCH  23  26
ATOM     26  C   UNL     1      50.929   4.098  18.139  0.00  0.00    +0.000 C 
ATOM     27  N   UNL     1      50.785   4.405  19.470  0.00  0.00    +0.000 N 
ATOM     28  O   UNL     1      51.834   3.386  17.747  0.00  0.00    +0.000 OA
ATOM     29  H   UNL     1      50.208   5.201  19.720  0.00  0.00    +0.000 HD
ATOM     30  H   UNL     1      51.522   4.118  20.098  0.00  0.00    +0.000 HD
ENDBRANCH  23  26
BRANCH  24  31
ATOM     31  C   UNL     1      48.079   3.016  17.475  0.00  0.00    +0.000 C 
ATOM     32  F   UNL     1      48.149   2.815  18.809  0.00  0.00    +0.000 F 
ATOM     33  F   UNL     1      46.738   2.995  17.196  0.00  0.00    +0.000 F 
ATOM     34  F   UNL     1      48.570   1.881  16.894  0.00  0.00    +0.000 F 
ENDBRANCH  24  31
ENDBRANCH  18  20
ENDBRANCH   1  18
TORSDOF 7
ENDMDL
MODEL 2
REMARK VINA RESULT:    -7.809      1.332      2.501
REMARK INTER + INTRA:         -12.059
REMARK INTER:                 -10.649
REMARK INTRA:                  -1.410
REMARK UNBOUND:                -1.055
REMARK  Name = 
REMARK  10 active torsions:
REMARK  status: ('A' for Active; 'I' for Inactive)
REMARK    1  A    between atoms: C_1  and  C_2
REMARK    2  A    between atoms: C_4  and  C_5
REMARK    3  A    between atoms: C_9  and  C_10
REMARK    4  A    between atoms: C_10  and  C_11
REMARK    5  A    between atoms: C_10  and  C_12
REMARK    6  A    between atoms: C_10  and  C_13
REMARK    7  A    between atoms: C_13  and  N_14
REMARK    8  A    between atoms: N_14  and  C_15
REMARK    9  A    between atoms: C_18  and  C_19
REMARK   10  A    between atoms: C_22  and  C_23
REMARK                            x       y       z     vdW  Elec       q    Type
REMARK                         _______ _______ _______ _____ _____    ______ ____
ROOT
ATOM      1  C   UNL     1      48.685   8.316  14.234  0.00  0.00    +0.000 C 
ENDROOT
BRANCH   1   2
ATOM      2  C   UNL     1      48.643   8.223  12.677  0.00  0.00    +0.000 C 
ATOM      3  C   UNL     1      49.486   6.997  12.243  0.00  0.00    +0.000 C 
ATOM      4  C   UNL     1      49.239   9.503  12.054  0.00  0.00    +0.000 C 
BRANCH   2   9
ATOM      5  C   UNL     1      45.539   6.489  11.120  0.00  0.00    +0.000 A 
ATOM      6  C   UNL     1      44.541   7.432  11.405  0.00  0.00    +0.000 A 
ATOM      7  C   UNL     1      44.851   8.653  12.004  0.00  0.00    +0.000 A 
ATOM      8  C   UNL     1      46.163   8.942  12.378  0.00  0.00    +0.000 A 
ATOM      9  C   UNL     1      47.197   8.022  12.153  0.00  0.00    +0.000 A 
ATOM     10  C   UNL     1      46.860   6.831  11.476  0.00  0.00    +0.000 A 
BRANCH   5  14
ATOM     11  C   UNL     1      45.734   3.269   7.257  0.00  0.00    +0.000 C 
ATOM     12  C   UNL     1      45.323   3.611   8.658  0.00  0.00    +0.000 A 
ATOM     13  C   UNL     1      45.637   4.850   9.209  0.00  0.00    +0.000 A 
ATOM     14  C   UNL     1      45.222   5.175  10.513  0.00  0.00    +0.000 A 
ATOM     15  C   UNL     1      44.508   4.191  11.207  0.00  0.00    +0.000 A 
ATOM     16  C   UNL     1      44.253   2.975  10.593  0.00  0.00    +0.000 A 
ATOM     17  N   UNL     1      44.639   2.667   9.339  0.00  0.00    +0.000 NA
ENDBRANCH   5  14
ENDBRANCH   2   9
ENDBRANCH   1   2
BRANCH   1  18
ATOM     18  N   UNL     1      47.913   7.268  14.922  0.00  0.00    +0.000 N 
ATOM     19  H   UNL     1      47.303   6.756  14.290  0.00  0.00    +0.000 HD
BRANCH  18  20
ATOM     20  C   UNL     1      48.619   6.397  15.763  0.00  0.00    +0.000 A 
ATOM     21  C   UNL     1      49.961   6.616  16.054  0.00  0.00    +0.000 A 
ATOM     22  N   UNL     1      50.735   5.799  16.808  0.00  0.00    +0.000 NA
ATOM     23  C   UNL     1      50.167   4.639  17.268  0.00  0.00    +0.000 A 
ATOM     24  C   UNL     1      48.846   4.302  17.036  0.00  0.00    +0.000 A 
ATOM     25  C   UNL     1      48.087   5.206  16.258  0.00  0.00    +0.000 A 
BRANCH  23  26
ATOM     26  C   UNL     1      51.143   3.774  18.003  0.00  0.00    +0.000 C 
ATOM     27  N   UNL     1      51.410   4.174  19.289  0.00  0.00    +0.000 N 
ATOM     28  O   UNL     1      51.717   2.826  17.502  0.00  0.00    +0.000 OA
ATOM     29  H   UNL     1      51.129   5.108  19.571  0.00  0.00    +0.000 HD
ATOM     30  H   UNL     1      52.182   3.731  19.765  0.00  0.00    +0.000 HD
ENDBRANCH  23  26
BRANCH  24  31
ATOM     31  C   UNL     1      48.125   3.105  17.578  0.00  0.00    +0.000 C 
ATOM     32  F   UNL     1      48.172   2.868  18.907  0.00  0.00    +0.000 F 
ATOM     33  F   UNL     1      46.787   3.189  17.293  0.00  0.00    +0.000 F 
ATOM     34  F   UNL     1      48.535   1.952  16.971  0.00  0.00    +0.000 F 
ENDBRANCH  24  31
ENDBRANCH  18  20
ENDBRANCH   1  18
TORSDOF 7
ENDMDL
MODEL 3
REMARK VINA RESULT:    -7.444      4.019      8.224
REMARK INTER + INTRA:         -11.545
REMARK INTER:                 -10.157
REMARK INTRA:                  -1.388
REMARK UNBOUND:                -1.055
REMARK  Name = 
REMARK  10 active torsions:
REMARK  status: ('A' for Active; 'I' for Inactive)
REMARK    1  A    between atoms: C_1  and  C_2
REMARK    2  A    between atoms: C_4  and  C_5
REMARK    3  A    between atoms: C_9  and  C_10
REMARK    4  A    between atoms: C_10  and  C_11
REMARK    5  A    between atoms: C_10  and  C_12
REMARK    6  A    between atoms: C_10  and  C_13
REMARK    7  A    between atoms: C_13  and  N_14
REMARK    8  A    between atoms: N_14  and  C_15
REMARK    9  A    between atoms: C_18  and  C_19
REMARK   10  A    between atoms: C_22  and  C_23
REMARK                            x       y       z     vdW  Elec       q    Type
REMARK                         _______ _______ _______ _____ _____    ______ ____
ROOT
ATOM      1  C   UNL     1      48.349   7.927  11.875  0.00  0.00    +0.000 C 
ENDROOT
BRANCH   1   2
ATOM      2  C   UNL     1      49.197   8.950  12.693  0.00  0.00    +0.000 C 
ATOM      3  C   UNL     1      48.736  10.379  12.308  0.00  0.00    +0.000 C 
ATOM      4  C   UNL     1      50.695   8.786  12.358  0.00  0.00    +0.000 C 
BRANCH   2   9
ATOM      5  C   UNL     1      49.064   7.250  16.181  0.00  0.00    +0.000 A 
ATOM      6  C   UNL     1      48.907   8.369  17.012  0.00  0.00    +0.000 A 
ATOM      7  C   UNL     1      48.751   9.648  16.479  0.00  0.00    +0.000 A 
ATOM      8  C   UNL     1      48.798   9.849  15.100  0.00  0.00    +0.000 A 
ATOM      9  C   UNL     1      48.991   8.773  14.221  0.00  0.00    +0.000 A 
ATOM     10  C   UNL     1      49.066   7.484  14.790  0.00  0.00    +0.000 A 
BRANCH   5  14
ATOM     11  C   UNL     1      47.249   2.777  17.602  0.00  0.00    +0.000 C 
ATOM     12  C   UNL     1      48.395   3.724  17.408  0.00  0.00    +0.000 A 
ATOM     13  C   UNL     1      48.186   4.996  16.884  0.00  0.00    +0.000 A 
ATOM     14  C   UNL     1      49.262   5.889  16.732  0.00  0.00    +0.000 A 
ATOM     15  C   UNL     1      50.523   5.422  17.117  0.00  0.00    +0.000 A 
ATOM     16  C   UNL     1      50.650   4.134  17.613  0.00  0.00    +0.000 A 
ATOM     17  N   UNL     1      49.618   3.282  17.771  0.00  0.00    +0.000 NA
ENDBRANCH   5  14
ENDBRANCH   2   9
ENDBRANCH   1   2
BRANCH   1  18
ATOM     18  N   UNL     1      46.895   8.137  11.970  0.00  0.00    +0.000 N 
ATOM     19  H   UNL     1      46.572   8.899  11.381  0.00  0.00    +0.000 HD
BRANCH  18  20
ATOM     20  C   UNL     1      46.074   7.010  11.839  0.00  0.00    +0.000 A 
ATOM     21  C   UNL     1      45.341   6.529  12.919  0.00  0.00    +0.000 A 
ATOM     22  N   UNL     1      44.568   5.417  12.900  0.00  0.00    +0.000 NA
ATOM     23  C   UNL     1      44.556   4.677  11.746  0.00  0.00    +0.000 A 
ATOM     24  C   UNL     1      45.251   5.042  10.607  0.00  0.00    +0.000 A 
ATOM     25  C   UNL     1      46.023   6.224  10.687  0.00  0.00    +0.000 A 
BRANCH  23  26
ATOM     26  C   UNL     1      43.747   3.424  11.876  0.00  0.00    +0.000 C 
ATOM     27  N   UNL     1      44.348   2.425  12.601  0.00  0.00    +0.000 N 
ATOM     28  O   UNL     1      42.670   3.256  11.335  0.00  0.00    +0.000 OA
ATOM     29  H   UNL     1      45.340   2.502  12.795  0.00  0.00    +0.000 HD
ATOM     30  H   UNL     1      43.925   1.508  12.573  0.00  0.00    +0.000 HD
ENDBRANCH  23  26
BRANCH  24  31
ATOM     31  C   UNL     1      45.218   4.344   9.282  0.00  0.00    +0.000 C 
ATOM     32  F   UNL     1      44.066   4.351   8.575  0.00  0.00    +0.000 F 
ATOM     33  F   UNL     1      46.142   4.894   8.434  0.00  0.00    +0.000 F 
ATOM     34  F   UNL     1      45.588   3.034   9.393  0.00  0.00    +0.000 F 
ENDBRANCH  24  31
ENDBRANCH  18  20
ENDBRANCH   1  18
TORSDOF 7
ENDMDL
MODEL 4
REMARK VINA RESULT:    -7.249      4.209      8.059
REMARK INTER + INTRA:         -11.270
REMARK INTER:                  -9.300
REMARK INTRA:                  -1.970
REMARK UNBOUND:                -1.055
REMARK  Name = 
REMARK  10 active torsions:
REMARK  status: ('A' for Active; 'I' for Inactive)
REMARK    1  A    between atoms: C_1  and  C_2
REMARK    2  A    between atoms: C_4  and  C_5
REMARK    3  A    between atoms: C_9  and  C_10
REMARK    4  A    between atoms: C_10  and  C_11
REMARK    5  A    between atoms: C_10  and  C_12
REMARK    6  A    between atoms: C_10  and  C_13
REMARK    7  A    between atoms: C_13  and  N_14
REMARK    8  A    between atoms: N_14  and  C_15
REMARK    9  A    between atoms: C_18  and  C_19
REMARK   10  A    between atoms: C_22  and  C_23
REMARK                            x       y       z     vdW  Elec       q    Type
REMARK                         _______ _______ _______ _____ _____    ______ ____
ROOT
ATOM      1  C   UNL     1      48.714   8.976  13.526  0.00  0.00    +0.000 C 
ENDROOT
BRANCH   1   2
ATOM      2  C   UNL     1      49.426   9.499  14.812  0.00  0.00    +0.000 C 
ATOM      3  C   UNL     1      49.165  11.023  14.924  0.00  0.00    +0.000 C 
ATOM      4  C   UNL     1      50.945   9.244  14.720  0.00  0.00    +0.000 C 
BRANCH   2   9
ATOM      5  C   UNL     1      48.439   6.708  17.323  0.00  0.00    +0.000 A 
ATOM      6  C   UNL     1      48.132   7.473  18.458  0.00  0.00    +0.000 A 
ATOM      7  C   UNL     1      48.144   8.866  18.415  0.00  0.00    +0.000 A 
ATOM      8  C   UNL     1      48.513   9.533  17.246  0.00  0.00    +0.000 A 
ATOM      9  C   UNL     1      48.868   8.821  16.092  0.00  0.00    +0.000 A 
ATOM     10  C   UNL     1      48.769   7.414  16.148  0.00  0.00    +0.000 A 
BRANCH   5  14
ATOM     11  C   UNL     1      50.953   2.349  17.325  0.00  0.00    +0.000 C 
ATOM     12  C   UNL     1      49.668   3.120  17.377  0.00  0.00    +0.000 A 
ATOM     13  C   UNL     1      49.672   4.511  17.343  0.00  0.00    +0.000 A 
ATOM     14  C   UNL     1      48.461   5.227  17.362  0.00  0.00    +0.000 A 
ATOM     15  C   UNL     1      47.287   4.470  17.432  0.00  0.00    +0.000 A 
ATOM     16  C   UNL     1      47.369   3.087  17.481  0.00  0.00    +0.000 A 
ATOM     17  N   UNL     1      48.528   2.399  17.450  0.00  0.00    +0.000 NA
ENDBRANCH   5  14
ENDBRANCH   2   9
ENDBRANCH   1   2
BRANCH   1  18
ATOM     18  N   UNL     1      47.300   9.369  13.417  0.00  0.00    +0.000 N 
ATOM     19  H   UNL     1      47.182  10.284  12.989  0.00  0.00    +0.000 HD
BRANCH  18  20
ATOM     20  C   UNL     1      46.413   8.433  12.868  0.00  0.00    +0.000 A 
ATOM     21  C   UNL     1      45.468   8.813  11.921  0.00  0.00    +0.000 A 
ATOM     22  N   UNL     1      44.537   7.992  11.380  0.00  0.00    +0.000 NA
ATOM     23  C   UNL     1      44.483   6.705  11.848  0.00  0.00    +0.000 A 
ATOM     24  C   UNL     1      45.359   6.209  12.798  0.00  0.00    +0.000 A 
ATOM     25  C   UNL     1      46.321   7.112  13.307  0.00  0.00    +0.000 A 
BRANCH  23  26
ATOM     26  C   UNL     1      43.356   5.923  11.251  0.00  0.00    +0.000 C 
ATOM     27  N   UNL     1      42.117   6.213  11.768  0.00  0.00    +0.000 N 
ATOM     28  O   UNL     1      43.506   5.047  10.419  0.00  0.00    +0.000 OA
ATOM     29  H   UNL     1      42.070   6.737  12.635  0.00  0.00    +0.000 HD
ATOM     30  H   UNL     1      41.354   5.598  11.525  0.00  0.00    +0.000 HD
ENDBRANCH  23  26
BRANCH  24  31
ATOM     31  C   UNL     1      45.429   4.797  13.292  0.00  0.00    +0.000 C 
ATOM     32  F   UNL     1      44.292   4.202  13.716  0.00  0.00    +0.000 F 
ATOM     33  F   UNL     1      45.898   3.971  12.304  0.00  0.00    +0.000 F 
ATOM     34  F   UNL     1      46.331   4.663  14.310  0.00  0.00    +0.000 F 
ENDBRANCH  24  31
ENDBRANCH  18  20
ENDBRANCH   1  18
TORSDOF 7
ENDMDL
MODEL 5
REMARK VINA RESULT:    -7.031      4.413      8.619
REMARK INTER + INTRA:         -10.963
REMARK INTER:                  -9.756
REMARK INTRA:                  -1.207
REMARK UNBOUND:                -1.055
REMARK  Name = 
REMARK  10 active torsions:
REMARK  status: ('A' for Active; 'I' for Inactive)
REMARK    1  A    between atoms: C_1  and  C_2
REMARK    2  A    between atoms: C_4  and  C_5
REMARK    3  A    between atoms: C_9  and  C_10
REMARK    4  A    between atoms: C_10  and  C_11
REMARK    5  A    between atoms: C_10  and  C_12
REMARK    6  A    between atoms: C_10  and  C_13
REMARK    7  A    between atoms: C_13  and  N_14
REMARK    8  A    between atoms: N_14  and  C_15
REMARK    9  A    between atoms: C_18  and  C_19
REMARK   10  A    between atoms: C_22  and  C_23
REMARK                            x       y       z     vdW  Elec       q    Type
REMARK                         _______ _______ _______ _____ _____    ______ ____
ROOT
ATOM      1  C   UNL     1      48.551   7.139  14.326  0.00  0.00    +0.000 C 
ENDROOT
BRANCH   1   2
ATOM      2  C   UNL     1      49.111   8.210  15.314  0.00  0.00    +0.000 C 
ATOM      3  C   UNL     1      47.913   9.004  15.895  0.00  0.00    +0.000 C 
ATOM      4  C   UNL     1      50.055   9.176  14.569  0.00  0.00    +0.000 C 
BRANCH   2   9
ATOM      5  C   UNL     1      50.781   5.477  17.508  0.00  0.00    +0.000 A 
ATOM      6  C   UNL     1      51.463   6.272  18.442  0.00  0.00    +0.000 A 
ATOM      7  C   UNL     1      51.330   7.660  18.443  0.00  0.00    +0.000 A 
ATOM      8  C   UNL     1      50.548   8.294  17.478  0.00  0.00    +0.000 A 
ATOM      9  C   UNL     1      49.873   7.556  16.496  0.00  0.00    +0.000 A 
ATOM     10  C   UNL     1      49.968   6.149  16.572  0.00  0.00    +0.000 A 
BRANCH   5  14
ATOM     11  C   UNL     1      53.578   1.339  18.117  0.00  0.00    +0.000 C 
ATOM     12  C   UNL     1      52.277   2.002  17.778  0.00  0.00    +0.000 A 
ATOM     13  C   UNL     1      52.152   3.388  17.822  0.00  0.00    +0.000 A 
ATOM     14  C   UNL     1      50.937   4.004  17.474  0.00  0.00    +0.000 A 
ATOM     15  C   UNL     1      49.886   3.156  17.108  0.00  0.00    +0.000 A 
ATOM     16  C   UNL     1      50.086   1.784  17.108  0.00  0.00    +0.000 A 
ATOM     17  N   UNL     1      51.254   1.193  17.429  0.00  0.00    +0.000 NA
ENDBRANCH   5  14
ENDBRANCH   2   9
ENDBRANCH   1   2
BRANCH   1  18
ATOM     18  N   UNL     1      47.249   7.485  13.735  0.00  0.00    +0.000 N 
ATOM     19  H   UNL     1      47.331   8.164  12.984  0.00  0.00    +0.000 HD
BRANCH  18  20
ATOM     20  C   UNL     1      46.405   6.427  13.374  0.00  0.00    +0.000 A 
ATOM     21  C   UNL     1      46.745   5.110  13.665  0.00  0.00    +0.000 A 
ATOM     22  N   UNL     1      46.021   4.023  13.306  0.00  0.00    +0.000 NA
ATOM     23  C   UNL     1      44.901   4.235  12.544  0.00  0.00    +0.000 A 
ATOM     24  C   UNL     1      44.464   5.496  12.178  0.00  0.00    +0.000 A 
ATOM     25  C   UNL     1      45.254   6.589  12.602  0.00  0.00    +0.000 A 
BRANCH  23  26
ATOM     26  C   UNL     1      44.240   2.959  12.127  0.00  0.00    +0.000 C 
ATOM     27  N   UNL     1      44.613   2.496  10.889  0.00  0.00    +0.000 N 
ATOM     28  O   UNL     1      43.387   2.393  12.784  0.00  0.00    +0.000 OA
ATOM     29  H   UNL     1      45.106   3.129  10.268  0.00  0.00    +0.000 HD
ATOM     30  H   UNL     1      44.075   1.741  10.491  0.00  0.00    +0.000 HD
ENDBRANCH  23  26
BRANCH  24  31
ATOM     31  C   UNL     1      43.207   5.820  11.431  0.00  0.00    +0.000 C 
ATOM     32  F   UNL     1      42.019   5.520  12.001  0.00  0.00    +0.000 F 
ATOM     33  F   UNL     1      43.136   7.165  11.182  0.00  0.00    +0.000 F 
ATOM     34  F   UNL     1      43.192   5.240  10.194  0.00  0.00    +0.000 F 
ENDBRANCH  24  31
ENDBRANCH  18  20
ENDBRANCH   1  18
TORSDOF 7
ENDMDL
MODEL 6
REMARK VINA RESULT:    -6.990      2.639      3.565
REMARK INTER + INTRA:         -10.905
REMARK INTER:                  -9.748
REMARK INTRA:                  -1.157
REMARK UNBOUND:                -1.055
REMARK  Name = 
REMARK  10 active torsions:
REMARK  status: ('A' for Active; 'I' for Inactive)
REMARK    1  A    between atoms: C_1  and  C_2
REMARK    2  A    between atoms: C_4  and  C_5
REMARK    3  A    between atoms: C_9  and  C_10
REMARK    4  A    between atoms: C_10  and  C_11
REMARK    5  A    between atoms: C_10  and  C_12
REMARK    6  A    between atoms: C_10  and  C_13
REMARK    7  A    between atoms: C_13  and  N_14
REMARK    8  A    between atoms: N_14  and  C_15
REMARK    9  A    between atoms: C_18  and  C_19
REMARK   10  A    between atoms: C_22  and  C_23
REMARK                            x       y       z     vdW  Elec       q    Type
REMARK                         _______ _______ _______ _____ _____    ______ ____
ROOT
ATOM      1  C   UNL     1      48.905   7.111  14.089  0.00  0.00    +0.000 C 
ENDROOT
BRANCH   1   2
ATOM      2  C   UNL     1      48.698   8.004  12.827  0.00  0.00    +0.000 C 
ATOM      3  C   UNL     1      49.688   7.531  11.732  0.00  0.00    +0.000 C 
ATOM      4  C   UNL     1      48.979   9.482  13.170  0.00  0.00    +0.000 C 
BRANCH   2   9
ATOM      5  C   UNL     1      45.581   6.444  11.117  0.00  0.00    +0.000 A 
ATOM      6  C   UNL     1      44.605   7.402  11.427  0.00  0.00    +0.000 A 
ATOM      7  C   UNL     1      44.936   8.581  12.093  0.00  0.00    +0.000 A 
ATOM      8  C   UNL     1      46.247   8.812  12.510  0.00  0.00    +0.000 A 
ATOM      9  C   UNL     1      47.258   7.873  12.262  0.00  0.00    +0.000 A 
ATOM     10  C   UNL     1      46.903   6.728  11.518  0.00  0.00    +0.000 A 
BRANCH   5  14
ATOM     11  C   UNL     1      45.851   3.376   7.137  0.00  0.00    +0.000 C 
ATOM     12  C   UNL     1      45.376   3.680   8.527  0.00  0.00    +0.000 A 
ATOM     13  C   UNL     1      45.713   4.880   9.146  0.00  0.00    +0.000 A 
ATOM     14  C   UNL     1      45.240   5.172  10.438  0.00  0.00    +0.000 A 
ATOM     15  C   UNL     1      44.443   4.197  11.049  0.00  0.00    +0.000 A 
ATOM     16  C   UNL     1      44.169   3.020  10.371  0.00  0.00    +0.000 A 
ATOM     17  N   UNL     1      44.611   2.744   9.128  0.00  0.00    +0.000 NA
ENDBRANCH   5  14
ENDBRANCH   2   9
ENDBRANCH   1   2
BRANCH   1  18
ATOM     18  N   UNL     1      48.274   7.637  15.310  0.00  0.00    +0.000 N 
ATOM     19  H   UNL     1      47.267   7.734  15.217  0.00  0.00    +0.000 HD
BRANCH  18  20
ATOM     20  C   UNL     1      48.616   7.026  16.524  0.00  0.00    +0.000 A 
ATOM     21  C   UNL     1      49.141   5.739  16.554  0.00  0.00    +0.000 A 
ATOM     22  N   UNL     1      49.446   5.050  17.680  0.00  0.00    +0.000 NA
ATOM     23  C   UNL     1      49.157   5.646  18.881  0.00  0.00    +0.000 A 
ATOM     24  C   UNL     1      48.622   6.917  18.984  0.00  0.00    +0.000 A 
ATOM     25  C   UNL     1      48.346   7.590  17.772  0.00  0.00    +0.000 A 
BRANCH  23  26
ATOM     26  C   UNL     1      49.446   4.754  20.048  0.00  0.00    +0.000 C 
ATOM     27  N   UNL     1      48.492   3.795  20.289  0.00  0.00    +0.000 N 
ATOM     28  O   UNL     1      50.408   4.890  20.780  0.00  0.00    +0.000 OA
ATOM     29  H   UNL     1      47.590   3.891  19.835  0.00  0.00    +0.000 HD
ATOM     30  H   UNL     1      48.552   3.285  21.158  0.00  0.00    +0.000 HD
ENDBRANCH  23  26
BRANCH  24  31
ATOM     31  C   UNL     1      48.365   7.674  20.251  0.00  0.00    +0.000 C 
ATOM     32  F   UNL     1      49.397   7.894  21.095  0.00  0.00    +0.000 F 
ATOM     33  F   UNL     1      47.884   8.925  19.967  0.00  0.00    +0.000 F 
ATOM     34  F   UNL     1      47.382   7.088  20.997  0.00  0.00    +0.000 F 
ENDBRANCH  24  31
ENDBRANCH  18  20
ENDBRANCH   1  18
TORSDOF 7
ENDMDL
MODEL 7
REMARK VINA RESULT:    -6.987      5.431      7.700
REMARK INTER + INTRA:         -10.901
REMARK INTER:                  -9.762
REMARK INTRA:                  -1.139
REMARK UNBOUND:                -1.055
REMARK  Name = 
REMARK  10 active torsions:
REMARK  status: ('A' for Active; 'I' for Inactive)
REMARK    1  A    between atoms: C_1  and  C_2
REMARK    2  A    between atoms: C_4  and  C_5
REMARK    3  A    between atoms: C_9  and  C_10
REMARK    4  A    between atoms: C_10  and  C_11
REMARK    5  A    between atoms: C_10  and  C_12
REMARK    6  A    between atoms: C_10  and  C_13
REMARK    7  A    between atoms: C_13  and  N_14
REMARK    8  A    between atoms: N_14  and  C_15
REMARK    9  A    between atoms: C_18  and  C_19
REMARK   10  A    between atoms: C_22  and  C_23
REMARK                            x       y       z     vdW  Elec       q    Type
REMARK                         _______ _______ _______ _____ _____    ______ ____
ROOT
ATOM      1  C   UNL     1      48.557   7.726  11.888  0.00  0.00    +0.000 C 
ENDROOT
BRANCH   1   2
ATOM      2  C   UNL     1      49.499   8.919  12.240  0.00  0.00    +0.000 C 
ATOM      3  C   UNL     1      49.415   9.168  13.767  0.00  0.00    +0.000 C 
ATOM      4  C   UNL     1      49.051  10.189  11.487  0.00  0.00    +0.000 C 
BRANCH   2   9
ATOM      5  C   UNL     1      52.613   7.922  10.146  0.00  0.00    +0.000 A 
ATOM      6  C   UNL     1      53.645   8.260  11.034  0.00  0.00    +0.000 A 
ATOM      7  C   UNL     1      53.369   8.714  12.323  0.00  0.00    +0.000 A 
ATOM      8  C   UNL     1      52.050   8.890  12.742  0.00  0.00    +0.000 A 
ATOM      9  C   UNL     1      50.977   8.606  11.885  0.00  0.00    +0.000 A 
ATOM     10  C   UNL     1      51.292   8.074  10.616  0.00  0.00    +0.000 A 
BRANCH   5  14
ATOM     11  C   UNL     1      53.379   4.243   6.799  0.00  0.00    +0.000 C 
ATOM     12  C   UNL     1      53.247   5.697   7.140  0.00  0.00    +0.000 A 
ATOM     13  C   UNL     1      52.982   6.101   8.445  0.00  0.00    +0.000 A 
ATOM     14  C   UNL     1      52.890   7.467   8.763  0.00  0.00    +0.000 A 
ATOM     15  C   UNL     1      53.059   8.369   7.707  0.00  0.00    +0.000 A 
ATOM     16  C   UNL     1      53.302   7.886   6.431  0.00  0.00    +0.000 A 
ATOM     17  N   UNL     1      53.404   6.576   6.127  0.00  0.00    +0.000 NA
ENDBRANCH   5  14
ENDBRANCH   2   9
ENDBRANCH   1   2
BRANCH   1  18
ATOM     18  N   UNL     1      47.123   8.033  12.011  0.00  0.00    +0.000 N 
ATOM     19  H   UNL     1      46.844   8.824  11.438  0.00  0.00    +0.000 HD
BRANCH  18  20
ATOM     20  C   UNL     1      46.224   6.967  11.878  0.00  0.00    +0.000 A 
ATOM     21  C   UNL     1      45.426   6.567  12.945  0.00  0.00    +0.000 A 
ATOM     22  N   UNL     1      44.573   5.515  12.925  0.00  0.00    +0.000 NA
ATOM     23  C   UNL     1      44.540   4.751  11.787  0.00  0.00    +0.000 A 
ATOM     24  C   UNL     1      45.294   5.037  10.663  0.00  0.00    +0.000 A 
ATOM     25  C   UNL     1      46.150   6.160  10.742  0.00  0.00    +0.000 A 
BRANCH  23  26
ATOM     26  C   UNL     1      43.637   3.565  11.918  0.00  0.00    +0.000 C 
ATOM     27  N   UNL     1      44.160   2.521  12.640  0.00  0.00    +0.000 N 
ATOM     28  O   UNL     1      42.548   3.481  11.381  0.00  0.00    +0.000 OA
ATOM     29  H   UNL     1      45.156   2.521  12.832  0.00  0.00    +0.000 HD
ATOM     30  H   UNL     1      43.667   1.640  12.613  0.00  0.00    +0.000 HD
ENDBRANCH  23  26
BRANCH  24  31
ATOM     31  C   UNL     1      45.248   4.312   9.353  0.00  0.00    +0.000 C 
ATOM     32  F   UNL     1      45.431   2.973   9.346  0.00  0.00    +0.000 F 
ATOM     33  F   UNL     1      44.029   4.493   8.754  0.00  0.00    +0.000 F 
ATOM     34  F   UNL     1      46.149   4.823   8.462  0.00  0.00    +0.000 F 
ENDBRANCH  24  31
ENDBRANCH  18  20
ENDBRANCH   1  18
TORSDOF 7
ENDMDL
MODEL 8
REMARK VINA RESULT:    -6.955      4.019      8.015
REMARK INTER + INTRA:         -10.855
REMARK INTER:                  -8.736
REMARK INTRA:                  -2.119
REMARK UNBOUND:                -1.055
REMARK  Name = 
REMARK  10 active torsions:
REMARK  status: ('A' for Active; 'I' for Inactive)
REMARK    1  A    between atoms: C_1  and  C_2
REMARK    2  A    between atoms: C_4  and  C_5
REMARK    3  A    between atoms: C_9  and  C_10
REMARK    4  A    between atoms: C_10  and  C_11
REMARK    5  A    between atoms: C_10  and  C_12
REMARK    6  A    between atoms: C_10  and  C_13
REMARK    7  A    between atoms: C_13  and  N_14
REMARK    8  A    between atoms: N_14  and  C_15
REMARK    9  A    between atoms: C_18  and  C_19
REMARK   10  A    between atoms: C_22  and  C_23
REMARK                            x       y       z     vdW  Elec       q    Type
REMARK                         _______ _______ _______ _____ _____    ______ ____
ROOT
ATOM      1  C   UNL     1      48.262   9.851  11.950  0.00  0.00    +0.000 C 
ENDROOT
BRANCH   1   2
ATOM      2  C   UNL     1      49.589   9.254  12.515  0.00  0.00    +0.000 C 
ATOM      3  C   UNL     1      50.745  10.222  12.156  0.00  0.00    +0.000 C 
ATOM      4  C   UNL     1      49.861   7.873  11.884  0.00  0.00    +0.000 C 
BRANCH   2   9
ATOM      5  C   UNL     1      49.587   7.597  16.026  0.00  0.00    +0.000 A 
ATOM      6  C   UNL     1      49.728   8.725  16.848  0.00  0.00    +0.000 A 
ATOM      7  C   UNL     1      49.732  10.012  16.313  0.00  0.00    +0.000 A 
ATOM      8  C   UNL     1      49.645  10.204  14.934  0.00  0.00    +0.000 A 
ATOM      9  C   UNL     1      49.541   9.113  14.060  0.00  0.00    +0.000 A 
ATOM     10  C   UNL     1      49.461   7.829  14.640  0.00  0.00    +0.000 A 
BRANCH   5  14
ATOM     11  C   UNL     1      47.271   3.280  17.174  0.00  0.00    +0.000 C 
ATOM     12  C   UNL     1      48.505   4.130  17.120  0.00  0.00    +0.000 A 
ATOM     13  C   UNL     1      48.458   5.418  16.595  0.00  0.00    +0.000 A 
ATOM     14  C   UNL     1      49.613   6.221  16.576  0.00  0.00    +0.000 A 
ATOM     15  C   UNL     1      50.782   5.650  17.089  0.00  0.00    +0.000 A 
ATOM     16  C   UNL     1      50.749   4.353  17.577  0.00  0.00    +0.000 A 
ATOM     17  N   UNL     1      49.641   3.587  17.608  0.00  0.00    +0.000 NA
ENDBRANCH   5  14
ENDBRANCH   2   9
ENDBRANCH   1   2
BRANCH   1  18
ATOM     18  N   UNL     1      47.081   9.599  12.791  0.00  0.00    +0.000 N 
ATOM     19  H   UNL     1      46.544  10.443  12.970  0.00  0.00    +0.000 HD
BRANCH  18  20
ATOM     20  C   UNL     1      46.247   8.534  12.426  0.00  0.00    +0.000 A 
ATOM     21  C   UNL     1      45.093   8.752  11.682  0.00  0.00    +0.000 A 
ATOM     22  N   UNL     1      44.200   7.794  11.334  0.00  0.00    +0.000 NA
ATOM     23  C   UNL     1      44.422   6.526  11.803  0.00  0.00    +0.000 A 
ATOM     24  C   UNL     1      45.526   6.184  12.563  0.00  0.00    +0.000 A 
ATOM     25  C   UNL     1      46.429   7.225  12.875  0.00  0.00    +0.000 A 
BRANCH  23  26
ATOM     26  C   UNL     1      43.323   5.578  11.437  0.00  0.00    +0.000 C 
ATOM     27  N   UNL     1      43.475   4.964  10.218  0.00  0.00    +0.000 N 
ATOM     28  O   UNL     1      42.330   5.398  12.118  0.00  0.00    +0.000 OA
ATOM     29  H   UNL     1      44.160   5.341   9.572  0.00  0.00    +0.000 HD
ATOM     30  H   UNL     1      42.686   4.453   9.851  0.00  0.00    +0.000 HD
ENDBRANCH  23  26
BRANCH  24  31
ATOM     31  C   UNL     1      45.890   4.809  13.035  0.00  0.00    +0.000 C 
ATOM     32  F   UNL     1      45.898   3.797  12.139  0.00  0.00    +0.000 F 
ATOM     33  F   UNL     1      47.155   4.808  13.561  0.00  0.00    +0.000 F 
ATOM     34  F   UNL     1      45.089   4.400  14.064  0.00  0.00    +0.000 F 
ENDBRANCH  24  31
ENDBRANCH  18  20
ENDBRANCH   1  18
TORSDOF 7
ENDMDL
MODEL 9
REMARK VINA RESULT:    -6.929      4.116      8.901
REMARK INTER + INTRA:         -10.819
REMARK INTER:                  -9.680
REMARK INTRA:                  -1.140
REMARK UNBOUND:                -1.055
REMARK  Name = 
REMARK  10 active torsions:
REMARK  status: ('A' for Active; 'I' for Inactive)
REMARK    1  A    between atoms: C_1  and  C_2
REMARK    2  A    between atoms: C_4  and  C_5
REMARK    3  A    between atoms: C_9  and  C_10
REMARK    4  A    between atoms: C_10  and  C_11
REMARK    5  A    between atoms: C_10  and  C_12
REMARK    6  A    between atoms: C_10  and  C_13
REMARK    7  A    between atoms: C_13  and  N_14
REMARK    8  A    between atoms: N_14  and  C_15
REMARK    9  A    between atoms: C_18  and  C_19
REMARK   10  A    between atoms: C_22  and  C_23
REMARK                            x       y       z     vdW  Elec       q    Type
REMARK                         _______ _______ _______ _____ _____    ______ ____
ROOT
ATOM      1  C   UNL     1      48.629   6.577  14.613  0.00  0.00    +0.000 C 
ENDROOT
BRANCH   1   2
ATOM      2  C   UNL     1      49.364   7.275  15.798  0.00  0.00    +0.000 C 
ATOM      3  C   UNL     1      48.563   8.545  16.183  0.00  0.00    +0.000 C 
ATOM      4  C   UNL     1      50.792   7.678  15.374  0.00  0.00    +0.000 C 
BRANCH   2   9
ATOM      5  C   UNL     1      50.500   4.399  18.145  0.00  0.00    +0.000 A 
ATOM      6  C   UNL     1      49.866   4.770  19.340  0.00  0.00    +0.000 A 
ATOM      7  C   UNL     1      49.010   5.869  19.393  0.00  0.00    +0.000 A 
ATOM      8  C   UNL     1      48.803   6.657  18.260  0.00  0.00    +0.000 A 
ATOM      9  C   UNL     1      49.439   6.357  17.047  0.00  0.00    +0.000 A 
ATOM     10  C   UNL     1      50.237   5.193  17.010  0.00  0.00    +0.000 A 
BRANCH   5  14
ATOM     11  C   UNL     1      54.927   2.275  19.244  0.00  0.00    +0.000 C 
ATOM     12  C   UNL     1      53.565   2.216  18.619  0.00  0.00    +0.000 A 
ATOM     13  C   UNL     1      52.700   3.303  18.696  0.00  0.00    +0.000 A 
ATOM     14  C   UNL     1      51.437   3.252  18.081  0.00  0.00    +0.000 A 
ATOM     15  C   UNL     1      51.109   2.063  17.420  0.00  0.00    +0.000 A 
ATOM     16  C   UNL     1      52.020   1.019  17.405  0.00  0.00    +0.000 A 
ATOM     17  N   UNL     1      53.236   1.071  17.983  0.00  0.00    +0.000 NA
ENDBRANCH   5  14
ENDBRANCH   2   9
ENDBRANCH   1   2
BRANCH   1  18
ATOM     18  N   UNL     1      47.903   7.499  13.725  0.00  0.00    +0.000 N 
ATOM     19  H   UNL     1      48.525   8.021  13.114  0.00  0.00    +0.000 HD
BRANCH  18  20
ATOM     20  C   UNL     1      46.809   6.984  13.018  0.00  0.00    +0.000 A 
ATOM     21  C   UNL     1      45.890   7.830  12.407  0.00  0.00    +0.000 A 
ATOM     22  N   UNL     1      44.775   7.424  11.753  0.00  0.00    +0.000 NA
ATOM     23  C   UNL     1      44.503   6.080  11.746  0.00  0.00    +0.000 A 
ATOM     24  C   UNL     1      45.332   5.138  12.328  0.00  0.00    +0.000 A 
ATOM     25  C   UNL     1      46.489   5.626  12.978  0.00  0.00    +0.000 A 
BRANCH  23  26
ATOM     26  C   UNL     1      43.200   5.762  11.081  0.00  0.00    +0.000 C 
ATOM     27  N   UNL     1      42.087   6.184  11.765  0.00  0.00    +0.000 N 
ATOM     28  O   UNL     1      43.106   5.124  10.049  0.00  0.00    +0.000 OA
ATOM     29  H   UNL     1      42.195   6.460  12.735  0.00  0.00    +0.000 HD
ATOM     30  H   UNL     1      41.189   5.846  11.450  0.00  0.00    +0.000 HD
ENDBRANCH  23  26
BRANCH  24  31
ATOM     31  C   UNL     1      45.157   3.651  12.285  0.00  0.00    +0.000 C 
ATOM     32  F   UNL     1      44.005   3.121  12.754  0.00  0.00    +0.000 F 
ATOM     33  F   UNL     1      45.239   3.201  10.994  0.00  0.00    +0.000 F 
ATOM     34  F   UNL     1      46.167   3.005  12.940  0.00  0.00    +0.000 F 
ENDBRANCH  24  31
ENDBRANCH  18  20
ENDBRANCH   1  18
TORSDOF 7
ENDMDL
