MODEL 1
REMARK VINA RESULT:    -8.426      0.000      0.000
REMARK INTER + INTRA:          -9.806
REMARK INTER:                  -9.904
REMARK INTRA:                   0.098
REMARK UNBOUND:                 0.098
REMARK  Name = 
REMARK  5 active torsions:
REMARK  status: ('A' for Active; 'I' for Inactive)
REMARK    1  A    between atoms: C_1  and  C_2
REMARK    2  A    between atoms: C_5  and  C_6
REMARK    3  A    between atoms: C_6  and  C_7
REMARK    4  A    between atoms: C_6  and  N_8
REMARK    5  A    between atoms: C_12  and  C_13
REMARK                            x       y       z     vdW  Elec       q    Type
REMARK                         _______ _______ _______ _____ _____    ______ ____
ROOT
ATOM      1  N   UNL     1      43.888   4.793   9.747  0.00  0.00    +0.000 N 
ATOM      2  C   UNL     1      44.780   3.958   9.106  0.00  0.00    +0.000 A 
ATOM      3  C   UNL     1      45.034   2.651   9.499  0.00  0.00    +0.000 A 
ATOM      4  C   UNL     1      45.862   1.838   8.724  0.00  0.00    +0.000 A 
ATOM      5  C   UNL     1      46.429   2.336   7.560  0.00  0.00    +0.000 A 
ATOM      6  C   UNL     1      46.146   3.654   7.240  0.00  0.00    +0.000 A 
ATOM      7  N   UNL     1      45.343   4.466   7.989  0.00  0.00    +0.000 NA
ATOM      8  H   UNL     1      43.974   5.725   9.362  0.00  0.00    +0.000 HD
ENDROOT
BRANCH   5   9
ATOM      9  C   UNL     1      47.277   1.428   6.747  0.00  0.00    +0.000 C 
ATOM     10  N   UNL     1      48.335   1.935   6.051  0.00  0.00    +0.000 N 
ATOM     11  O   UNL     1      47.036   0.226   6.686  0.00  0.00    +0.000 OA
ATOM     12  H   UNL     1      48.624   2.897   6.027  0.00  0.00    +0.000 HD
ATOM     13  H   UNL     1      48.874   1.271   5.508  0.00  0.00    +0.000 HD
ENDBRANCH   5   9
BRANCH   1  14
ATOM     14  C   UNL     1      43.584   4.705  11.172  0.00  0.00    +0.000 C 
ATOM     15  C   UNL     1      43.179   3.280  11.533  0.00  0.00    +0.000 C 
BRANCH  14  20
ATOM     16  C   UNL     1      48.239   6.552  14.203  0.00  0.00    +0.000 C 
ATOM     17  C   UNL     1      46.992   6.105  13.498  0.00  0.00    +0.000 A 
ATOM     18  C   UNL     1      46.287   6.970  12.660  0.00  0.00    +0.000 A 
ATOM     19  C   UNL     1      45.180   6.509  11.939  0.00  0.00    +0.000 A 
ATOM     20  C   UNL     1      44.753   5.171  12.033  0.00  0.00    +0.000 A 
ATOM     21  C   UNL     1      45.431   4.328  12.924  0.00  0.00    +0.000 A 
ATOM     22  C   UNL     1      46.548   4.784  13.632  0.00  0.00    +0.000 A 
ENDBRANCH  14  20
ENDBRANCH   1  14
TORSDOF 3
ENDMDL
MODEL 2
REMARK VINA RESULT:    -8.339      3.243      6.461
REMARK INTER + INTRA:          -9.703
REMARK INTER:                  -9.898
REMARK INTRA:                   0.195
REMARK UNBOUND:                 0.098
REMARK  Name = 
REMARK  5 active torsions:
REMARK  status: ('A' for Active; 'I' for Inactive)
REMARK    1  A    between atoms: C_1  and  C_2
REMARK    2  A    between atoms: C_5  and  C_6
REMARK    3  A    between atoms: C_6  and  C_7
REMARK    4  A    between atoms: C_6  and  N_8
REMARK    5  A    between atoms: C_12  and  C_13
REMARK                            x       y       z     vdW  Elec       q    Type
REMARK                         _______ _______ _______ _____ _____    ______ ____
ROOT
ATOM      1  N   UNL     1      44.536   2.990  11.795  0.00  0.00    +0.000 N 
ATOM      2  C   UNL     1      45.439   3.814  12.434  0.00  0.00    +0.000 A 
ATOM      3  C   UNL     1      45.445   5.196  12.309  0.00  0.00    +0.000 A 
ATOM      4  C   UNL     1      46.317   5.963  13.082  0.00  0.00    +0.000 A 
ATOM      5  C   UNL     1      47.176   5.342  13.979  0.00  0.00    +0.000 A 
ATOM      6  C   UNL     1      47.126   3.959  14.037  0.00  0.00    +0.000 A 
ATOM      7  N   UNL     1      46.284   3.193  13.284  0.00  0.00    +0.000 NA
ATOM      8  H   UNL     1      44.812   2.026  11.935  0.00  0.00    +0.000 HD
ENDROOT
BRANCH   5   9
ATOM      9  C   UNL     1      48.064   6.197  14.807  0.00  0.00    +0.000 C 
ATOM     10  N   UNL     1      47.926   7.554  14.764  0.00  0.00    +0.000 N 
ATOM     11  O   UNL     1      48.926   5.701  15.525  0.00  0.00    +0.000 OA
ATOM     12  H   UNL     1      47.258   8.066  14.215  0.00  0.00    +0.000 HD
ATOM     13  H   UNL     1      48.563   8.088  15.344  0.00  0.00    +0.000 HD
ENDBRANCH   5   9
BRANCH   1  14
ATOM     14  C   UNL     1      43.926   3.308  10.508  0.00  0.00    +0.000 C 
ATOM     15  C   UNL     1      43.401   4.739  10.517  0.00  0.00    +0.000 C 
BRANCH  14  20
ATOM     16  C   UNL     1      47.863   2.369   6.279  0.00  0.00    +0.000 C 
ATOM     17  C   UNL     1      46.787   2.600   7.298  0.00  0.00    +0.000 A 
ATOM     18  C   UNL     1      46.237   1.540   8.020  0.00  0.00    +0.000 A 
ATOM     19  C   UNL     1      45.300   1.784   9.031  0.00  0.00    +0.000 A 
ATOM     20  C   UNL     1      44.895   3.094   9.349  0.00  0.00    +0.000 A 
ATOM     21  C   UNL     1      45.408   4.145   8.577  0.00  0.00    +0.000 A 
ATOM     22  C   UNL     1      46.357   3.902   7.578  0.00  0.00    +0.000 A 
ENDBRANCH  14  20
ENDBRANCH   1  14
TORSDOF 3
ENDMDL
MODEL 3
REMARK VINA RESULT:    -8.125      1.355      2.066
REMARK INTER + INTRA:          -9.452
REMARK INTER:                  -8.966
REMARK INTRA:                  -0.485
REMARK UNBOUND:                 0.098
REMARK  Name = 
REMARK  5 active torsions:
REMARK  status: ('A' for Active; 'I' for Inactive)
REMARK    1  A    between atoms: C_1  and  C_2
REMARK    2  A    between atoms: C_5  and  C_6
REMARK    3  A    between atoms: C_6  and  C_7
REMARK    4  A    between atoms: C_6  and  N_8
REMARK    5  A    between atoms: C_12  and  C_13
REMARK                            x       y       z     vdW  Elec       q    Type
REMARK                         _______ _______ _______ _____ _____    ______ ____
ROOT
ATOM      1  N   UNL     1      44.174   4.127  10.772  0.00  0.00    +0.000 N 
ATOM      2  C   UNL     1      44.865   3.752   9.638  0.00  0.00    +0.000 A 
ATOM      3  C   UNL     1      45.628   4.625   8.874  0.00  0.00    +0.000 A 
ATOM      4  C   UNL     1      46.389   4.139   7.810  0.00  0.00    +0.000 A 
ATOM      5  C   UNL     1      46.384   2.782   7.518  0.00  0.00    +0.000 A 
ATOM      6  C   UNL     1      45.585   1.975   8.311  0.00  0.00    +0.000 A 
ATOM      7  N   UNL     1      44.830   2.433   9.352  0.00  0.00    +0.000 NA
ATOM      8  H   UNL     1      43.593   3.355  11.074  0.00  0.00    +0.000 HD
ENDROOT
BRANCH   5   9
ATOM      9  C   UNL     1      47.234   2.302   6.400  0.00  0.00    +0.000 C 
ATOM     10  N   UNL     1      47.193   2.945   5.197  0.00  0.00    +0.000 N 
ATOM     11  O   UNL     1      47.968   1.329   6.538  0.00  0.00    +0.000 OA
ATOM     12  H   UNL     1      46.631   3.747   4.972  0.00  0.00    +0.000 HD
ATOM     13  H   UNL     1      47.787   2.570   4.467  0.00  0.00    +0.000 HD
ENDBRANCH   5   9
BRANCH   1  14
ATOM     14  C   UNL     1      43.633   5.467  10.979  0.00  0.00    +0.000 C 
ATOM     15  C   UNL     1      42.338   5.389  11.781  0.00  0.00    +0.000 C 
BRANCH  14  20
ATOM     16  C   UNL     1      47.377   8.899  13.888  0.00  0.00    +0.000 C 
ATOM     17  C   UNL     1      46.479   8.018  13.072  0.00  0.00    +0.000 A 
ATOM     18  C   UNL     1      46.551   6.627  13.168  0.00  0.00    +0.000 A 
ATOM     19  C   UNL     1      45.644   5.822  12.469  0.00  0.00    +0.000 A 
ATOM     20  C   UNL     1      44.639   6.388  11.662  0.00  0.00    +0.000 A 
ATOM     21  C   UNL     1      44.615   7.782  11.525  0.00  0.00    +0.000 A 
ATOM     22  C   UNL     1      45.512   8.587  12.236  0.00  0.00    +0.000 A 
ENDBRANCH  14  20
ENDBRANCH   1  14
TORSDOF 3
ENDMDL
MODEL 4
REMARK VINA RESULT:    -7.691      3.638      6.948
REMARK INTER + INTRA:          -8.941
REMARK INTER:                  -8.412
REMARK INTRA:                  -0.529
REMARK UNBOUND:                 0.098
REMARK  Name = 
REMARK  5 active torsions:
REMARK  status: ('A' for Active; 'I' for Inactive)
REMARK    1  A    between atoms: C_1  and  C_2
REMARK    2  A    between atoms: C_5  and  C_6
REMARK    3  A    between atoms: C_6  and  C_7
REMARK    4  A    between atoms: C_6  and  N_8
REMARK    5  A    between atoms: C_12  and  C_13
REMARK                            x       y       z     vdW  Elec       q    Type
REMARK                         _______ _______ _______ _____ _____    ______ ____
ROOT
ATOM      1  N   UNL     1      44.664   5.937  10.961  0.00  0.00    +0.000 N 
ATOM      2  C   UNL     1      45.444   6.635  11.859  0.00  0.00    +0.000 A 
ATOM      3  C   UNL     1      46.604   6.129  12.431  0.00  0.00    +0.000 A 
ATOM      4  C   UNL     1      47.397   6.945  13.238  0.00  0.00    +0.000 A 
ATOM      5  C   UNL     1      47.027   8.263  13.467  0.00  0.00    +0.000 A 
ATOM      6  C   UNL     1      45.848   8.692  12.879  0.00  0.00    +0.000 A 
ATOM      7  N   UNL     1      45.057   7.907  12.091  0.00  0.00    +0.000 NA
ATOM      8  H   UNL     1      43.812   6.456  10.790  0.00  0.00    +0.000 HD
ENDROOT
BRANCH   5   9
ATOM      9  C   UNL     1      47.916   9.107  14.305  0.00  0.00    +0.000 C 
ATOM     10  N   UNL     1      47.641   9.266  15.632  0.00  0.00    +0.000 N 
ATOM     11  O   UNL     1      48.892   9.670  13.819  0.00  0.00    +0.000 OA
ATOM     12  H   UNL     1      46.873   8.854  16.132  0.00  0.00    +0.000 HD
ATOM     13  H   UNL     1      48.277   9.857  16.153  0.00  0.00    +0.000 HD
ENDBRANCH   5   9
BRANCH   1  14
ATOM     14  C   UNL     1      44.548   4.482  10.955  0.00  0.00    +0.000 C 
ATOM     15  C   UNL     1      43.086   4.073  11.105  0.00  0.00    +0.000 C 
BRANCH  14  20
ATOM     16  C   UNL     1      47.107   1.977   6.324  0.00  0.00    +0.000 C 
ATOM     17  C   UNL     1      46.371   2.620   7.463  0.00  0.00    +0.000 A 
ATOM     18  C   UNL     1      45.755   1.850   8.450  0.00  0.00    +0.000 A 
ATOM     19  C   UNL     1      45.153   2.466   9.553  0.00  0.00    +0.000 A 
ATOM     20  C   UNL     1      45.156   3.866   9.699  0.00  0.00    +0.000 A 
ATOM     21  C   UNL     1      45.723   4.631   8.671  0.00  0.00    +0.000 A 
ATOM     22  C   UNL     1      46.340   4.015   7.577  0.00  0.00    +0.000 A 
ENDBRANCH  14  20
ENDBRANCH   1  14
TORSDOF 3
ENDMDL
MODEL 5
REMARK VINA RESULT:    -6.854      4.761      6.880
REMARK INTER + INTRA:          -7.957
REMARK INTER:                  -7.479
REMARK INTRA:                  -0.478
REMARK UNBOUND:                 0.098
REMARK  Name = 
REMARK  5 active torsions:
REMARK  status: ('A' for Active; 'I' for Inactive)
REMARK    1  A    between atoms: C_1  and  C_2
REMARK    2  A    between atoms: C_5  and  C_6
REMARK    3  A    between atoms: C_6  and  C_7
REMARK    4  A    between atoms: C_6  and  N_8
REMARK    5  A    between atoms: C_12  and  C_13
REMARK                            x       y       z     vdW  Elec       q    Type
REMARK                         _______ _______ _______ _____ _____    ______ ____
ROOT
ATOM      1  N   UNL     1      47.568   3.211  15.361  0.00  0.00    +0.000 N 
ATOM      2  C   UNL     1      46.985   4.000  14.391  0.00  0.00    +0.000 A 
ATOM      3  C   UNL     1      47.196   5.368  14.278  0.00  0.00    +0.000 A 
ATOM      4  C   UNL     1      46.661   6.070  13.197  0.00  0.00    +0.000 A 
ATOM      5  C   UNL     1      45.919   5.399  12.235  0.00  0.00    +0.000 A 
ATOM      6  C   UNL     1      45.734   4.039  12.423  0.00  0.00    +0.000 A 
ATOM      7  N   UNL     1      46.245   3.337  13.477  0.00  0.00    +0.000 NA
ATOM      8  H   UNL     1      47.162   2.285  15.320  0.00  0.00    +0.000 HD
ENDROOT
BRANCH   5   9
ATOM      9  C   UNL     1      45.396   6.177  11.084  0.00  0.00    +0.000 C 
ATOM     10  N   UNL     1      45.403   5.625   9.836  0.00  0.00    +0.000 N 
ATOM     11  O   UNL     1      44.963   7.315  11.236  0.00  0.00    +0.000 OA
ATOM     12  H   UNL     1      45.732   4.706   9.596  0.00  0.00    +0.000 HD
ATOM     13  H   UNL     1      45.041   6.202   9.087  0.00  0.00    +0.000 HD
ENDBRANCH   5   9
BRANCH   1  14
ATOM     14  C   UNL     1      47.934   3.702  16.686  0.00  0.00    +0.000 C 
ATOM     15  C   UNL     1      46.978   3.141  17.733  0.00  0.00    +0.000 C 
BRANCH  14  20
ATOM     16  C   UNL     1      53.372   2.226  18.274  0.00  0.00    +0.000 C 
ATOM     17  C   UNL     1      52.011   2.620  17.781  0.00  0.00    +0.000 A 
ATOM     18  C   UNL     1      51.124   1.668  17.275  0.00  0.00    +0.000 A 
ATOM     19  C   UNL     1      49.826   2.038  16.905  0.00  0.00    +0.000 A 
ATOM     20  C   UNL     1      49.380   3.367  17.037  0.00  0.00    +0.000 A 
ATOM     21  C   UNL     1      50.299   4.325  17.488  0.00  0.00    +0.000 A 
ATOM     22  C   UNL     1      51.591   3.952  17.874  0.00  0.00    +0.000 A 
ENDBRANCH  14  20
ENDBRANCH   1  14
TORSDOF 3
ENDMDL
MODEL 6
REMARK VINA RESULT:    -6.721      4.668      7.404
REMARK INTER + INTRA:          -7.802
REMARK INTER:                  -7.239
REMARK INTRA:                  -0.562
REMARK UNBOUND:                 0.098
REMARK  Name = 
REMARK  5 active torsions:
REMARK  status: ('A' for Active; 'I' for Inactive)
REMARK    1  A    between atoms: C_1  and  C_2
REMARK    2  A    between atoms: C_5  and  C_6
REMARK    3  A    between atoms: C_6  and  C_7
REMARK    4  A    between atoms: C_6  and  N_8
REMARK    5  A    between atoms: C_12  and  C_13
REMARK                            x       y       z     vdW  Elec       q    Type
REMARK                         _______ _______ _______ _____ _____    ______ ____
ROOT
ATOM      1  N   UNL     1      47.123   6.242  13.571  0.00  0.00    +0.000 N 
ATOM      2  C   UNL     1      47.519   5.592  14.722  0.00  0.00    +0.000 A 
ATOM      3  C   UNL     1      46.893   4.458  15.222  0.00  0.00    +0.000 A 
ATOM      4  C   UNL     1      47.430   3.795  16.326  0.00  0.00    +0.000 A 
ATOM      5  C   UNL     1      48.591   4.269  16.922  0.00  0.00    +0.000 A 
ATOM      6  C   UNL     1      49.149   5.415  16.380  0.00  0.00    +0.000 A 
ATOM      7  N   UNL     1      48.634   6.080  15.304  0.00  0.00    +0.000 NA
ATOM      8  H   UNL     1      47.643   7.106  13.486  0.00  0.00    +0.000 HD
ENDROOT
BRANCH   5   9
ATOM      9  C   UNL     1      49.147   3.514  18.074  0.00  0.00    +0.000 C 
ATOM     10  N   UNL     1      48.326   3.148  19.101  0.00  0.00    +0.000 N 
ATOM     11  O   UNL     1      50.337   3.221  18.121  0.00  0.00    +0.000 OA
ATOM     12  H   UNL     1      47.340   3.335  19.168  0.00  0.00    +0.000 HD
ATOM     13  H   UNL     1      48.760   2.642  19.863  0.00  0.00    +0.000 HD
ENDBRANCH   5   9
BRANCH   1  14
ATOM     14  C   UNL     1      45.745   6.263  13.091  0.00  0.00    +0.000 C 
ATOM     15  C   UNL     1      45.311   7.697  12.811  0.00  0.00    +0.000 C 
BRANCH  14  20
ATOM     16  C   UNL     1      44.807   3.121   8.241  0.00  0.00    +0.000 C 
ATOM     17  C   UNL     1      45.134   3.892   9.486  0.00  0.00    +0.000 A 
ATOM     18  C   UNL     1      45.657   5.184   9.418  0.00  0.00    +0.000 A 
ATOM     19  C   UNL     1      45.870   5.922  10.588  0.00  0.00    +0.000 A 
ATOM     20  C   UNL     1      45.560   5.389  11.854  0.00  0.00    +0.000 A 
ATOM     21  C   UNL     1      45.094   4.069  11.913  0.00  0.00    +0.000 A 
ATOM     22  C   UNL     1      44.865   3.337  10.743  0.00  0.00    +0.000 A 
ENDBRANCH  14  20
ENDBRANCH   1  14
TORSDOF 3
ENDMDL
MODEL 7
REMARK VINA RESULT:    -6.403      3.856      5.633
REMARK INTER + INTRA:          -7.428
REMARK INTER:                  -6.905
REMARK INTRA:                  -0.523
REMARK UNBOUND:                 0.098
REMARK  Name = 
REMARK  5 active torsions:
REMARK  status: ('A' for Active; 'I' for Inactive)
REMARK    1  A    between atoms: C_1  and  C_2
REMARK    2  A    between atoms: C_5  and  C_6
REMARK    3  A    between atoms: C_6  and  C_7
REMARK    4  A    between atoms: C_6  and  N_8
REMARK    5  A    between atoms: C_12  and  C_13
REMARK                            x       y       z     vdW  Elec       q    Type
REMARK                         _______ _______ _______ _____ _____    ______ ____
ROOT
ATOM      1  N   UNL     1      47.470   6.963  12.650  0.00  0.00    +0.000 N 
ATOM      2  C   UNL     1      46.559   6.030  12.200  0.00  0.00    +0.000 A 
ATOM      3  C   UNL     1      46.018   6.034  10.921  0.00  0.00    +0.000 A 
ATOM      4  C   UNL     1      45.194   4.987  10.508  0.00  0.00    +0.000 A 
ATOM      5  C   UNL     1      44.919   3.939  11.376  0.00  0.00    +0.000 A 
ATOM      6  C   UNL     1      45.480   4.011  12.641  0.00  0.00    +0.000 A 
ATOM      7  N   UNL     1      46.283   5.031  13.064  0.00  0.00    +0.000 NA
ATOM      8  H   UNL     1      47.614   6.830  13.643  0.00  0.00    +0.000 HD
ENDROOT
BRANCH   5   9
ATOM      9  C   UNL     1      44.066   2.827  10.886  0.00  0.00    +0.000 C 
ATOM     10  N   UNL     1      44.450   2.114   9.788  0.00  0.00    +0.000 N 
ATOM     11  O   UNL     1      43.014   2.544  11.450  0.00  0.00    +0.000 OA
ATOM     12  H   UNL     1      45.287   2.258   9.250  0.00  0.00    +0.000 HD
ATOM     13  H   UNL     1      43.827   1.372   9.494  0.00  0.00    +0.000 HD
ENDBRANCH   5   9
BRANCH   1  14
ATOM     14  C   UNL     1      47.520   8.339  12.166  0.00  0.00    +0.000 C 
ATOM     15  C   UNL     1      47.066   9.296  13.263  0.00  0.00    +0.000 C 
BRANCH  14  20
ATOM     16  C   UNL     1      52.973   9.676  10.509  0.00  0.00    +0.000 C 
ATOM     17  C   UNL     1      51.554   9.322  10.844  0.00  0.00    +0.000 A 
ATOM     18  C   UNL     1      51.178   8.001  11.089  0.00  0.00    +0.000 A 
ATOM     19  C   UNL     1      49.871   7.701  11.489  0.00  0.00    +0.000 A 
ATOM     20  C   UNL     1      48.909   8.714  11.660  0.00  0.00    +0.000 A 
ATOM     21  C   UNL     1      49.281  10.030  11.352  0.00  0.00    +0.000 A 
ATOM     22  C   UNL     1      50.592  10.332  10.968  0.00  0.00    +0.000 A 
ENDBRANCH  14  20
ENDBRANCH   1  14
TORSDOF 3
ENDMDL
MODEL 8
REMARK VINA RESULT:    -5.757      3.194      5.742
REMARK INTER + INTRA:          -6.668
REMARK INTER:                  -6.114
REMARK INTRA:                  -0.554
REMARK UNBOUND:                 0.098
REMARK  Name = 
REMARK  5 active torsions:
REMARK  status: ('A' for Active; 'I' for Inactive)
REMARK    1  A    between atoms: C_1  and  C_2
REMARK    2  A    between atoms: C_5  and  C_6
REMARK    3  A    between atoms: C_6  and  C_7
REMARK    4  A    between atoms: C_6  and  N_8
REMARK    5  A    between atoms: C_12  and  C_13
REMARK                            x       y       z     vdW  Elec       q    Type
REMARK                         _______ _______ _______ _____ _____    ______ ____
ROOT
ATOM      1  N   UNL     1      46.696   8.151  13.619  0.00  0.00    +0.000 N 
ATOM      2  C   UNL     1      46.092   7.236  12.782  0.00  0.00    +0.000 A 
ATOM      3  C   UNL     1      46.558   5.943  12.587  0.00  0.00    +0.000 A 
ATOM      4  C   UNL     1      45.821   5.045  11.814  0.00  0.00    +0.000 A 
ATOM      5  C   UNL     1      44.620   5.445  11.244  0.00  0.00    +0.000 A 
ATOM      6  C   UNL     1      44.228   6.755  11.467  0.00  0.00    +0.000 A 
ATOM      7  N   UNL     1      44.939   7.649  12.214  0.00  0.00    +0.000 NA
ATOM      8  H   UNL     1      46.256   9.053  13.494  0.00  0.00    +0.000 HD
ENDROOT
BRANCH   5   9
ATOM      9  C   UNL     1      43.850   4.448  10.457  0.00  0.00    +0.000 C 
ATOM     10  N   UNL     1      43.955   4.436   9.097  0.00  0.00    +0.000 N 
ATOM     11  O   UNL     1      43.114   3.640  11.012  0.00  0.00    +0.000 OA
ATOM     12  H   UNL     1      44.525   5.049   8.540  0.00  0.00    +0.000 HD
ATOM     13  H   UNL     1      43.403   3.740   8.611  0.00  0.00    +0.000 HD
ENDBRANCH   5   9
BRANCH   1  14
ATOM     14  C   UNL     1      48.128   8.162  13.902  0.00  0.00    +0.000 C 
ATOM     15  C   UNL     1      48.712   9.536  13.594  0.00  0.00    +0.000 C 
BRANCH  14  20
ATOM     16  C   UNL     1      49.002   6.427  19.424  0.00  0.00    +0.000 C 
ATOM     17  C   UNL     1      48.871   6.882  18.001  0.00  0.00    +0.000 A 
ATOM     18  C   UNL     1      48.882   5.967  16.947  0.00  0.00    +0.000 A 
ATOM     19  C   UNL     1      48.666   6.399  15.633  0.00  0.00    +0.000 A 
ATOM     20  C   UNL     1      48.428   7.756  15.341  0.00  0.00    +0.000 A 
ATOM     21  C   UNL     1      48.480   8.673  16.399  0.00  0.00    +0.000 A 
ATOM     22  C   UNL     1      48.679   8.239  17.715  0.00  0.00    +0.000 A 
ENDBRANCH  14  20
ENDBRANCH   1  14
TORSDOF 3
ENDMDL
MODEL 9
REMARK VINA RESULT:    -5.539      3.971      6.501
REMARK INTER + INTRA:          -6.413
REMARK INTER:                  -6.641
REMARK INTRA:                   0.229
REMARK UNBOUND:                 0.098
REMARK  Name = 
REMARK  5 active torsions:
REMARK  status: ('A' for Active; 'I' for Inactive)
REMARK    1  A    between atoms: C_1  and  C_2
REMARK    2  A    between atoms: C_5  and  C_6
REMARK    3  A    between atoms: C_6  and  C_7
REMARK    4  A    between atoms: C_6  and  N_8
REMARK    5  A    between atoms: C_12  and  C_13
REMARK                            x       y       z     vdW  Elec       q    Type
REMARK                         _______ _______ _______ _____ _____    ______ ____
ROOT
ATOM      1  N   UNL     1      45.746   6.474  13.250  0.00  0.00    +0.000 N 
ATOM      2  C   UNL     1      47.018   6.899  12.924  0.00  0.00    +0.000 A 
ATOM      3  C   UNL     1      47.287   7.858  11.957  0.00  0.00    +0.000 A 
ATOM      4  C   UNL     1      48.592   8.316  11.772  0.00  0.00    +0.000 A 
ATOM      5  C   UNL     1      49.620   7.814  12.559  0.00  0.00    +0.000 A 
ATOM      6  C   UNL     1      49.279   6.847  13.491  0.00  0.00    +0.000 A 
ATOM      7  N   UNL     1      48.009   6.383  13.681  0.00  0.00    +0.000 NA
ATOM      8  H   UNL     1      45.814   5.686  13.881  0.00  0.00    +0.000 HD
ENDROOT
BRANCH   5   9
ATOM      9  C   UNL     1      50.988   8.352  12.354  0.00  0.00    +0.000 C 
ATOM     10  N   UNL     1      51.968   8.071  13.262  0.00  0.00    +0.000 N 
ATOM     11  O   UNL     1      51.251   9.053  11.382  0.00  0.00    +0.000 OA
ATOM     12  H   UNL     1      51.866   7.511  14.090  0.00  0.00    +0.000 HD
ATOM     13  H   UNL     1      52.880   8.470  13.075  0.00  0.00    +0.000 HD
ENDBRANCH   5   9
BRANCH   1  14
ATOM     14  C   UNL     1      44.636   6.454  12.302  0.00  0.00    +0.000 C 
ATOM     15  C   UNL     1      44.570   7.776  11.545  0.00  0.00    +0.000 C 
BRANCH  14  20
ATOM     16  C   UNL     1      45.231   1.807   8.793  0.00  0.00    +0.000 C 
ATOM     17  C   UNL     1      44.993   3.010   9.656  0.00  0.00    +0.000 A 
ATOM     18  C   UNL     1      44.440   2.885  10.932  0.00  0.00    +0.000 A 
ATOM     19  C   UNL     1      44.310   4.006  11.759  0.00  0.00    +0.000 A 
ATOM     20  C   UNL     1      44.736   5.279  11.334  0.00  0.00    +0.000 A 
ATOM     21  C   UNL     1      45.232   5.403  10.030  0.00  0.00    +0.000 A 
ATOM     22  C   UNL     1      45.378   4.279   9.209  0.00  0.00    +0.000 A 
ENDBRANCH  14  20
ENDBRANCH   1  14
TORSDOF 3
ENDMDL
