MODEL 1
REMARK VINA RESULT:    -6.981      0.000      0.000
REMARK INTER + INTRA:         -10.149
REMARK INTER:                  -9.225
REMARK INTRA:                  -0.923
REMARK UNBOUND:                -0.923
REMARK  Name = 
REMARK  9 active torsions:
REMARK  status: ('A' for Active; 'I' for Inactive)
REMARK    1  A    between atoms: C_1  and  C_2
REMARK    2  A    between atoms: C_2  and  C_3
REMARK    3  A    between atoms: C_2  and  C_4
REMARK    4  A    between atoms: C_2  and  C_5
REMARK    5  A    between atoms: C_9  and  C_10
REMARK    6  A    between atoms: N_16  and  C_17
REMARK    7  A    between atoms: C_17  and  C_18
REMARK    8  A    between atoms: C_21  and  C_22
REMARK    9  A    between atoms: C_22  and  N_23
REMARK                            x       y       z     vdW  Elec       q    Type
REMARK                         _______ _______ _______ _____ _____    ______ ____
ROOT
ATOM      1  C   UNL     1      44.530   4.019  11.117  0.00  0.00    +0.000 A 
ATOM      2  N   UNL     1      44.832   2.826  10.615  0.00  0.00    +0.000 NA
ATOM      3  C   UNL     1      45.495   3.046   9.441  0.00  0.00    +0.000 A 
ATOM      4  C   UNL     1      46.018   2.152   8.492  0.00  0.00    +0.000 A 
ATOM      5  C   UNL     1      46.650   2.704   7.370  0.00  0.00    +0.000 A 
ATOM      6  C   UNL     1      46.728   4.096   7.270  0.00  0.00    +0.000 A 
ATOM      7  N   UNL     1      46.234   4.999   8.163  0.00  0.00    +0.000 NA
ATOM      8  C   UNL     1      45.633   4.405   9.210  0.00  0.00    +0.000 A 
ATOM      9  N   UNL     1      44.975   5.015  10.257  0.00  0.00    +0.000 N 
ENDROOT
BRANCH   5  10
ATOM     10  C   UNL     1      47.238   1.902   6.273  0.00  0.00    +0.000 C 
ATOM     11  N   UNL     1      47.920   2.542   5.277  0.00  0.00    +0.000 N 
ATOM     12  O   UNL     1      47.126   0.679   6.245  0.00  0.00    +0.000 OA
ATOM     13  H   UNL     1      48.068   3.538   5.212  0.00  0.00    +0.000 HD
ATOM     14  H   UNL     1      48.313   1.961   4.543  0.00  0.00    +0.000 HD
ENDBRANCH   5  10
BRANCH   1  16
ATOM     15  C   UNL     1      44.962   4.626  13.497  0.00  0.00    +0.000 C 
ATOM     16  C   UNL     1      43.878   4.194  12.494  0.00  0.00    +0.000 C 
ATOM     17  C   UNL     1      43.295   2.837  12.954  0.00  0.00    +0.000 C 
ATOM     18  C   UNL     1      42.705   5.183  12.547  0.00  0.00    +0.000 C 
ENDBRANCH   1  16
BRANCH   9  19
ATOM     19  C   UNL     1      44.797   6.461  10.339  0.00  0.00    +0.000 C 
BRANCH  19  20
ATOM     20  C   UNL     1      45.719   7.112  11.354  0.00  0.00    +0.000 A 
ATOM     21  C   UNL     1      47.067   6.713  11.432  0.00  0.00    +0.000 A 
ATOM     22  C   UNL     1      47.910   7.227  12.425  0.00  0.00    +0.000 A 
ATOM     23  C   UNL     1      47.437   8.171  13.348  0.00  0.00    +0.000 A 
ATOM     24  C   UNL     1      46.119   8.616  13.227  0.00  0.00    +0.000 A 
ATOM     25  C   UNL     1      45.276   8.106  12.237  0.00  0.00    +0.000 A 
BRANCH  23  26
ATOM     26  C   UNL     1      48.305   8.660  14.479  0.00  0.00    +0.000 C 
BRANCH  26  27
ATOM     27  N   UNL     1      47.517   9.097  15.624  0.00  0.00    +0.000 NA
ATOM     28  H   UNL     1      47.135  10.021  15.428  0.00  0.00    +0.000 HD
ATOM     29  H   UNL     1      48.128   9.198  16.431  0.00  0.00    +0.000 HD
ENDBRANCH  26  27
ENDBRANCH  23  26
ENDBRANCH  19  20
ENDBRANCH   9  19
TORSDOF 6
ENDMDL
MODEL 2
REMARK VINA RESULT:    -6.701      2.892      6.439
REMARK INTER + INTRA:          -9.779
REMARK INTER:                  -9.398
REMARK INTRA:                  -0.381
REMARK UNBOUND:                -0.923
REMARK  Name = 
REMARK  9 active torsions:
REMARK  status: ('A' for Active; 'I' for Inactive)
REMARK    1  A    between atoms: C_1  and  C_2
REMARK    2  A    between atoms: C_2  and  C_3
REMARK    3  A    between atoms: C_2  and  C_4
REMARK    4  A    between atoms: C_2  and  C_5
REMARK    5  A    between atoms: C_9  and  C_10
REMARK    6  A    between atoms: N_16  and  C_17
REMARK    7  A    between atoms: C_17  and  C_18
REMARK    8  A    between atoms: C_21  and  C_22
REMARK    9  A    between atoms: C_22  and  N_23
REMARK                            x       y       z     vdW  Elec       q    Type
REMARK                         _______ _______ _______ _____ _____    ______ ____
ROOT
ATOM      1  C   UNL     1      44.775   4.960  12.343  0.00  0.00    +0.000 A 
ATOM      2  N   UNL     1      45.556   5.080  13.412  0.00  0.00    +0.000 NA
ATOM      3  C   UNL     1      46.634   5.830  13.034  0.00  0.00    +0.000 A 
ATOM      4  C   UNL     1      47.771   6.242  13.748  0.00  0.00    +0.000 A 
ATOM      5  C   UNL     1      48.716   7.014  13.060  0.00  0.00    +0.000 A 
ATOM      6  C   UNL     1      48.467   7.332  11.722  0.00  0.00    +0.000 A 
ATOM      7  N   UNL     1      47.382   6.953  10.991  0.00  0.00    +0.000 NA
ATOM      8  C   UNL     1      46.519   6.208  11.706  0.00  0.00    +0.000 A 
ATOM      9  N   UNL     1      45.359   5.611  11.263  0.00  0.00    +0.000 N 
ENDROOT
BRANCH   5  10
ATOM     10  C   UNL     1      49.974   7.513  13.662  0.00  0.00    +0.000 C 
ATOM     11  N   UNL     1      51.031   7.799  12.845  0.00  0.00    +0.000 N 
ATOM     12  O   UNL     1      50.081   7.675  14.875  0.00  0.00    +0.000 OA
ATOM     13  H   UNL     1      51.042   7.701  11.841  0.00  0.00    +0.000 HD
ATOM     14  H   UNL     1      51.877   8.142  13.291  0.00  0.00    +0.000 HD
ENDBRANCH   5  10
BRANCH   1  16
ATOM     15  C   UNL     1      42.380   5.184  11.690  0.00  0.00    +0.000 C 
ATOM     16  C   UNL     1      43.403   4.278  12.396  0.00  0.00    +0.000 C 
ATOM     17  C   UNL     1      42.977   4.112  13.874  0.00  0.00    +0.000 C 
ATOM     18  C   UNL     1      43.345   2.868  11.792  0.00  0.00    +0.000 C 
ENDBRANCH   1  16
BRANCH   9  19
ATOM     19  C   UNL     1      44.921   5.676   9.872  0.00  0.00    +0.000 C 
BRANCH  19  20
ATOM     20  C   UNL     1      45.487   4.553   9.022  0.00  0.00    +0.000 A 
ATOM     21  C   UNL     1      45.093   3.224   9.265  0.00  0.00    +0.000 A 
ATOM     22  C   UNL     1      45.676   2.163   8.561  0.00  0.00    +0.000 A 
ATOM     23  C   UNL     1      46.648   2.404   7.579  0.00  0.00    +0.000 A 
ATOM     24  C   UNL     1      46.990   3.727   7.292  0.00  0.00    +0.000 A 
ATOM     25  C   UNL     1      46.409   4.787   7.991  0.00  0.00    +0.000 A 
BRANCH  23  26
ATOM     26  C   UNL     1      47.353   1.268   6.883  0.00  0.00    +0.000 C 
BRANCH  26  27
ATOM     27  N   UNL     1      48.372   1.742   5.955  0.00  0.00    +0.000 NA
ATOM     28  H   UNL     1      47.938   1.917   5.051  0.00  0.00    +0.000 HD
ATOM     29  H   UNL     1      49.061   1.008   5.812  0.00  0.00    +0.000 HD
ENDBRANCH  26  27
ENDBRANCH  23  26
ENDBRANCH  19  20
ENDBRANCH   9  19
TORSDOF 6
ENDMDL
MODEL 3
REMARK VINA RESULT:    -5.886      4.761      7.179
REMARK INTER + INTRA:          -8.703
REMARK INTER:                  -8.207
REMARK INTRA:                  -0.495
REMARK UNBOUND:                -0.923
REMARK  Name = 
REMARK  9 active torsions:
REMARK  status: ('A' for Active; 'I' for Inactive)
REMARK    1  A    between atoms: C_1  and  C_2
REMARK    2  A    between atoms: C_2  and  C_3
REMARK    3  A    between atoms: C_2  and  C_4
REMARK    4  A    between atoms: C_2  and  C_5
REMARK    5  A    between atoms: C_9  and  C_10
REMARK    6  A    between atoms: N_16  and  C_17
REMARK    7  A    between atoms: C_17  and  C_18
REMARK    8  A    between atoms: C_21  and  C_22
REMARK    9  A    between atoms: C_22  and  N_23
REMARK                            x       y       z     vdW  Elec       q    Type
REMARK                         _______ _______ _______ _____ _____    ______ ____
ROOT
ATOM      1  C   UNL     1      48.758   6.704  15.116  0.00  0.00    +0.000 A 
ATOM      2  N   UNL     1      48.568   6.951  13.823  0.00  0.00    +0.000 NA
ATOM      3  C   UNL     1      47.542   6.146  13.412  0.00  0.00    +0.000 A 
ATOM      4  C   UNL     1      46.947   5.978  12.152  0.00  0.00    +0.000 A 
ATOM      5  C   UNL     1      45.899   5.054  12.054  0.00  0.00    +0.000 A 
ATOM      6  C   UNL     1      45.508   4.369  13.210  0.00  0.00    +0.000 A 
ATOM      7  N   UNL     1      46.058   4.499  14.449  0.00  0.00    +0.000 NA
ATOM      8  C   UNL     1      47.063   5.394  14.472  0.00  0.00    +0.000 A 
ATOM      9  N   UNL     1      47.872   5.720  15.539  0.00  0.00    +0.000 N 
ENDROOT
BRANCH   5  10
ATOM     10  C   UNL     1      45.178   4.748  10.798  0.00  0.00    +0.000 C 
ATOM     11  N   UNL     1      45.456   5.481   9.679  0.00  0.00    +0.000 N 
ATOM     12  O   UNL     1      44.341   3.850  10.745  0.00  0.00    +0.000 OA
ATOM     13  H   UNL     1      46.124   6.234   9.621  0.00  0.00    +0.000 HD
ATOM     14  H   UNL     1      44.945   5.241   8.835  0.00  0.00    +0.000 HD
ENDBRANCH   5  10
BRANCH   1  16
ATOM     15  C   UNL     1      49.087   7.829  17.316  0.00  0.00    +0.000 C 
ATOM     16  C   UNL     1      49.754   7.497  15.969  0.00  0.00    +0.000 C 
ATOM     17  C   UNL     1      50.094   8.823  15.249  0.00  0.00    +0.000 C 
ATOM     18  C   UNL     1      51.103   6.808  16.219  0.00  0.00    +0.000 C 
ENDBRANCH   1  16
BRANCH   9  19
ATOM     19  C   UNL     1      47.765   5.064  16.838  0.00  0.00    +0.000 C 
BRANCH  19  20
ATOM     20  C   UNL     1      48.828   4.003  17.052  0.00  0.00    +0.000 A 
ATOM     21  C   UNL     1      49.980   4.308  17.801  0.00  0.00    +0.000 A 
ATOM     22  C   UNL     1      51.020   3.377  17.929  0.00  0.00    +0.000 A 
ATOM     23  C   UNL     1      50.924   2.111  17.333  0.00  0.00    +0.000 A 
ATOM     24  C   UNL     1      49.752   1.786  16.647  0.00  0.00    +0.000 A 
ATOM     25  C   UNL     1      48.713   2.711  16.520  0.00  0.00    +0.000 A 
BRANCH  23  26
ATOM     26  C   UNL     1      52.073   1.137  17.381  0.00  0.00    +0.000 C 
BRANCH  26  27
ATOM     27  N   UNL     1      51.775  -0.021  18.214  0.00  0.00    +0.000 NA
ATOM     28  H   UNL     1      51.681   0.284  19.181  0.00  0.00    +0.000 HD
ATOM     29  H   UNL     1      52.562  -0.665  18.185  0.00  0.00    +0.000 HD
ENDBRANCH  26  27
ENDBRANCH  23  26
ENDBRANCH  19  20
ENDBRANCH   9  19
TORSDOF 6
ENDMDL
MODEL 4
REMARK VINA RESULT:    -5.778      3.773      6.145
REMARK INTER + INTRA:          -8.559
REMARK INTER:                  -7.946
REMARK INTRA:                  -0.613
REMARK UNBOUND:                -0.923
REMARK  Name = 
REMARK  9 active torsions:
REMARK  status: ('A' for Active; 'I' for Inactive)
REMARK    1  A    between atoms: C_1  and  C_2
REMARK    2  A    between atoms: C_2  and  C_3
REMARK    3  A    between atoms: C_2  and  C_4
REMARK    4  A    between atoms: C_2  and  C_5
REMARK    5  A    between atoms: C_9  and  C_10
REMARK    6  A    between atoms: N_16  and  C_17
REMARK    7  A    between atoms: C_17  and  C_18
REMARK    8  A    between atoms: C_21  and  C_22
REMARK    9  A    between atoms: C_22  and  N_23
REMARK                            x       y       z     vdW  Elec       q    Type
REMARK                         _______ _______ _______ _____ _____    ______ ____
ROOT
ATOM      1  C   UNL     1      45.211   4.602  12.639  0.00  0.00    +0.000 A 
ATOM      2  N   UNL     1      45.488   3.988  13.785  0.00  0.00    +0.000 NA
ATOM      3  C   UNL     1      46.523   4.669  14.360  0.00  0.00    +0.000 A 
ATOM      4  C   UNL     1      47.227   4.447  15.555  0.00  0.00    +0.000 A 
ATOM      5  C   UNL     1      48.260   5.340  15.868  0.00  0.00    +0.000 A 
ATOM      6  C   UNL     1      48.517   6.393  14.985  0.00  0.00    +0.000 A 
ATOM      7  N   UNL     1      47.863   6.645  13.817  0.00  0.00    +0.000 NA
ATOM      8  C   UNL     1      46.891   5.747  13.571  0.00  0.00    +0.000 A 
ATOM      9  N   UNL     1      46.084   5.668  12.457  0.00  0.00    +0.000 N 
ENDROOT
BRANCH   5  10
ATOM     10  C   UNL     1      49.106   5.236  17.079  0.00  0.00    +0.000 C 
ATOM     11  N   UNL     1      48.602   5.657  18.277  0.00  0.00    +0.000 N 
ATOM     12  O   UNL     1      50.245   4.779  17.024  0.00  0.00    +0.000 OA
ATOM     13  H   UNL     1      47.683   6.044  18.425  0.00  0.00    +0.000 HD
ATOM     14  H   UNL     1      49.210   5.568  19.087  0.00  0.00    +0.000 HD
ENDBRANCH   5  10
BRANCH   1  16
ATOM     15  C   UNL     1      42.830   5.103  12.097  0.00  0.00    +0.000 C 
ATOM     16  C   UNL     1      44.027   4.199  11.752  0.00  0.00    +0.000 C 
ATOM     17  C   UNL     1      43.641   2.733  12.058  0.00  0.00    +0.000 C 
ATOM     18  C   UNL     1      44.289   4.248  10.241  0.00  0.00    +0.000 C 
ENDBRANCH   1  16
BRANCH   9  19
ATOM     19  C   UNL     1      46.222   6.571  11.319  0.00  0.00    +0.000 C 
BRANCH  19  20
ATOM     20  C   UNL     1      45.377   7.824  11.455  0.00  0.00    +0.000 A 
ATOM     21  C   UNL     1      44.082   7.859  10.905  0.00  0.00    +0.000 A 
ATOM     22  C   UNL     1      43.323   9.036  10.931  0.00  0.00    +0.000 A 
ATOM     23  C   UNL     1      43.827  10.199  11.530  0.00  0.00    +0.000 A 
ATOM     24  C   UNL     1      45.084  10.145  12.135  0.00  0.00    +0.000 A 
ATOM     25  C   UNL     1      45.843   8.973  12.111  0.00  0.00    +0.000 A 
BRANCH  23  26
ATOM     26  C   UNL     1      43.061  11.497  11.481  0.00  0.00    +0.000 C 
BRANCH  26  27
ATOM     27  N   UNL     1      41.956  11.516  12.430  0.00  0.00    +0.000 NA
ATOM     28  H   UNL     1      41.573  10.575  12.508  0.00  0.00    +0.000 HD
ATOM     29  H   UNL     1      41.211  12.105  12.063  0.00  0.00    +0.000 HD
ENDBRANCH  26  27
ENDBRANCH  23  26
ENDBRANCH  19  20
ENDBRANCH   9  19
TORSDOF 6
ENDMDL
MODEL 5
REMARK VINA RESULT:    -5.727      4.738      8.389
REMARK INTER + INTRA:          -8.492
REMARK INTER:                  -7.684
REMARK INTRA:                  -0.808
REMARK UNBOUND:                -0.923
REMARK  Name = 
REMARK  9 active torsions:
REMARK  status: ('A' for Active; 'I' for Inactive)
REMARK    1  A    between atoms: C_1  and  C_2
REMARK    2  A    between atoms: C_2  and  C_3
REMARK    3  A    between atoms: C_2  and  C_4
REMARK    4  A    between atoms: C_2  and  C_5
REMARK    5  A    between atoms: C_9  and  C_10
REMARK    6  A    between atoms: N_16  and  C_17
REMARK    7  A    between atoms: C_17  and  C_18
REMARK    8  A    between atoms: C_21  and  C_22
REMARK    9  A    between atoms: C_22  and  N_23
REMARK                            x       y       z     vdW  Elec       q    Type
REMARK                         _______ _______ _______ _____ _____    ______ ____
ROOT
ATOM      1  C   UNL     1      48.331   8.569  14.094  0.00  0.00    +0.000 A 
ATOM      2  N   UNL     1      48.389   8.996  15.352  0.00  0.00    +0.000 NA
ATOM      3  C   UNL     1      48.549   7.889  16.139  0.00  0.00    +0.000 A 
ATOM      4  C   UNL     1      48.644   7.751  17.533  0.00  0.00    +0.000 A 
ATOM      5  C   UNL     1      48.801   6.456  18.041  0.00  0.00    +0.000 A 
ATOM      6  C   UNL     1      48.862   5.391  17.136  0.00  0.00    +0.000 A 
ATOM      7  N   UNL     1      48.772   5.478  15.780  0.00  0.00    +0.000 NA
ATOM      8  C   UNL     1      48.614   6.746  15.358  0.00  0.00    +0.000 A 
ATOM      9  N   UNL     1      48.427   7.183  14.065  0.00  0.00    +0.000 N 
ENDROOT
BRANCH   5  10
ATOM     10  C   UNL     1      48.901   6.138  19.484  0.00  0.00    +0.000 C 
ATOM     11  N   UNL     1      48.044   5.218  20.020  0.00  0.00    +0.000 N 
ATOM     12  O   UNL     1      49.736   6.682  20.201  0.00  0.00    +0.000 OA
ATOM     13  H   UNL     1      47.327   4.719  19.516  0.00  0.00    +0.000 HD
ATOM     14  H   UNL     1      48.143   5.023  21.012  0.00  0.00    +0.000 HD
ENDBRANCH   5  10
BRANCH   1  16
ATOM     15  C   UNL     1      48.732  10.920  13.368  0.00  0.00    +0.000 C 
ATOM     16  C   UNL     1      48.268   9.529  12.900  0.00  0.00    +0.000 C 
ATOM     17  C   UNL     1      46.804   9.637  12.413  0.00  0.00    +0.000 C 
ATOM     18  C   UNL     1      49.080   9.103  11.669  0.00  0.00    +0.000 C 
ENDBRANCH   1  16
BRANCH   9  19
ATOM     19  C   UNL     1      48.324   6.269  12.932  0.00  0.00    +0.000 C 
BRANCH  19  20
ATOM     20  C   UNL     1      46.890   5.902  12.599  0.00  0.00    +0.000 A 
ATOM     21  C   UNL     1      46.339   6.280  11.360  0.00  0.00    +0.000 A 
ATOM     22  C   UNL     1      44.990   6.040  11.071  0.00  0.00    +0.000 A 
ATOM     23  C   UNL     1      44.164   5.393  12.001  0.00  0.00    +0.000 A 
ATOM     24  C   UNL     1      44.726   4.958  13.202  0.00  0.00    +0.000 A 
ATOM     25  C   UNL     1      46.072   5.195  13.492  0.00  0.00    +0.000 A 
BRANCH  23  26
ATOM     26  C   UNL     1      42.689   5.214  11.743  0.00  0.00    +0.000 C 
BRANCH  26  27
ATOM     27  N   UNL     1      41.969   6.481  11.778  0.00  0.00    +0.000 NA
ATOM     28  H   UNL     1      42.257   7.045  10.980  0.00  0.00    +0.000 HD
ATOM     29  H   UNL     1      42.240   6.996  12.613  0.00  0.00    +0.000 HD
ENDBRANCH  26  27
ENDBRANCH  23  26
ENDBRANCH  19  20
ENDBRANCH   9  19
TORSDOF 6
ENDMDL
MODEL 6
REMARK VINA RESULT:    -5.673      3.370      5.431
REMARK INTER + INTRA:          -8.420
REMARK INTER:                  -7.724
REMARK INTRA:                  -0.696
REMARK UNBOUND:                -0.923
REMARK  Name = 
REMARK  9 active torsions:
REMARK  status: ('A' for Active; 'I' for Inactive)
REMARK    1  A    between atoms: C_1  and  C_2
REMARK    2  A    between atoms: C_2  and  C_3
REMARK    3  A    between atoms: C_2  and  C_4
REMARK    4  A    between atoms: C_2  and  C_5
REMARK    5  A    between atoms: C_9  and  C_10
REMARK    6  A    between atoms: N_16  and  C_17
REMARK    7  A    between atoms: C_17  and  C_18
REMARK    8  A    between atoms: C_21  and  C_22
REMARK    9  A    between atoms: C_22  and  N_23
REMARK                            x       y       z     vdW  Elec       q    Type
REMARK                         _______ _______ _______ _____ _____    ______ ____
ROOT
ATOM      1  C   UNL     1      47.925   6.585  14.294  0.00  0.00    +0.000 A 
ATOM      2  N   UNL     1      47.389   5.371  14.357  0.00  0.00    +0.000 NA
ATOM      3  C   UNL     1      46.653   5.203  13.217  0.00  0.00    +0.000 A 
ATOM      4  C   UNL     1      45.863   4.129  12.776  0.00  0.00    +0.000 A 
ATOM      5  C   UNL     1      45.221   4.270  11.539  0.00  0.00    +0.000 A 
ATOM      6  C   UNL     1      45.412   5.456  10.823  0.00  0.00    +0.000 A 
ATOM      7  N   UNL     1      46.167   6.521  11.212  0.00  0.00    +0.000 NA
ATOM      8  C   UNL     1      46.747   6.325  12.411  0.00  0.00    +0.000 A 
ATOM      9  N   UNL     1      47.519   7.216  13.125  0.00  0.00    +0.000 N 
ENDROOT
BRANCH   5  10
ATOM     10  C   UNL     1      44.341   3.240  10.941  0.00  0.00    +0.000 C 
ATOM     11  N   UNL     1      44.879   2.333  10.072  0.00  0.00    +0.000 N 
ATOM     12  O   UNL     1      43.144   3.188  11.212  0.00  0.00    +0.000 OA
ATOM     13  H   UNL     1      45.845   2.293   9.788  0.00  0.00    +0.000 HD
ATOM     14  H   UNL     1      44.246   1.640   9.683  0.00  0.00    +0.000 HD
ENDBRANCH   5  10
BRANCH   1  16
ATOM     15  C   UNL     1      48.912   6.137  16.540  0.00  0.00    +0.000 C 
ATOM     16  C   UNL     1      48.916   7.104  15.343  0.00  0.00    +0.000 C 
ATOM     17  C   UNL     1      48.452   8.496  15.833  0.00  0.00    +0.000 C 
ATOM     18  C   UNL     1      50.356   7.302  14.847  0.00  0.00    +0.000 C 
ENDBRANCH   1  16
BRANCH   9  19
ATOM     19  C   UNL     1      47.777   8.578  12.666  0.00  0.00    +0.000 C 
BRANCH  19  20
ATOM     20  C   UNL     1      49.140   8.732  12.017  0.00  0.00    +0.000 A 
ATOM     21  C   UNL     1      49.742   7.630  11.381  0.00  0.00    +0.000 A 
ATOM     22  C   UNL     1      51.040   7.721  10.862  0.00  0.00    +0.000 A 
ATOM     23  C   UNL     1      51.758   8.922  10.941  0.00  0.00    +0.000 A 
ATOM     24  C   UNL     1      51.136  10.035  11.511  0.00  0.00    +0.000 A 
ATOM     25  C   UNL     1      49.841   9.946  12.028  0.00  0.00    +0.000 A 
BRANCH  23  26
ATOM     26  C   UNL     1      53.189   9.008  10.474  0.00  0.00    +0.000 C 
BRANCH  26  27
ATOM     27  N   UNL     1      53.947   7.810  10.809  0.00  0.00    +0.000 NA
ATOM     28  H   UNL     1      53.311   7.015  10.839  0.00  0.00    +0.000 HD
ATOM     29  H   UNL     1      54.334   7.910  11.745  0.00  0.00    +0.000 HD
ENDBRANCH  26  27
ENDBRANCH  23  26
ENDBRANCH  19  20
ENDBRANCH   9  19
TORSDOF 6
ENDMDL
MODEL 7
REMARK VINA RESULT:    -5.575      3.789      7.524
REMARK INTER + INTRA:          -8.291
REMARK INTER:                  -7.731
REMARK INTRA:                  -0.560
REMARK UNBOUND:                -0.923
REMARK  Name = 
REMARK  9 active torsions:
REMARK  status: ('A' for Active; 'I' for Inactive)
REMARK    1  A    between atoms: C_1  and  C_2
REMARK    2  A    between atoms: C_2  and  C_3
REMARK    3  A    between atoms: C_2  and  C_4
REMARK    4  A    between atoms: C_2  and  C_5
REMARK    5  A    between atoms: C_9  and  C_10
REMARK    6  A    between atoms: N_16  and  C_17
REMARK    7  A    between atoms: C_17  and  C_18
REMARK    8  A    between atoms: C_21  and  C_22
REMARK    9  A    between atoms: C_22  and  N_23
REMARK                            x       y       z     vdW  Elec       q    Type
REMARK                         _______ _______ _______ _____ _____    ______ ____
ROOT
ATOM      1  C   UNL     1      47.775   7.221  13.655  0.00  0.00    +0.000 A 
ATOM      2  N   UNL     1      48.753   6.956  14.516  0.00  0.00    +0.000 NA
ATOM      3  C   UNL     1      48.387   5.828  15.196  0.00  0.00    +0.000 A 
ATOM      4  C   UNL     1      49.026   5.123  16.228  0.00  0.00    +0.000 A 
ATOM      5  C   UNL     1      48.378   3.985  16.726  0.00  0.00    +0.000 A 
ATOM      6  C   UNL     1      47.151   3.621  16.163  0.00  0.00    +0.000 A 
ATOM      7  N   UNL     1      46.495   4.275  15.164  0.00  0.00    +0.000 NA
ATOM      8  C   UNL     1      47.166   5.362  14.738  0.00  0.00    +0.000 A 
ATOM      9  N   UNL     1      46.763   6.280  13.793  0.00  0.00    +0.000 N 
ENDROOT
BRANCH   5  10
ATOM     10  C   UNL     1      48.908   3.142  17.822  0.00  0.00    +0.000 C 
ATOM     11  N   UNL     1      48.269   3.147  19.030  0.00  0.00    +0.000 N 
ATOM     12  O   UNL     1      49.904   2.441  17.663  0.00  0.00    +0.000 OA
ATOM     13  H   UNL     1      47.447   3.685  19.258  0.00  0.00    +0.000 HD
ATOM     14  H   UNL     1      48.659   2.554  19.757  0.00  0.00    +0.000 HD
ENDBRANCH   5  10
BRANCH   1  16
ATOM     15  C   UNL     1      48.616   7.828  11.388  0.00  0.00    +0.000 C 
ATOM     16  C   UNL     1      47.868   8.354  12.626  0.00  0.00    +0.000 C 
ATOM     17  C   UNL     1      48.679   9.523  13.231  0.00  0.00    +0.000 C 
ATOM     18  C   UNL     1      46.527   8.964  12.195  0.00  0.00    +0.000 C 
ENDBRANCH   1  16
BRANCH   9  19
ATOM     19  C   UNL     1      45.463   6.211  13.132  0.00  0.00    +0.000 C 
BRANCH  19  20
ATOM     20  C   UNL     1      45.485   5.360  11.876  0.00  0.00    +0.000 A 
ATOM     21  C   UNL     1      45.816   5.946  10.639  0.00  0.00    +0.000 A 
ATOM     22  C   UNL     1      45.747   5.205   9.453  0.00  0.00    +0.000 A 
ATOM     23  C   UNL     1      45.371   3.854   9.474  0.00  0.00    +0.000 A 
ATOM     24  C   UNL     1      45.109   3.256  10.708  0.00  0.00    +0.000 A 
ATOM     25  C   UNL     1      45.178   3.992  11.893  0.00  0.00    +0.000 A 
BRANCH  23  26
ATOM     26  C   UNL     1      45.200   3.071   8.198  0.00  0.00    +0.000 C 
BRANCH  26  27
ATOM     27  N   UNL     1      45.911   3.682   7.081  0.00  0.00    +0.000 NA
ATOM     28  H   UNL     1      46.265   2.944   6.474  0.00  0.00    +0.000 HD
ATOM     29  H   UNL     1      46.721   4.184   7.436  0.00  0.00    +0.000 HD
ENDBRANCH  26  27
ENDBRANCH  23  26
ENDBRANCH  19  20
ENDBRANCH   9  19
TORSDOF 6
ENDMDL
MODEL 8
REMARK VINA RESULT:    -5.436      4.215      6.555
REMARK INTER + INTRA:          -8.107
REMARK INTER:                  -7.510
REMARK INTRA:                  -0.597
REMARK UNBOUND:                -0.923
REMARK  Name = 
REMARK  9 active torsions:
REMARK  status: ('A' for Active; 'I' for Inactive)
REMARK    1  A    between atoms: C_1  and  C_2
REMARK    2  A    between atoms: C_2  and  C_3
REMARK    3  A    between atoms: C_2  and  C_4
REMARK    4  A    between atoms: C_2  and  C_5
REMARK    5  A    between atoms: C_9  and  C_10
REMARK    6  A    between atoms: N_16  and  C_17
REMARK    7  A    between atoms: C_17  and  C_18
REMARK    8  A    between atoms: C_21  and  C_22
REMARK    9  A    between atoms: C_22  and  N_23
REMARK                            x       y       z     vdW  Elec       q    Type
REMARK                         _______ _______ _______ _____ _____    ______ ____
ROOT
ATOM      1  C   UNL     1      46.187   5.020  13.012  0.00  0.00    +0.000 A 
ATOM      2  N   UNL     1      46.402   3.887  13.672  0.00  0.00    +0.000 NA
ATOM      3  C   UNL     1      47.169   4.201  14.759  0.00  0.00    +0.000 A 
ATOM      4  C   UNL     1      47.707   3.395  15.776  0.00  0.00    +0.000 A 
ATOM      5  C   UNL     1      48.467   4.031  16.765  0.00  0.00    +0.000 A 
ATOM      6  C   UNL     1      48.633   5.418  16.686  0.00  0.00    +0.000 A 
ATOM      7  N   UNL     1      48.132   6.236  15.719  0.00  0.00    +0.000 NA
ATOM      8  C   UNL     1      47.421   5.563  14.796  0.00  0.00    +0.000 A 
ATOM      9  N   UNL     1      46.833   6.067  13.657  0.00  0.00    +0.000 N 
ENDROOT
BRANCH   5  10
ATOM     10  C   UNL     1      49.116   3.326  17.894  0.00  0.00    +0.000 C 
ATOM     11  N   UNL     1      48.400   3.107  19.037  0.00  0.00    +0.000 N 
ATOM     12  O   UNL     1      50.278   2.935  17.818  0.00  0.00    +0.000 OA
ATOM     13  H   UNL     1      47.445   3.387  19.195  0.00  0.00    +0.000 HD
ATOM     14  H   UNL     1      48.876   2.617  19.789  0.00  0.00    +0.000 HD
ENDBRANCH   5  10
BRANCH   1  16
ATOM     15  C   UNL     1      43.975   5.830  12.193  0.00  0.00    +0.000 C 
ATOM     16  C   UNL     1      45.267   5.099  11.787  0.00  0.00    +0.000 C 
ATOM     17  C   UNL     1      44.900   3.666  11.337  0.00  0.00    +0.000 C 
ATOM     18  C   UNL     1      45.874   5.775  10.550  0.00  0.00    +0.000 C 
ENDBRANCH   1  16
BRANCH   9  19
ATOM     19  C   UNL     1      46.956   7.467  13.261  0.00  0.00    +0.000 C 
BRANCH  19  20
ATOM     20  C   UNL     1      48.368   7.842  12.849  0.00  0.00    +0.000 A 
ATOM     21  C   UNL     1      48.897   7.354  11.640  0.00  0.00    +0.000 A 
ATOM     22  C   UNL     1      50.230   7.605  11.287  0.00  0.00    +0.000 A 
ATOM     23  C   UNL     1      51.058   8.369  12.121  0.00  0.00    +0.000 A 
ATOM     24  C   UNL     1      50.513   8.909  13.287  0.00  0.00    +0.000 A 
ATOM     25  C   UNL     1      49.185   8.662  13.641  0.00  0.00    +0.000 A 
BRANCH  23  26
ATOM     26  C   UNL     1      52.518   8.566  11.802  0.00  0.00    +0.000 C 
BRANCH  26  27
ATOM     27  N   UNL     1      53.382   7.825  12.711  0.00  0.00    +0.000 NA
ATOM     28  H   UNL     1      54.006   8.481  13.180  0.00  0.00    +0.000 HD
ATOM     29  H   UNL     1      53.972   7.195  12.173  0.00  0.00    +0.000 HD
ENDBRANCH  26  27
ENDBRANCH  23  26
ENDBRANCH  19  20
ENDBRANCH   9  19
TORSDOF 6
ENDMDL
MODEL 9
REMARK VINA RESULT:    -5.367      4.016      6.388
REMARK INTER + INTRA:          -8.016
REMARK INTER:                  -7.402
REMARK INTRA:                  -0.614
REMARK UNBOUND:                -0.923
REMARK  Name = 
REMARK  9 active torsions:
REMARK  status: ('A' for Active; 'I' for Inactive)
REMARK    1  A    between atoms: C_1  and  C_2
REMARK    2  A    between atoms: C_2  and  C_3
REMARK    3  A    between atoms: C_2  and  C_4
REMARK    4  A    between atoms: C_2  and  C_5
REMARK    5  A    between atoms: C_9  and  C_10
REMARK    6  A    between atoms: N_16  and  C_17
REMARK    7  A    between atoms: C_17  and  C_18
REMARK    8  A    between atoms: C_21  and  C_22
REMARK    9  A    between atoms: C_22  and  N_23
REMARK                            x       y       z     vdW  Elec       q    Type
REMARK                         _______ _______ _______ _____ _____    ______ ____
ROOT
ATOM      1  C   UNL     1      48.035   4.454  16.031  0.00  0.00    +0.000 A 
ATOM      2  N   UNL     1      47.029   3.918  15.346  0.00  0.00    +0.000 NA
ATOM      3  C   UNL     1      46.690   4.815  14.372  0.00  0.00    +0.000 A 
ATOM      4  C   UNL     1      45.689   4.777  13.388  0.00  0.00    +0.000 A 
ATOM      5  C   UNL     1      45.593   5.876  12.526  0.00  0.00    +0.000 A 
ATOM      6  C   UNL     1      46.497   6.930  12.692  0.00  0.00    +0.000 A 
ATOM      7  N   UNL     1      47.480   7.010  13.632  0.00  0.00    +0.000 NA
ATOM      8  C   UNL     1      47.512   5.928  14.431  0.00  0.00    +0.000 A 
ATOM      9  N   UNL     1      48.332   5.711  15.517  0.00  0.00    +0.000 N 
ENDROOT
BRANCH   5  10
ATOM     10  C   UNL     1      44.585   6.000  11.449  0.00  0.00    +0.000 C 
ATOM     11  N   UNL     1      43.842   7.143  11.364  0.00  0.00    +0.000 N 
ATOM     12  O   UNL     1      44.409   5.098  10.634  0.00  0.00    +0.000 OA
ATOM     13  H   UNL     1      43.912   7.937  11.982  0.00  0.00    +0.000 HD
ATOM     14  H   UNL     1      43.162   7.194  10.611  0.00  0.00    +0.000 HD
ENDBRANCH   5  10
BRANCH   1  16
ATOM     15  C   UNL     1      48.896   2.221  16.728  0.00  0.00    +0.000 C 
ATOM     16  C   UNL     1      48.773   3.698  17.142  0.00  0.00    +0.000 C 
ATOM     17  C   UNL     1      47.943   3.776  18.445  0.00  0.00    +0.000 C 
ATOM     18  C   UNL     1      50.159   4.247  17.504  0.00  0.00    +0.000 C 
ENDBRANCH   1  16
BRANCH   9  19
ATOM     19  C   UNL     1      49.290   6.705  15.992  0.00  0.00    +0.000 C 
BRANCH  19  20
ATOM     20  C   UNL     1      48.665   7.729  16.921  0.00  0.00    +0.000 A 
ATOM     21  C   UNL     1      48.468   9.050  16.476  0.00  0.00    +0.000 A 
ATOM     22  C   UNL     1      47.986  10.036  17.347  0.00  0.00    +0.000 A 
ATOM     23  C   UNL     1      47.663   9.721  18.674  0.00  0.00    +0.000 A 
ATOM     24  C   UNL     1      47.794   8.397  19.096  0.00  0.00    +0.000 A 
ATOM     25  C   UNL     1      48.274   7.412  18.230  0.00  0.00    +0.000 A 
BRANCH  23  26
ATOM     26  C   UNL     1      47.234  10.790  19.647  0.00  0.00    +0.000 C 
BRANCH  26  27
ATOM     27  N   UNL     1      45.985  10.452  20.317  0.00  0.00    +0.000 NA
ATOM     28  H   UNL     1      45.486  11.312  20.537  0.00  0.00    +0.000 HD
ATOM     29  H   UNL     1      46.193   9.999  21.204  0.00  0.00    +0.000 HD
ENDBRANCH  26  27
ENDBRANCH  23  26
ENDBRANCH  19  20
ENDBRANCH   9  19
TORSDOF 6
ENDMDL
