MODEL 1
REMARK VINA RESULT:    -9.260      0.000      0.000
REMARK INTER + INTRA:         -12.676
REMARK INTER:                 -11.425
REMARK INTRA:                  -1.250
REMARK UNBOUND:                -1.250
REMARK  Name = 
REMARK  4 active torsions:
REMARK  status: ('A' for Active; 'I' for Inactive)
REMARK    1  A    between atoms: C_2  and  C_4
REMARK    2  A    between atoms: N_8  and  C_9
REMARK    3  A    between atoms: C_9  and  C_10
REMARK    4  A    between atoms: C_14  and  C_15
REMARK                            x       y       z     vdW  Elec       q    Type
REMARK                         _______ _______ _______ _____ _____    ______ ____
ROOT
ATOM      1  C   UNL     1      43.788   4.862  11.379  0.00  0.00    +0.000 C 
ATOM      2  C   UNL     1      42.437   5.153  12.017  0.00  0.00    +0.000 C 
ATOM      3  C   UNL     1      43.011   6.117  11.036  0.00  0.00    +0.000 C 
ENDROOT
BRANCH   1   8
ATOM      4  C   UNL     1      46.561   2.785   7.492  0.00  0.00    +0.000 A 
ATOM      5  C   UNL     1      46.180   4.114   7.662  0.00  0.00    +0.000 A 
ATOM      6  C   UNL     1      45.293   4.445   8.693  0.00  0.00    +0.000 A 
ATOM      7  C   UNL     1      44.799   3.448   9.523  0.00  0.00    +0.000 A 
ATOM      8  N   UNL     1      43.820   3.675  10.498  0.00  0.00    +0.000 N 
ATOM      9  N   UNL     1      45.165   2.156   9.370  0.00  0.00    +0.000 NA
ATOM     10  C   UNL     1      46.027   1.850   8.365  0.00  0.00    +0.000 A 
ATOM     11  H   UNL     1      43.722   2.783  10.979  0.00  0.00    +0.000 HD
BRANCH   4  13
ATOM     12  N   UNL     1      47.348   2.970   5.204  0.00  0.00    +0.000 N 
ATOM     13  C   UNL     1      47.451   2.332   6.406  0.00  0.00    +0.000 C 
ATOM     14  O   UNL     1      48.265   1.431   6.579  0.00  0.00    +0.000 OA
ATOM     15  H   UNL     1      48.020   2.709   4.496  0.00  0.00    +0.000 HD
ATOM     16  H   UNL     1      46.874   3.854   5.090  0.00  0.00    +0.000 HD
ENDBRANCH   4  13
ENDBRANCH   1   8
BRANCH   1  17
ATOM     17  C   UNL     1      45.047   4.991  12.231  0.00  0.00    +0.000 A 
ATOM     18  C   UNL     1      45.544   3.928  13.001  0.00  0.00    +0.000 A 
ATOM     19  C   UNL     1      46.779   4.016  13.642  0.00  0.00    +0.000 A 
ATOM     20  C   UNL     1      47.561   5.163  13.500  0.00  0.00    +0.000 A 
ATOM     21  C   UNL     1      47.118   6.251  12.732  0.00  0.00    +0.000 A 
ATOM     22  C   UNL     1      45.839   6.153  12.152  0.00  0.00    +0.000 A 
BRANCH  21  23
ATOM     23  C   UNL     1      47.994   7.399  12.414  0.00  0.00    +0.000 A 
ATOM     24  C   UNL     1      49.382   7.224  12.268  0.00  0.00    +0.000 A 
ATOM     25  C   UNL     1      50.195   8.270  11.835  0.00  0.00    +0.000 A 
ATOM     26  F   UNL     1      51.508   8.058  11.682  0.00  0.00    +0.000 F 
ATOM     27  C   UNL     1      49.666   9.513  11.533  0.00  0.00    +0.000 A 
ATOM     28  C   UNL     1      48.303   9.705  11.692  0.00  0.00    +0.000 A 
ATOM     29  F   UNL     1      47.767  10.893  11.388  0.00  0.00    +0.000 F 
ATOM     30  C   UNL     1      47.474   8.676  12.136  0.00  0.00    +0.000 A 
ENDBRANCH  21  23
ENDBRANCH   1  17
TORSDOF 4
ENDMDL
MODEL 2
REMARK VINA RESULT:    -9.112      2.671      3.917
REMARK INTER + INTRA:         -12.493
REMARK INTER:                 -11.872
REMARK INTRA:                  -0.620
REMARK UNBOUND:                -1.250
REMARK  Name = 
REMARK  4 active torsions:
REMARK  status: ('A' for Active; 'I' for Inactive)
REMARK    1  A    between atoms: C_2  and  C_4
REMARK    2  A    between atoms: N_8  and  C_9
REMARK    3  A    between atoms: C_9  and  C_10
REMARK    4  A    between atoms: C_14  and  C_15
REMARK                            x       y       z     vdW  Elec       q    Type
REMARK                         _______ _______ _______ _____ _____    ______ ____
ROOT
ATOM      1  C   UNL     1      43.990   4.959  11.503  0.00  0.00    +0.000 C 
ATOM      2  C   UNL     1      42.851   5.088  12.505  0.00  0.00    +0.000 C 
ATOM      3  C   UNL     1      42.925   6.025  11.349  0.00  0.00    +0.000 C 
ENDROOT
BRANCH   1   8
ATOM      4  C   UNL     1      46.421   2.710   7.486  0.00  0.00    +0.000 A 
ATOM      5  C   UNL     1      45.988   4.029   7.600  0.00  0.00    +0.000 A 
ATOM      6  C   UNL     1      45.206   4.400   8.699  0.00  0.00    +0.000 A 
ATOM      7  C   UNL     1      44.864   3.450   9.653  0.00  0.00    +0.000 A 
ATOM      8  N   UNL     1      43.989   3.707  10.715  0.00  0.00    +0.000 N 
ATOM      9  N   UNL     1      45.282   2.168   9.554  0.00  0.00    +0.000 NA
ATOM     10  C   UNL     1      46.042   1.824   8.482  0.00  0.00    +0.000 A 
ATOM     11  H   UNL     1      43.996   2.853  11.270  0.00  0.00    +0.000 HD
BRANCH   4  13
ATOM     12  N   UNL     1      47.245   2.993   5.221  0.00  0.00    +0.000 N 
ATOM     13  C   UNL     1      47.208   2.214   6.341  0.00  0.00    +0.000 C 
ATOM     14  O   UNL     1      47.820   1.153   6.396  0.00  0.00    +0.000 OA
ATOM     15  H   UNL     1      47.855   2.685   4.477  0.00  0.00    +0.000 HD
ATOM     16  H   UNL     1      46.962   3.962   5.216  0.00  0.00    +0.000 HD
ENDBRANCH   4  13
ENDBRANCH   1   8
BRANCH   1  17
ATOM     17  C   UNL     1      45.394   5.381  11.927  0.00  0.00    +0.000 A 
ATOM     18  C   UNL     1      46.135   6.338  11.217  0.00  0.00    +0.000 A 
ATOM     19  C   UNL     1      47.345   6.826  11.709  0.00  0.00    +0.000 A 
ATOM     20  C   UNL     1      47.825   6.389  12.945  0.00  0.00    +0.000 A 
ATOM     21  C   UNL     1      47.118   5.442  13.702  0.00  0.00    +0.000 A 
ATOM     22  C   UNL     1      45.933   4.923  13.144  0.00  0.00    +0.000 A 
BRANCH  21  23
ATOM     23  C   UNL     1      47.502   5.095  15.087  0.00  0.00    +0.000 A 
ATOM     24  C   UNL     1      47.026   3.918  15.691  0.00  0.00    +0.000 A 
ATOM     25  C   UNL     1      47.490   3.514  16.942  0.00  0.00    +0.000 A 
ATOM     26  F   UNL     1      47.033   2.374  17.473  0.00  0.00    +0.000 F 
ATOM     27  C   UNL     1      48.435   4.256  17.630  0.00  0.00    +0.000 A 
ATOM     28  C   UNL     1      48.898   5.428  17.056  0.00  0.00    +0.000 A 
ATOM     29  F   UNL     1      49.826   6.152  17.695  0.00  0.00    +0.000 F 
ATOM     30  C   UNL     1      48.437   5.857  15.811  0.00  0.00    +0.000 A 
ENDBRANCH  21  23
ENDBRANCH   1  17
TORSDOF 4
ENDMDL
MODEL 3
REMARK VINA RESULT:    -7.593      4.181      7.200
REMARK INTER + INTRA:         -10.619
REMARK INTER:                  -9.609
REMARK INTRA:                  -1.010
REMARK UNBOUND:                -1.250
REMARK  Name = 
REMARK  4 active torsions:
REMARK  status: ('A' for Active; 'I' for Inactive)
REMARK    1  A    between atoms: C_2  and  C_4
REMARK    2  A    between atoms: N_8  and  C_9
REMARK    3  A    between atoms: C_9  and  C_10
REMARK    4  A    between atoms: C_14  and  C_15
REMARK                            x       y       z     vdW  Elec       q    Type
REMARK                         _______ _______ _______ _____ _____    ______ ____
ROOT
ATOM      1  C   UNL     1      46.248   5.114  13.315  0.00  0.00    +0.000 C 
ATOM      2  C   UNL     1      46.313   4.185  14.520  0.00  0.00    +0.000 C 
ATOM      3  C   UNL     1      47.431   4.193  13.534  0.00  0.00    +0.000 C 
ENDROOT
BRANCH   1   8
ATOM      4  C   UNL     1      48.345   9.573  11.635  0.00  0.00    +0.000 A 
ATOM      5  C   UNL     1      48.954   8.326  11.749  0.00  0.00    +0.000 A 
ATOM      6  C   UNL     1      48.265   7.283  12.378  0.00  0.00    +0.000 A 
ATOM      7  C   UNL     1      46.994   7.507  12.888  0.00  0.00    +0.000 A 
ATOM      8  N   UNL     1      46.287   6.557  13.636  0.00  0.00    +0.000 N 
ATOM      9  N   UNL     1      46.391   8.712  12.780  0.00  0.00    +0.000 NA
ATOM     10  C   UNL     1      47.073   9.714  12.165  0.00  0.00    +0.000 A 
ATOM     11  H   UNL     1      45.376   6.983  13.802  0.00  0.00    +0.000 HD
BRANCH   4  13
ATOM     12  N   UNL     1      50.227  11.102  11.533  0.00  0.00    +0.000 N 
ATOM     13  C   UNL     1      49.009  10.745  11.032  0.00  0.00    +0.000 C 
ATOM     14  O   UNL     1      48.498  11.363  10.104  0.00  0.00    +0.000 OA
ATOM     15  H   UNL     1      50.709  11.851  11.057  0.00  0.00    +0.000 HD
ATOM     16  H   UNL     1      50.781  10.494  12.118  0.00  0.00    +0.000 HD
ENDBRANCH   4  13
ENDBRANCH   1   8
BRANCH   1  17
ATOM     17  C   UNL     1      45.269   4.792  12.190  0.00  0.00    +0.000 A 
ATOM     18  C   UNL     1      44.014   5.413  12.086  0.00  0.00    +0.000 A 
ATOM     19  C   UNL     1      43.205   5.224  10.967  0.00  0.00    +0.000 A 
ATOM     20  C   UNL     1      43.650   4.432   9.907  0.00  0.00    +0.000 A 
ATOM     21  C   UNL     1      44.900   3.798   9.953  0.00  0.00    +0.000 A 
ATOM     22  C   UNL     1      45.663   3.957  11.126  0.00  0.00    +0.000 A 
BRANCH  21  23
ATOM     23  C   UNL     1      45.475   3.105   8.780  0.00  0.00    +0.000 A 
ATOM     24  C   UNL     1      45.865   3.828   7.639  0.00  0.00    +0.000 A 
ATOM     25  C   UNL     1      46.532   3.203   6.586  0.00  0.00    +0.000 A 
ATOM     26  F   UNL     1      46.912   3.930   5.528  0.00  0.00    +0.000 F 
ATOM     27  C   UNL     1      46.834   1.853   6.629  0.00  0.00    +0.000 A 
ATOM     28  C   UNL     1      46.437   1.124   7.738  0.00  0.00    +0.000 A 
ATOM     29  F   UNL     1      46.735  -0.180   7.809  0.00  0.00    +0.000 F 
ATOM     30  C   UNL     1      45.758   1.727   8.796  0.00  0.00    +0.000 A 
ENDBRANCH  21  23
ENDBRANCH   1  17
TORSDOF 4
ENDMDL
MODEL 4
REMARK VINA RESULT:    -7.465      5.107      8.279
REMARK INTER + INTRA:         -10.460
REMARK INTER:                  -9.372
REMARK INTRA:                  -1.088
REMARK UNBOUND:                -1.250
REMARK  Name = 
REMARK  4 active torsions:
REMARK  status: ('A' for Active; 'I' for Inactive)
REMARK    1  A    between atoms: C_2  and  C_4
REMARK    2  A    between atoms: N_8  and  C_9
REMARK    3  A    between atoms: C_9  and  C_10
REMARK    4  A    between atoms: C_14  and  C_15
REMARK                            x       y       z     vdW  Elec       q    Type
REMARK                         _______ _______ _______ _____ _____    ______ ____
ROOT
ATOM      1  C   UNL     1      49.042   7.953  12.615  0.00  0.00    +0.000 C 
ATOM      2  C   UNL     1      49.973   8.137  11.424  0.00  0.00    +0.000 C 
ATOM      3  C   UNL     1      49.735   9.275  12.357  0.00  0.00    +0.000 C 
ENDROOT
BRANCH   1   8
ATOM      4  C   UNL     1      48.426   6.763  17.646  0.00  0.00    +0.000 A 
ATOM      5  C   UNL     1      48.559   8.025  17.071  0.00  0.00    +0.000 A 
ATOM      6  C   UNL     1      48.880   8.127  15.713  0.00  0.00    +0.000 A 
ATOM      7  C   UNL     1      49.072   6.975  14.962  0.00  0.00    +0.000 A 
ATOM      8  N   UNL     1      49.512   6.989  13.632  0.00  0.00    +0.000 N 
ATOM      9  N   UNL     1      48.942   5.746  15.508  0.00  0.00    +0.000 NA
ATOM     10  C   UNL     1      48.628   5.663  16.828  0.00  0.00    +0.000 A 
ATOM     11  H   UNL     1      49.485   6.013  13.341  0.00  0.00    +0.000 HD
BRANCH   4  13
ATOM     12  N   UNL     1      47.130   5.688  19.394  0.00  0.00    +0.000 N 
ATOM     13  C   UNL     1      48.138   6.553  19.078  0.00  0.00    +0.000 C 
ATOM     14  O   UNL     1      48.788   7.118  19.951  0.00  0.00    +0.000 OA
ATOM     15  H   UNL     1      46.999   5.488  20.375  0.00  0.00    +0.000 HD
ATOM     16  H   UNL     1      46.739   5.035  18.732  0.00  0.00    +0.000 HD
ENDBRANCH   4  13
ENDBRANCH   1   8
BRANCH   1  17
ATOM     17  C   UNL     1      47.539   7.854  12.366  0.00  0.00    +0.000 A 
ATOM     18  C   UNL     1      46.679   8.951  12.522  0.00  0.00    +0.000 A 
ATOM     19  C   UNL     1      45.341   8.881  12.136  0.00  0.00    +0.000 A 
ATOM     20  C   UNL     1      44.842   7.716  11.551  0.00  0.00    +0.000 A 
ATOM     21  C   UNL     1      45.661   6.593  11.361  0.00  0.00    +0.000 A 
ATOM     22  C   UNL     1      46.989   6.677  11.822  0.00  0.00    +0.000 A 
BRANCH  21  23
ATOM     23  C   UNL     1      45.216   5.415  10.585  0.00  0.00    +0.000 A 
ATOM     24  C   UNL     1      45.664   5.211   9.268  0.00  0.00    +0.000 A 
ATOM     25  C   UNL     1      45.360   4.038   8.580  0.00  0.00    +0.000 A 
ATOM     26  F   UNL     1      45.827   3.868   7.337  0.00  0.00    +0.000 F 
ATOM     27  C   UNL     1      44.609   3.035   9.169  0.00  0.00    +0.000 A 
ATOM     28  C   UNL     1      44.144   3.231  10.458  0.00  0.00    +0.000 A 
ATOM     29  F   UNL     1      43.432   2.267  11.055  0.00  0.00    +0.000 F 
ATOM     30  C   UNL     1      44.426   4.403  11.160  0.00  0.00    +0.000 A 
ENDBRANCH  21  23
ENDBRANCH   1  17
TORSDOF 4
ENDMDL
MODEL 5
REMARK VINA RESULT:    -6.789      4.395      7.509
REMARK INTER + INTRA:          -9.626
REMARK INTER:                  -9.415
REMARK INTRA:                  -0.212
REMARK UNBOUND:                -1.250
REMARK  Name = 
REMARK  4 active torsions:
REMARK  status: ('A' for Active; 'I' for Inactive)
REMARK    1  A    between atoms: C_2  and  C_4
REMARK    2  A    between atoms: N_8  and  C_9
REMARK    3  A    between atoms: C_9  and  C_10
REMARK    4  A    between atoms: C_14  and  C_15
REMARK                            x       y       z     vdW  Elec       q    Type
REMARK                         _______ _______ _______ _____ _____    ______ ____
ROOT
ATOM      1  C   UNL     1      47.039   7.218  12.546  0.00  0.00    +0.000 C 
ATOM      2  C   UNL     1      48.377   7.178  11.819  0.00  0.00    +0.000 C 
ATOM      3  C   UNL     1      47.526   8.398  11.731  0.00  0.00    +0.000 C 
ENDROOT
BRANCH   1   8
ATOM      4  C   UNL     1      48.188   3.944  16.428  0.00  0.00    +0.000 A 
ATOM      5  C   UNL     1      47.429   3.692  15.287  0.00  0.00    +0.000 A 
ATOM      6  C   UNL     1      47.097   4.754  14.438  0.00  0.00    +0.000 A 
ATOM      7  C   UNL     1      47.517   6.041  14.748  0.00  0.00    +0.000 A 
ATOM      8  N   UNL     1      47.128   7.173  14.021  0.00  0.00    +0.000 N 
ATOM      9  N   UNL     1      48.256   6.296  15.851  0.00  0.00    +0.000 NA
ATOM     10  C   UNL     1      48.572   5.254  16.664  0.00  0.00    +0.000 A 
ATOM     11  H   UNL     1      47.647   7.942  14.442  0.00  0.00    +0.000 HD
BRANCH   4  13
ATOM     12  N   UNL     1      47.888   2.909  18.602  0.00  0.00    +0.000 N 
ATOM     13  C   UNL     1      48.546   2.900  17.406  0.00  0.00    +0.000 C 
ATOM     14  O   UNL     1      49.388   2.045  17.151  0.00  0.00    +0.000 OA
ATOM     15  H   UNL     1      48.080   2.140  19.229  0.00  0.00    +0.000 HD
ATOM     16  H   UNL     1      47.039   3.433  18.759  0.00  0.00    +0.000 HD
ENDBRANCH   4  13
ENDBRANCH   1   8
BRANCH   1  17
ATOM     17  C   UNL     1      45.883   6.382  12.005  0.00  0.00    +0.000 A 
ATOM     18  C   UNL     1      44.543   6.670  12.306  0.00  0.00    +0.000 A 
ATOM     19  C   UNL     1      43.499   5.995  11.675  0.00  0.00    +0.000 A 
ATOM     20  C   UNL     1      43.775   5.035  10.700  0.00  0.00    +0.000 A 
ATOM     21  C   UNL     1      45.096   4.716  10.351  0.00  0.00    +0.000 A 
ATOM     22  C   UNL     1      46.126   5.371  11.055  0.00  0.00    +0.000 A 
BRANCH  21  23
ATOM     23  C   UNL     1      45.418   3.842   9.202  0.00  0.00    +0.000 A 
ATOM     24  C   UNL     1      45.915   4.385   8.005  0.00  0.00    +0.000 A 
ATOM     25  C   UNL     1      46.350   3.561   6.968  0.00  0.00    +0.000 A 
ATOM     26  F   UNL     1      46.842   4.114   5.853  0.00  0.00    +0.000 F 
ATOM     27  C   UNL     1      46.308   2.182   7.083  0.00  0.00    +0.000 A 
ATOM     28  C   UNL     1      45.801   1.633   8.250  0.00  0.00    +0.000 A 
ATOM     29  F   UNL     1      45.769   0.302   8.391  0.00  0.00    +0.000 F 
ATOM     30  C   UNL     1      45.349   2.441   9.294  0.00  0.00    +0.000 A 
ENDBRANCH  21  23
ENDBRANCH   1  17
TORSDOF 4
ENDMDL
MODEL 6
REMARK VINA RESULT:    -6.757      4.326      6.882
REMARK INTER + INTRA:          -9.587
REMARK INTER:                  -8.360
REMARK INTRA:                  -1.227
REMARK UNBOUND:                -1.250
REMARK  Name = 
REMARK  4 active torsions:
REMARK  status: ('A' for Active; 'I' for Inactive)
REMARK    1  A    between atoms: C_2  and  C_4
REMARK    2  A    between atoms: N_8  and  C_9
REMARK    3  A    between atoms: C_9  and  C_10
REMARK    4  A    between atoms: C_14  and  C_15
REMARK                            x       y       z     vdW  Elec       q    Type
REMARK                         _______ _______ _______ _____ _____    ______ ____
ROOT
ATOM      1  C   UNL     1      48.862   8.331  12.699  0.00  0.00    +0.000 C 
ATOM      2  C   UNL     1      49.809   9.274  11.970  0.00  0.00    +0.000 C 
ATOM      3  C   UNL     1      50.043   7.804  11.911  0.00  0.00    +0.000 C 
ENDROOT
BRANCH   1   8
ATOM      4  C   UNL     1      44.633   5.296  12.579  0.00  0.00    +0.000 A 
ATOM      5  C   UNL     1      45.964   4.924  12.400  0.00  0.00    +0.000 A 
ATOM      6  C   UNL     1      46.945   5.918  12.306  0.00  0.00    +0.000 A 
ATOM      7  C   UNL     1      46.580   7.255  12.382  0.00  0.00    +0.000 A 
ATOM      8  N   UNL     1      47.478   8.310  12.178  0.00  0.00    +0.000 N 
ATOM      9  N   UNL     1      45.293   7.627  12.558  0.00  0.00    +0.000 NA
ATOM     10  C   UNL     1      44.352   6.650  12.649  0.00  0.00    +0.000 A 
ATOM     11  H   UNL     1      46.937   9.152  12.367  0.00  0.00    +0.000 HD
BRANCH   4  13
ATOM     12  N   UNL     1      42.625   4.334  11.614  0.00  0.00    +0.000 N 
ATOM     13  C   UNL     1      43.525   4.325  12.640  0.00  0.00    +0.000 C 
ATOM     14  O   UNL     1      43.423   3.527  13.566  0.00  0.00    +0.000 OA
ATOM     15  H   UNL     1      41.922   3.609  11.624  0.00  0.00    +0.000 HD
ATOM     16  H   UNL     1      42.800   4.797  10.734  0.00  0.00    +0.000 HD
ENDBRANCH   4  13
ENDBRANCH   1   8
BRANCH   1  17
ATOM     17  C   UNL     1      48.912   8.271  14.223  0.00  0.00    +0.000 A 
ATOM     18  C   UNL     1      48.519   9.349  15.030  0.00  0.00    +0.000 A 
ATOM     19  C   UNL     1      48.421   9.218  16.415  0.00  0.00    +0.000 A 
ATOM     20  C   UNL     1      48.684   7.988  17.021  0.00  0.00    +0.000 A 
ATOM     21  C   UNL     1      49.069   6.874  16.260  0.00  0.00    +0.000 A 
ATOM     22  C   UNL     1      49.221   7.060  14.873  0.00  0.00    +0.000 A 
BRANCH  21  23
ATOM     23  C   UNL     1      49.178   5.520  16.846  0.00  0.00    +0.000 A 
ATOM     24  C   UNL     1      48.051   4.685  16.937  0.00  0.00    +0.000 A 
ATOM     25  C   UNL     1      48.170   3.362  17.360  0.00  0.00    +0.000 A 
ATOM     26  F   UNL     1      47.078   2.589  17.408  0.00  0.00    +0.000 F 
ATOM     27  C   UNL     1      49.400   2.826  17.702  0.00  0.00    +0.000 A 
ATOM     28  C   UNL     1      50.516   3.644  17.637  0.00  0.00    +0.000 A 
ATOM     29  F   UNL     1      51.718   3.142  17.946  0.00  0.00    +0.000 F 
ATOM     30  C   UNL     1      50.416   4.974  17.229  0.00  0.00    +0.000 A 
ENDBRANCH  21  23
ENDBRANCH   1  17
TORSDOF 4
ENDMDL
MODEL 7
REMARK VINA RESULT:    -6.570      1.516      2.602
REMARK INTER + INTRA:          -9.356
REMARK INTER:                  -9.276
REMARK INTRA:                  -0.080
REMARK UNBOUND:                -1.250
REMARK  Name = 
REMARK  4 active torsions:
REMARK  status: ('A' for Active; 'I' for Inactive)
REMARK    1  A    between atoms: C_2  and  C_4
REMARK    2  A    between atoms: N_8  and  C_9
REMARK    3  A    between atoms: C_9  and  C_10
REMARK    4  A    between atoms: C_14  and  C_15
REMARK                            x       y       z     vdW  Elec       q    Type
REMARK                         _______ _______ _______ _____ _____    ______ ____
ROOT
ATOM      1  C   UNL     1      43.994   4.318  11.791  0.00  0.00    +0.000 C 
ATOM      2  C   UNL     1      44.771   3.574  12.869  0.00  0.00    +0.000 C 
ATOM      3  C   UNL     1      43.342   3.928  13.102  0.00  0.00    +0.000 C 
ENDROOT
BRANCH   1   8
ATOM      4  C   UNL     1      46.431   3.094   7.356  0.00  0.00    +0.000 A 
ATOM      5  C   UNL     1      46.397   4.325   8.007  0.00  0.00    +0.000 A 
ATOM      6  C   UNL     1      45.548   4.494   9.106  0.00  0.00    +0.000 A 
ATOM      7  C   UNL     1      44.747   3.441   9.526  0.00  0.00    +0.000 A 
ATOM      8  N   UNL     1      43.785   3.562  10.537  0.00  0.00    +0.000 N 
ATOM      9  N   UNL     1      44.774   2.241   8.904  0.00  0.00    +0.000 NA
ATOM     10  C   UNL     1      45.605   2.092   7.839  0.00  0.00    +0.000 A 
ATOM     11  H   UNL     1      43.421   2.619  10.662  0.00  0.00    +0.000 HD
BRANCH   4  13
ATOM     12  N   UNL     1      48.570   2.527   6.361  0.00  0.00    +0.000 N 
ATOM     13  C   UNL     1      47.256   2.834   6.161  0.00  0.00    +0.000 C 
ATOM     14  O   UNL     1      46.778   2.874   5.032  0.00  0.00    +0.000 OA
ATOM     15  H   UNL     1      49.103   2.268   5.543  0.00  0.00    +0.000 HD
ATOM     16  H   UNL     1      48.940   2.253   7.259  0.00  0.00    +0.000 HD
ENDBRANCH   4  13
ENDBRANCH   1   8
BRANCH   1  17
ATOM     17  C   UNL     1      44.310   5.790  11.540  0.00  0.00    +0.000 A 
ATOM     18  C   UNL     1      43.322   6.717  11.172  0.00  0.00    +0.000 A 
ATOM     19  C   UNL     1      43.601   8.081  11.104  0.00  0.00    +0.000 A 
ATOM     20  C   UNL     1      44.872   8.553  11.437  0.00  0.00    +0.000 A 
ATOM     21  C   UNL     1      45.893   7.671  11.823  0.00  0.00    +0.000 A 
ATOM     22  C   UNL     1      45.595   6.295  11.817  0.00  0.00    +0.000 A 
BRANCH  21  23
ATOM     23  C   UNL     1      47.188   8.150  12.353  0.00  0.00    +0.000 A 
ATOM     24  C   UNL     1      47.248   8.876  13.554  0.00  0.00    +0.000 A 
ATOM     25  C   UNL     1      48.471   9.212  14.131  0.00  0.00    +0.000 A 
ATOM     26  F   UNL     1      48.488   9.882  15.290  0.00  0.00    +0.000 F 
ATOM     27  C   UNL     1      49.668   8.841  13.542  0.00  0.00    +0.000 A 
ATOM     28  C   UNL     1      49.624   8.142  12.346  0.00  0.00    +0.000 A 
ATOM     29  F   UNL     1      50.769   7.757  11.768  0.00  0.00    +0.000 F 
ATOM     30  C   UNL     1      48.410   7.808  11.746  0.00  0.00    +0.000 A 
ENDBRANCH  21  23
ENDBRANCH   1  17
TORSDOF 4
ENDMDL
