MODEL 1
REMARK VINA RESULT:    -7.770      0.000      0.000
REMARK INTER + INTRA:         -10.745
REMARK INTER:                 -10.268
REMARK INTRA:                  -0.477
REMARK UNBOUND:                -0.477
REMARK  Name = 
REMARK  7 active torsions:
REMARK  status: ('A' for Active; 'I' for Inactive)
REMARK    1  A    between atoms: C_1  and  C_2
REMARK    2  A    between atoms: C_3  and  C_4
REMARK    3  A    between atoms: C_7  and  C_8
REMARK    4  A    between atoms: C_15  and  C_16
REMARK    5  A    between atoms: C_15  and  C_18
REMARK    6  A    between atoms: C_16  and  O_17
REMARK    7  A    between atoms: C_21  and  C_22
REMARK                            x       y       z     vdW  Elec       q    Type
REMARK                         _______ _______ _______ _____ _____    ______ ____
ROOT
ATOM      1  C   UNL     1      46.065   3.212  12.915  0.00  0.00    +0.000 C 
ATOM      2  C   UNL     1      44.932   4.209  12.706  0.00  0.00    +0.000 C 
ATOM      3  C   UNL     1      45.293   5.701  12.895  0.00  0.00    +0.000 C 
ATOM      4  C   UNL     1      44.097   6.437  12.274  0.00  0.00    +0.000 C 
ATOM      5  C   UNL     1      43.372   5.470  11.329  0.00  0.00    +0.000 C 
ATOM      6  C   UNL     1      44.094   4.089  11.386  0.00  0.00    +0.000 C 
ENDROOT
BRANCH   3   7
ATOM      7  C   UNL     1      46.660   6.220  12.475  0.00  0.00    +0.000 A 
ATOM      8  C   UNL     1      47.744   6.032  13.334  0.00  0.00    +0.000 A 
ATOM      9  C   UNL     1      48.963   6.652  13.051  0.00  0.00    +0.000 A 
ATOM     10  C   UNL     1      49.097   7.446  11.913  0.00  0.00    +0.000 A 
ATOM     11  C   UNL     1      47.993   7.542  11.088  0.00  0.00    +0.000 A 
ATOM     12  N   UNL     1      46.786   6.960  11.347  0.00  0.00    +0.000 NA
BRANCH  10  13
ATOM     13  C   UNL     1      50.382   8.160  11.694  0.00  0.00    +0.000 C 
ATOM     14  N   UNL     1      51.441   7.484  11.158  0.00  0.00    +0.000 N 
ATOM     15  O   UNL     1      50.496   9.351  11.960  0.00  0.00    +0.000 OA
ATOM     16  H   UNL     1      51.464   6.511  10.902  0.00  0.00    +0.000 HD
ATOM     17  H   UNL     1      52.283   8.027  11.000  0.00  0.00    +0.000 HD
ENDBRANCH  10  13
ENDBRANCH   3   7
BRANCH   6  18
ATOM     18  C   UNL     1      44.963   3.795  10.148  0.00  0.00    +0.000 A 
ATOM     19  C   UNL     1      45.266   2.498   9.727  0.00  0.00    +0.000 A 
ATOM     20  C   UNL     1      45.929   2.261   8.519  0.00  0.00    +0.000 A 
ATOM     21  C   UNL     1      46.325   3.340   7.737  0.00  0.00    +0.000 A 
ATOM     22  N   UNL     1      46.133   4.617   8.161  0.00  0.00    +0.000 NA
ATOM     23  C   UNL     1      45.463   4.807   9.325  0.00  0.00    +0.000 A 
BRANCH  21  24
ATOM     24  C   UNL     1      46.936   3.101   6.362  0.00  0.00    +0.000 C 
ATOM     25  F   UNL     1      48.282   2.862   6.406  0.00  0.00    +0.000 F 
ATOM     26  F   UNL     1      46.404   2.016   5.726  0.00  0.00    +0.000 F 
ATOM     27  F   UNL     1      46.782   4.152   5.508  0.00  0.00    +0.000 F 
ENDBRANCH  21  24
ENDBRANCH   6  18
BRANCH   6  28
ATOM     28  C   UNL     1      42.997   2.993  11.595  0.00  0.00    +0.000 C 
BRANCH  28  29
ATOM     29  O   UNL     1      43.390   1.997  12.534  0.00  0.00    +0.000 OA
ATOM     30  H   UNL     1      43.153   2.300  13.428  0.00  0.00    +0.000 HD
ENDBRANCH  28  29
ENDBRANCH   6  28
TORSDOF 6
ENDMDL
MODEL 2
REMARK VINA RESULT:    -6.035      4.413      7.560
REMARK INTER + INTRA:          -8.452
REMARK INTER:                  -8.150
REMARK INTRA:                  -0.301
REMARK UNBOUND:                -0.477
REMARK  Name = 
REMARK  7 active torsions:
REMARK  status: ('A' for Active; 'I' for Inactive)
REMARK    1  A    between atoms: C_1  and  C_2
REMARK    2  A    between atoms: C_3  and  C_4
REMARK    3  A    between atoms: C_7  and  C_8
REMARK    4  A    between atoms: C_15  and  C_16
REMARK    5  A    between atoms: C_15  and  C_18
REMARK    6  A    between atoms: C_16  and  O_17
REMARK    7  A    between atoms: C_21  and  C_22
REMARK                            x       y       z     vdW  Elec       q    Type
REMARK                         _______ _______ _______ _____ _____    ______ ____
ROOT
ATOM      1  C   UNL     1      49.199   6.643  12.079  0.00  0.00    +0.000 C 
ATOM      2  C   UNL     1      48.511   7.874  12.657  0.00  0.00    +0.000 C 
ATOM      3  C   UNL     1      47.056   8.121  12.197  0.00  0.00    +0.000 C 
ATOM      4  C   UNL     1      46.539   9.167  13.196  0.00  0.00    +0.000 C 
ATOM      5  C   UNL     1      47.431   9.123  14.444  0.00  0.00    +0.000 C 
ATOM      6  C   UNL     1      48.554   8.066  14.213  0.00  0.00    +0.000 C 
ENDROOT
BRANCH   3   7
ATOM      7  C   UNL     1      46.119   6.948  11.948  0.00  0.00    +0.000 A 
ATOM      8  C   UNL     1      45.147   6.649  12.903  0.00  0.00    +0.000 A 
ATOM      9  C   UNL     1      44.397   5.477  12.780  0.00  0.00    +0.000 A 
ATOM     10  C   UNL     1      44.615   4.617  11.705  0.00  0.00    +0.000 A 
ATOM     11  C   UNL     1      45.560   5.008  10.777  0.00  0.00    +0.000 A 
ATOM     12  N   UNL     1      46.317   6.139  10.879  0.00  0.00    +0.000 NA
BRANCH  10  13
ATOM     13  C   UNL     1      43.860   3.337  11.657  0.00  0.00    +0.000 C 
ATOM     14  N   UNL     1      43.738   2.588  12.793  0.00  0.00    +0.000 N 
ATOM     15  O   UNL     1      43.324   2.958  10.622  0.00  0.00    +0.000 OA
ATOM     16  H   UNL     1      44.134   2.798  13.695  0.00  0.00    +0.000 HD
ATOM     17  H   UNL     1      43.186   1.741  12.712  0.00  0.00    +0.000 HD
ENDBRANCH  10  13
ENDBRANCH   3   7
BRANCH   6  18
ATOM     18  C   UNL     1      48.334   6.752  14.987  0.00  0.00    +0.000 A 
ATOM     19  C   UNL     1      47.489   5.737  14.530  0.00  0.00    +0.000 A 
ATOM     20  C   UNL     1      47.425   4.498  15.175  0.00  0.00    +0.000 A 
ATOM     21  C   UNL     1      48.192   4.283  16.314  0.00  0.00    +0.000 A 
ATOM     22  N   UNL     1      48.951   5.280  16.843  0.00  0.00    +0.000 NA
ATOM     23  C   UNL     1      49.008   6.459  16.175  0.00  0.00    +0.000 A 
BRANCH  21  24
ATOM     24  C   UNL     1      48.231   2.903  16.957  0.00  0.00    +0.000 C 
ATOM     25  F   UNL     1      47.016   2.500  17.441  0.00  0.00    +0.000 F 
ATOM     26  F   UNL     1      48.610   1.922  16.087  0.00  0.00    +0.000 F 
ATOM     27  F   UNL     1      49.087   2.820  18.016  0.00  0.00    +0.000 F 
ENDBRANCH  21  24
ENDBRANCH   6  18
BRANCH   6  28
ATOM     28  C   UNL     1      49.917   8.736  14.591  0.00  0.00    +0.000 C 
BRANCH  28  29
ATOM     29  O   UNL     1      50.349   9.684  13.620  0.00  0.00    +0.000 OA
ATOM     30  H   UNL     1      51.316   9.773  13.679  0.00  0.00    +0.000 HD
ENDBRANCH  28  29
ENDBRANCH   6  28
TORSDOF 6
ENDMDL
MODEL 3
REMARK VINA RESULT:    -6.005      4.035      6.678
REMARK INTER + INTRA:          -8.413
REMARK INTER:                  -7.563
REMARK INTRA:                  -0.850
REMARK UNBOUND:                -0.477
REMARK  Name = 
REMARK  7 active torsions:
REMARK  status: ('A' for Active; 'I' for Inactive)
REMARK    1  A    between atoms: C_1  and  C_2
REMARK    2  A    between atoms: C_3  and  C_4
REMARK    3  A    between atoms: C_7  and  C_8
REMARK    4  A    between atoms: C_15  and  C_16
REMARK    5  A    between atoms: C_15  and  C_18
REMARK    6  A    between atoms: C_16  and  O_17
REMARK    7  A    between atoms: C_21  and  C_22
REMARK                            x       y       z     vdW  Elec       q    Type
REMARK                         _______ _______ _______ _____ _____    ______ ____
ROOT
ATOM      1  C   UNL     1      47.506   9.570  14.685  0.00  0.00    +0.000 C 
ATOM      2  C   UNL     1      48.732   9.095  13.914  0.00  0.00    +0.000 C 
ATOM      3  C   UNL     1      49.565   7.977  14.581  0.00  0.00    +0.000 C 
ATOM      4  C   UNL     1      50.466   7.477  13.441  0.00  0.00    +0.000 C 
ATOM      5  C   UNL     1      49.831   7.892  12.108  0.00  0.00    +0.000 C 
ATOM      6  C   UNL     1      48.534   8.703  12.408  0.00  0.00    +0.000 C 
ENDROOT
BRANCH   3   7
ATOM      7  C   UNL     1      48.880   6.885  15.389  0.00  0.00    +0.000 A 
ATOM      8  C   UNL     1      49.043   6.872  16.775  0.00  0.00    +0.000 A 
ATOM      9  C   UNL     1      48.572   5.784  17.514  0.00  0.00    +0.000 A 
ATOM     10  C   UNL     1      47.937   4.723  16.869  0.00  0.00    +0.000 A 
ATOM     11  C   UNL     1      47.772   4.835  15.503  0.00  0.00    +0.000 A 
ATOM     12  N   UNL     1      48.234   5.877  14.754  0.00  0.00    +0.000 NA
BRANCH  10  13
ATOM     13  C   UNL     1      47.530   3.544  17.678  0.00  0.00    +0.000 C 
ATOM     14  N   UNL     1      48.290   3.174  18.752  0.00  0.00    +0.000 N 
ATOM     15  O   UNL     1      46.511   2.917  17.413  0.00  0.00    +0.000 OA
ATOM     16  H   UNL     1      49.142   3.611  19.063  0.00  0.00    +0.000 HD
ATOM     17  H   UNL     1      47.949   2.383  19.288  0.00  0.00    +0.000 HD
ENDBRANCH  10  13
ENDBRANCH   3   7
BRANCH   6  18
ATOM     18  C   UNL     1      47.237   7.909  12.159  0.00  0.00    +0.000 A 
ATOM     19  C   UNL     1      47.232   6.552  11.825  0.00  0.00    +0.000 A 
ATOM     20  C   UNL     1      46.040   5.825  11.753  0.00  0.00    +0.000 A 
ATOM     21  C   UNL     1      44.833   6.472  11.986  0.00  0.00    +0.000 A 
ATOM     22  N   UNL     1      44.792   7.811  12.218  0.00  0.00    +0.000 NA
ATOM     23  C   UNL     1      45.969   8.478  12.306  0.00  0.00    +0.000 A 
BRANCH  21  24
ATOM     24  C   UNL     1      43.537   5.673  12.035  0.00  0.00    +0.000 C 
ATOM     25  F   UNL     1      43.059   5.500  13.305  0.00  0.00    +0.000 F 
ATOM     26  F   UNL     1      42.518   6.271  11.350  0.00  0.00    +0.000 F 
ATOM     27  F   UNL     1      43.652   4.417  11.518  0.00  0.00    +0.000 F 
ENDBRANCH  21  24
ENDBRANCH   6  18
BRANCH   6  28
ATOM     28  C   UNL     1      48.584  10.008  11.547  0.00  0.00    +0.000 C 
BRANCH  28  29
ATOM     29  O   UNL     1      49.494  10.973  12.066  0.00  0.00    +0.000 OA
ATOM     30  H   UNL     1      50.362  10.551  12.185  0.00  0.00    +0.000 HD
ENDBRANCH  28  29
ENDBRANCH   6  28
TORSDOF 6
ENDMDL
MODEL 4
REMARK VINA RESULT:    -5.452      4.440      6.947
REMARK INTER + INTRA:          -7.682
REMARK INTER:                  -7.145
REMARK INTRA:                  -0.536
REMARK UNBOUND:                -0.477
REMARK  Name = 
REMARK  7 active torsions:
REMARK  status: ('A' for Active; 'I' for Inactive)
REMARK    1  A    between atoms: C_1  and  C_2
REMARK    2  A    between atoms: C_3  and  C_4
REMARK    3  A    between atoms: C_7  and  C_8
REMARK    4  A    between atoms: C_15  and  C_16
REMARK    5  A    between atoms: C_15  and  C_18
REMARK    6  A    between atoms: C_16  and  O_17
REMARK    7  A    between atoms: C_21  and  C_22
REMARK                            x       y       z     vdW  Elec       q    Type
REMARK                         _______ _______ _______ _____ _____    ______ ____
ROOT
ATOM      1  C   UNL     1      47.907   9.298  15.811  0.00  0.00    +0.000 C 
ATOM      2  C   UNL     1      49.145   9.187  14.930  0.00  0.00    +0.000 C 
ATOM      3  C   UNL     1      50.331   8.388  15.518  0.00  0.00    +0.000 C 
ATOM      4  C   UNL     1      51.235   8.147  14.300  0.00  0.00    +0.000 C 
ATOM      5  C   UNL     1      50.390   8.314  13.031  0.00  0.00    +0.000 C 
ATOM      6  C   UNL     1      48.942   8.710  13.449  0.00  0.00    +0.000 C 
ENDROOT
BRANCH   3   7
ATOM      7  C   UNL     1      50.078   7.166  16.388  0.00  0.00    +0.000 A 
ATOM      8  C   UNL     1      51.130   6.281  16.626  0.00  0.00    +0.000 A 
ATOM      9  C   UNL     1      50.878   5.068  17.271  0.00  0.00    +0.000 A 
ATOM     10  C   UNL     1      49.584   4.748  17.679  0.00  0.00    +0.000 A 
ATOM     11  C   UNL     1      48.608   5.698  17.450  0.00  0.00    +0.000 A 
ATOM     12  N   UNL     1      48.822   6.884  16.811  0.00  0.00    +0.000 NA
BRANCH  10  13
ATOM     13  C   UNL     1      49.341   3.411  18.281  0.00  0.00    +0.000 C 
ATOM     14  N   UNL     1      48.627   3.318  19.442  0.00  0.00    +0.000 N 
ATOM     15  O   UNL     1      49.746   2.390  17.736  0.00  0.00    +0.000 OA
ATOM     16  H   UNL     1      48.247   4.083  19.975  0.00  0.00    +0.000 HD
ATOM     17  H   UNL     1      48.463   2.380  19.791  0.00  0.00    +0.000 HD
ENDBRANCH  10  13
ENDBRANCH   3   7
BRANCH   6  18
ATOM     18  C   UNL     1      47.925   7.558  13.323  0.00  0.00    +0.000 A 
ATOM     19  C   UNL     1      46.585   7.765  12.989  0.00  0.00    +0.000 A 
ATOM     20  C   UNL     1      45.725   6.692  12.736  0.00  0.00    +0.000 A 
ATOM     21  C   UNL     1      46.204   5.393  12.853  0.00  0.00    +0.000 A 
ATOM     22  N   UNL     1      47.475   5.153  13.270  0.00  0.00    +0.000 NA
ATOM     23  C   UNL     1      48.288   6.218  13.481  0.00  0.00    +0.000 A 
BRANCH  21  24
ATOM     24  C   UNL     1      45.319   4.216  12.462  0.00  0.00    +0.000 C 
ATOM     25  F   UNL     1      45.915   3.002  12.672  0.00  0.00    +0.000 F 
ATOM     26  F   UNL     1      44.155   4.168  13.173  0.00  0.00    +0.000 F 
ATOM     27  F   UNL     1      44.959   4.220  11.147  0.00  0.00    +0.000 F 
ENDBRANCH  21  24
ENDBRANCH   6  18
BRANCH   6  28
ATOM     28  C   UNL     1      48.523   9.946  12.585  0.00  0.00    +0.000 C 
BRANCH  28  29
ATOM     29  O   UNL     1      49.276  10.053  11.381  0.00  0.00    +0.000 OA
ATOM     30  H   UNL     1      49.614   9.173  11.145  0.00  0.00    +0.000 HD
ENDBRANCH  28  29
ENDBRANCH   6  28
TORSDOF 6
ENDMDL
MODEL 5
REMARK VINA RESULT:    -5.441      4.844      8.235
REMARK INTER + INTRA:          -7.668
REMARK INTER:                  -7.191
REMARK INTRA:                  -0.476
REMARK UNBOUND:                -0.477
REMARK  Name = 
REMARK  7 active torsions:
REMARK  status: ('A' for Active; 'I' for Inactive)
REMARK    1  A    between atoms: C_1  and  C_2
REMARK    2  A    between atoms: C_3  and  C_4
REMARK    3  A    between atoms: C_7  and  C_8
REMARK    4  A    between atoms: C_15  and  C_16
REMARK    5  A    between atoms: C_15  and  C_18
REMARK    6  A    between atoms: C_16  and  O_17
REMARK    7  A    between atoms: C_21  and  C_22
REMARK                            x       y       z     vdW  Elec       q    Type
REMARK                         _______ _______ _______ _____ _____    ______ ____
ROOT
ATOM      1  C   UNL     1      49.927   7.401  11.736  0.00  0.00    +0.000 C 
ATOM      2  C   UNL     1      49.273   8.747  12.025  0.00  0.00    +0.000 C 
ATOM      3  C   UNL     1      47.734   8.800  11.888  0.00  0.00    +0.000 C 
ATOM      4  C   UNL     1      47.360  10.119  12.580  0.00  0.00    +0.000 C 
ATOM      5  C   UNL     1      48.514  10.520  13.508  0.00  0.00    +0.000 C 
ATOM      6  C   UNL     1      49.652   9.464  13.368  0.00  0.00    +0.000 C 
ENDROOT
BRANCH   3   7
ATOM      7  C   UNL     1      46.885   7.601  12.282  0.00  0.00    +0.000 A 
ATOM      8  C   UNL     1      47.502   6.513  12.899  0.00  0.00    +0.000 A 
ATOM      9  C   UNL     1      46.780   5.337  13.109  0.00  0.00    +0.000 A 
ATOM     10  C   UNL     1      45.447   5.254  12.708  0.00  0.00    +0.000 A 
ATOM     11  C   UNL     1      44.895   6.390  12.148  0.00  0.00    +0.000 A 
ATOM     12  N   UNL     1      45.580   7.547  11.920  0.00  0.00    +0.000 NA
BRANCH  10  13
ATOM     13  C   UNL     1      44.738   3.957  12.865  0.00  0.00    +0.000 C 
ATOM     14  N   UNL     1      45.368   2.801  12.500  0.00  0.00    +0.000 N 
ATOM     15  O   UNL     1      43.610   3.907  13.343  0.00  0.00    +0.000 OA
ATOM     16  H   UNL     1      46.287   2.720  12.098  0.00  0.00    +0.000 HD
ATOM     17  H   UNL     1      44.851   1.942  12.659  0.00  0.00    +0.000 HD
ENDBRANCH  10  13
ENDBRANCH   3   7
BRANCH   6  18
ATOM     18  C   UNL     1      49.745   8.493  14.562  0.00  0.00    +0.000 A 
ATOM     19  C   UNL     1      48.707   8.323  15.482  0.00  0.00    +0.000 A 
ATOM     20  C   UNL     1      48.761   7.330  16.464  0.00  0.00    +0.000 A 
ATOM     21  C   UNL     1      49.885   6.517  16.549  0.00  0.00    +0.000 A 
ATOM     22  N   UNL     1      50.954   6.717  15.733  0.00  0.00    +0.000 NA
ATOM     23  C   UNL     1      50.855   7.672  14.776  0.00  0.00    +0.000 A 
BRANCH  21  24
ATOM     24  C   UNL     1      49.910   5.351  17.529  0.00  0.00    +0.000 C 
ATOM     25  F   UNL     1      48.747   4.630  17.537  0.00  0.00    +0.000 F 
ATOM     26  F   UNL     1      50.889   4.442  17.248  0.00  0.00    +0.000 F 
ATOM     27  F   UNL     1      50.108   5.732  18.823  0.00  0.00    +0.000 F 
ENDBRANCH  21  24
ENDBRANCH   6  18
BRANCH   6  28
ATOM     28  C   UNL     1      50.993  10.241  13.151  0.00  0.00    +0.000 C 
BRANCH  28  29
ATOM     29  O   UNL     1      51.135  10.728  11.821  0.00  0.00    +0.000 OA
ATOM     30  H   UNL     1      51.902  11.325  11.787  0.00  0.00    +0.000 HD
ENDBRANCH  28  29
ENDBRANCH   6  28
TORSDOF 6
ENDMDL
MODEL 6
REMARK VINA RESULT:    -5.313      6.027      8.546
REMARK INTER + INTRA:          -7.498
REMARK INTER:                  -7.111
REMARK INTRA:                  -0.387
REMARK UNBOUND:                -0.477
REMARK  Name = 
REMARK  7 active torsions:
REMARK  status: ('A' for Active; 'I' for Inactive)
REMARK    1  A    between atoms: C_1  and  C_2
REMARK    2  A    between atoms: C_3  and  C_4
REMARK    3  A    between atoms: C_7  and  C_8
REMARK    4  A    between atoms: C_15  and  C_16
REMARK    5  A    between atoms: C_15  and  C_18
REMARK    6  A    between atoms: C_16  and  O_17
REMARK    7  A    between atoms: C_21  and  C_22
REMARK                            x       y       z     vdW  Elec       q    Type
REMARK                         _______ _______ _______ _____ _____    ______ ____
ROOT
ATOM      1  C   UNL     1      46.851   5.173  18.186  0.00  0.00    +0.000 C 
ATOM      2  C   UNL     1      47.909   4.078  18.129  0.00  0.00    +0.000 C 
ATOM      3  C   UNL     1      47.938   3.225  16.840  0.00  0.00    +0.000 C 
ATOM      4  C   UNL     1      49.289   2.499  16.924  0.00  0.00    +0.000 C 
ATOM      5  C   UNL     1      50.193   3.274  17.892  0.00  0.00    +0.000 C 
ATOM      6  C   UNL     1      49.388   4.481  18.462  0.00  0.00    +0.000 C 
ENDROOT
BRANCH   3   7
ATOM      7  C   UNL     1      47.627   3.858  15.492  0.00  0.00    +0.000 A 
ATOM      8  C   UNL     1      47.671   5.247  15.375  0.00  0.00    +0.000 A 
ATOM      9  C   UNL     1      47.220   5.855  14.201  0.00  0.00    +0.000 A 
ATOM     10  C   UNL     1      46.737   5.076  13.151  0.00  0.00    +0.000 A 
ATOM     11  C   UNL     1      46.773   3.706  13.326  0.00  0.00    +0.000 A 
ATOM     12  N   UNL     1      47.194   3.086  14.466  0.00  0.00    +0.000 NA
BRANCH  10  13
ATOM     13  C   UNL     1      46.184   5.763  11.955  0.00  0.00    +0.000 C 
ATOM     14  N   UNL     1      45.380   5.069  11.095  0.00  0.00    +0.000 N 
ATOM     15  O   UNL     1      46.415   6.949  11.744  0.00  0.00    +0.000 OA
ATOM     16  H   UNL     1      45.123   4.099  11.166  0.00  0.00    +0.000 HD
ATOM     17  H   UNL     1      45.003   5.596  10.314  0.00  0.00    +0.000 HD
ENDBRANCH  10  13
ENDBRANCH   3   7
BRANCH   6  18
ATOM     18  C   UNL     1      49.794   5.837  17.851  0.00  0.00    +0.000 A 
ATOM     19  C   UNL     1      50.666   5.948  16.766  0.00  0.00    +0.000 A 
ATOM     20  C   UNL     1      50.897   7.177  16.141  0.00  0.00    +0.000 A 
ATOM     21  C   UNL     1      50.272   8.318  16.630  0.00  0.00    +0.000 A 
ATOM     22  N   UNL     1      49.493   8.264  17.743  0.00  0.00    +0.000 NA
ATOM     23  C   UNL     1      49.272   7.051  18.307  0.00  0.00    +0.000 A 
BRANCH  21  24
ATOM     24  C   UNL     1      50.412   9.641  15.889  0.00  0.00    +0.000 C 
ATOM     25  F   UNL     1      49.269  10.015  15.235  0.00  0.00    +0.000 F 
ATOM     26  F   UNL     1      50.705  10.685  16.718  0.00  0.00    +0.000 F 
ATOM     27  F   UNL     1      51.387   9.630  14.936  0.00  0.00    +0.000 F 
ENDBRANCH  21  24
ENDBRANCH   6  18
BRANCH   6  28
ATOM     28  C   UNL     1      49.564   4.473  20.017  0.00  0.00    +0.000 C 
BRANCH  28  29
ATOM     29  O   UNL     1      48.580   3.682  20.676  0.00  0.00    +0.000 OA
ATOM     30  H   UNL     1      47.840   3.532  20.064  0.00  0.00    +0.000 HD
ENDBRANCH  28  29
ENDBRANCH   6  28
TORSDOF 6
ENDMDL
MODEL 7
REMARK VINA RESULT:    -5.081      5.235      8.310
REMARK INTER + INTRA:          -7.192
REMARK INTER:                  -6.740
REMARK INTRA:                  -0.452
REMARK UNBOUND:                -0.477
REMARK  Name = 
REMARK  7 active torsions:
REMARK  status: ('A' for Active; 'I' for Inactive)
REMARK    1  A    between atoms: C_1  and  C_2
REMARK    2  A    between atoms: C_3  and  C_4
REMARK    3  A    between atoms: C_7  and  C_8
REMARK    4  A    between atoms: C_15  and  C_16
REMARK    5  A    between atoms: C_15  and  C_18
REMARK    6  A    between atoms: C_16  and  O_17
REMARK    7  A    between atoms: C_21  and  C_22
REMARK                            x       y       z     vdW  Elec       q    Type
REMARK                         _______ _______ _______ _____ _____    ______ ____
ROOT
ATOM      1  C   UNL     1      51.339   7.833  15.148  0.00  0.00    +0.000 C 
ATOM      2  C   UNL     1      50.474   8.785  15.964  0.00  0.00    +0.000 C 
ATOM      3  C   UNL     1      49.244   9.379  15.239  0.00  0.00    +0.000 C 
ATOM      4  C   UNL     1      48.407   9.967  16.384  0.00  0.00    +0.000 C 
ATOM      5  C   UNL     1      48.841   9.296  17.693  0.00  0.00    +0.000 C 
ATOM      6  C   UNL     1      50.000   8.303  17.379  0.00  0.00    +0.000 C 
ENDROOT
BRANCH   3   7
ATOM      7  C   UNL     1      48.467   8.544  14.232  0.00  0.00    +0.000 A 
ATOM      8  C   UNL     1      47.748   9.196  13.230  0.00  0.00    +0.000 A 
ATOM      9  C   UNL     1      46.890   8.461  12.408  0.00  0.00    +0.000 A 
ATOM     10  C   UNL     1      46.760   7.085  12.585  0.00  0.00    +0.000 A 
ATOM     11  C   UNL     1      47.543   6.507  13.566  0.00  0.00    +0.000 A 
ATOM     12  N   UNL     1      48.378   7.201  14.392  0.00  0.00    +0.000 NA
BRANCH  10  13
ATOM     13  C   UNL     1      45.771   6.353  11.751  0.00  0.00    +0.000 C 
ATOM     14  N   UNL     1      44.894   7.059  10.978  0.00  0.00    +0.000 N 
ATOM     15  O   UNL     1      45.750   5.127  11.725  0.00  0.00    +0.000 OA
ATOM     16  H   UNL     1      44.819   8.061  10.919  0.00  0.00    +0.000 HD
ATOM     17  H   UNL     1      44.263   6.510  10.404  0.00  0.00    +0.000 HD
ENDBRANCH  10  13
ENDBRANCH   3   7
BRANCH   6  18
ATOM     18  C   UNL     1      49.567   6.823  17.396  0.00  0.00    +0.000 A 
ATOM     19  C   UNL     1      48.257   6.421  17.666  0.00  0.00    +0.000 A 
ATOM     20  C   UNL     1      47.863   5.087  17.527  0.00  0.00    +0.000 A 
ATOM     21  C   UNL     1      48.801   4.136  17.144  0.00  0.00    +0.000 A 
ATOM     22  N   UNL     1      50.105   4.474  16.967  0.00  0.00    +0.000 NA
ATOM     23  C   UNL     1      50.446   5.782  17.086  0.00  0.00    +0.000 A 
BRANCH  21  24
ATOM     24  C   UNL     1      48.364   2.703  16.867  0.00  0.00    +0.000 C 
ATOM     25  F   UNL     1      47.925   2.513  15.585  0.00  0.00    +0.000 F 
ATOM     26  F   UNL     1      49.373   1.799  17.035  0.00  0.00    +0.000 F 
ATOM     27  F   UNL     1      47.343   2.281  17.666  0.00  0.00    +0.000 F 
ENDBRANCH  21  24
ENDBRANCH   6  18
BRANCH   6  28
ATOM     28  C   UNL     1      51.149   8.578  18.405  0.00  0.00    +0.000 C 
BRANCH  28  29
ATOM     29  O   UNL     1      50.969   9.800  19.113  0.00  0.00    +0.000 OA
ATOM     30  H   UNL     1      51.563   9.805  19.883  0.00  0.00    +0.000 HD
ENDBRANCH  28  29
ENDBRANCH   6  28
TORSDOF 6
ENDMDL
MODEL 8
REMARK VINA RESULT:    -4.990      7.497      9.898
REMARK INTER + INTRA:          -7.071
REMARK INTER:                  -5.953
REMARK INTRA:                  -1.118
REMARK UNBOUND:                -0.477
REMARK  Name = 
REMARK  7 active torsions:
REMARK  status: ('A' for Active; 'I' for Inactive)
REMARK    1  A    between atoms: C_1  and  C_2
REMARK    2  A    between atoms: C_3  and  C_4
REMARK    3  A    between atoms: C_7  and  C_8
REMARK    4  A    between atoms: C_15  and  C_16
REMARK    5  A    between atoms: C_15  and  C_18
REMARK    6  A    between atoms: C_16  and  O_17
REMARK    7  A    between atoms: C_21  and  C_22
REMARK                            x       y       z     vdW  Elec       q    Type
REMARK                         _______ _______ _______ _____ _____    ______ ____
ROOT
ATOM      1  C   UNL     1      53.193   5.866  16.701  0.00  0.00    +0.000 C 
ATOM      2  C   UNL     1      53.476   5.866  18.198  0.00  0.00    +0.000 C 
ATOM      3  C   UNL     1      53.104   7.157  18.962  0.00  0.00    +0.000 C 
ATOM      4  C   UNL     1      53.153   6.725  20.435  0.00  0.00    +0.000 C 
ATOM      5  C   UNL     1      53.029   5.197  20.494  0.00  0.00    +0.000 C 
ATOM      6  C   UNL     1      52.945   4.651  19.037  0.00  0.00    +0.000 C 
ENDROOT
BRANCH   3   7
ATOM      7  C   UNL     1      51.873   7.958  18.564  0.00  0.00    +0.000 A 
ATOM      8  C   UNL     1      50.768   7.960  19.415  0.00  0.00    +0.000 A 
ATOM      9  C   UNL     1      49.571   8.540  18.990  0.00  0.00    +0.000 A 
ATOM     10  C   UNL     1      49.486   9.120  17.725  0.00  0.00    +0.000 A 
ATOM     11  C   UNL     1      50.637   9.121  16.962  0.00  0.00    +0.000 A 
ATOM     12  N   UNL     1      51.815   8.550  17.346  0.00  0.00    +0.000 NA
BRANCH  10  13
ATOM     13  C   UNL     1      48.171   9.647  17.274  0.00  0.00    +0.000 C 
ATOM     14  N   UNL     1      47.658   9.233  16.077  0.00  0.00    +0.000 N 
ATOM     15  O   UNL     1      47.528  10.423  17.971  0.00  0.00    +0.000 OA
ATOM     16  H   UNL     1      48.093   8.603  15.423  0.00  0.00    +0.000 HD
ATOM     17  H   UNL     1      46.744   9.599  15.833  0.00  0.00    +0.000 HD
ENDBRANCH  10  13
ENDBRANCH   3   7
BRANCH   6  18
ATOM     18  C   UNL     1      51.528   4.209  18.623  0.00  0.00    +0.000 A 
ATOM     19  C   UNL     1      50.373   4.685  19.250  0.00  0.00    +0.000 A 
ATOM     20  C   UNL     1      49.101   4.383  18.757  0.00  0.00    +0.000 A 
ATOM     21  C   UNL     1      48.980   3.566  17.639  0.00  0.00    +0.000 A 
ATOM     22  N   UNL     1      50.076   3.006  17.062  0.00  0.00    +0.000 NA
ATOM     23  C   UNL     1      51.295   3.342  17.552  0.00  0.00    +0.000 A 
BRANCH  21  24
ATOM     24  C   UNL     1      47.611   3.327  17.014  0.00  0.00    +0.000 C 
ATOM     25  F   UNL     1      47.681   2.862  15.729  0.00  0.00    +0.000 F 
ATOM     26  F   UNL     1      46.874   2.397  17.689  0.00  0.00    +0.000 F 
ATOM     27  F   UNL     1      46.839   4.448  16.952  0.00  0.00    +0.000 F 
ENDBRANCH  21  24
ENDBRANCH   6  18
BRANCH   6  28
ATOM     28  C   UNL     1      53.973   3.478  18.913  0.00  0.00    +0.000 C 
BRANCH  28  29
ATOM     29  O   UNL     1      53.852   2.529  19.968  0.00  0.00    +0.000 OA
ATOM     30  H   UNL     1      53.438   1.722  19.616  0.00  0.00    +0.000 HD
ENDBRANCH  28  29
ENDBRANCH   6  28
TORSDOF 6
ENDMDL
MODEL 9
REMARK VINA RESULT:    -4.907      5.881      8.543
REMARK INTER + INTRA:          -6.961
REMARK INTER:                  -6.510
REMARK INTRA:                  -0.451
REMARK UNBOUND:                -0.477
REMARK  Name = 
REMARK  7 active torsions:
REMARK  status: ('A' for Active; 'I' for Inactive)
REMARK    1  A    between atoms: C_1  and  C_2
REMARK    2  A    between atoms: C_3  and  C_4
REMARK    3  A    between atoms: C_7  and  C_8
REMARK    4  A    between atoms: C_15  and  C_16
REMARK    5  A    between atoms: C_15  and  C_18
REMARK    6  A    between atoms: C_16  and  O_17
REMARK    7  A    between atoms: C_21  and  C_22
REMARK                            x       y       z     vdW  Elec       q    Type
REMARK                         _______ _______ _______ _____ _____    ______ ____
ROOT
ATOM      1  C   UNL     1      49.791   7.425  11.958  0.00  0.00    +0.000 C 
ATOM      2  C   UNL     1      48.350   7.898  11.809  0.00  0.00    +0.000 C 
ATOM      3  C   UNL     1      47.255   6.874  12.186  0.00  0.00    +0.000 C 
ATOM      4  C   UNL     1      45.986   7.732  12.288  0.00  0.00    +0.000 C 
ATOM      5  C   UNL     1      46.407   9.194  12.489  0.00  0.00    +0.000 C 
ATOM      6  C   UNL     1      47.964   9.267  12.469  0.00  0.00    +0.000 C 
ENDROOT
BRANCH   3   7
ATOM      7  C   UNL     1      47.473   5.903  13.337  0.00  0.00    +0.000 A 
ATOM      8  C   UNL     1      46.782   4.691  13.336  0.00  0.00    +0.000 A 
ATOM      9  C   UNL     1      46.831   3.868  14.463  0.00  0.00    +0.000 A 
ATOM     10  C   UNL     1      47.573   4.253  15.578  0.00  0.00    +0.000 A 
ATOM     11  C   UNL     1      48.268   5.443  15.482  0.00  0.00    +0.000 A 
ATOM     12  N   UNL     1      48.227   6.273  14.401  0.00  0.00    +0.000 NA
BRANCH  10  13
ATOM     13  C   UNL     1      47.528   3.393  16.791  0.00  0.00    +0.000 C 
ATOM     14  N   UNL     1      48.691   2.888  17.297  0.00  0.00    +0.000 N 
ATOM     15  O   UNL     1      46.467   3.155  17.357  0.00  0.00    +0.000 OA
ATOM     16  H   UNL     1      49.616   3.016  16.919  0.00  0.00    +0.000 HD
ATOM     17  H   UNL     1      48.606   2.335  18.144  0.00  0.00    +0.000 HD
ENDBRANCH  10  13
ENDBRANCH   3   7
BRANCH   6  18
ATOM     18  C   UNL     1      48.591   9.460  13.864  0.00  0.00    +0.000 A 
ATOM     19  C   UNL     1      47.884   9.242  15.049  0.00  0.00    +0.000 A 
ATOM     20  C   UNL     1      48.520   9.279  16.293  0.00  0.00    +0.000 A 
ATOM     21  C   UNL     1      49.877   9.573  16.356  0.00  0.00    +0.000 A 
ATOM     22  N   UNL     1      50.575   9.886  15.232  0.00  0.00    +0.000 NA
ATOM     23  C   UNL     1      49.931   9.814  14.041  0.00  0.00    +0.000 A 
BRANCH  21  24
ATOM     24  C   UNL     1      50.613   9.496  17.687  0.00  0.00    +0.000 C 
ATOM     25  F   UNL     1      51.884   9.998  17.629  0.00  0.00    +0.000 F 
ATOM     26  F   UNL     1      49.996  10.207  18.676  0.00  0.00    +0.000 F 
ATOM     27  F   UNL     1      50.746   8.226  18.163  0.00  0.00    +0.000 F 
ENDBRANCH  21  24
ENDBRANCH   6  18
BRANCH   6  28
ATOM     28  C   UNL     1      48.369  10.419  11.491  0.00  0.00    +0.000 C 
BRANCH  28  29
ATOM     29  O   UNL     1      47.273  11.265  11.156  0.00  0.00    +0.000 OA
ATOM     30  H   UNL     1      47.439  12.150  11.523  0.00  0.00    +0.000 HD
ENDBRANCH  28  29
ENDBRANCH   6  28
TORSDOF 6
ENDMDL
