MODEL 1
REMARK VINA RESULT:    -7.136      0.000      0.000
REMARK INTER + INTRA:         -10.342
REMARK INTER:                  -9.222
REMARK INTRA:                  -1.120
REMARK UNBOUND:                -1.120
REMARK  Name = 
REMARK  6 active torsions:
REMARK  status: ('A' for Active; 'I' for Inactive)
REMARK    1  A    between atoms: C_1  and  N_2
REMARK    2  A    between atoms: N_2  and  C_3
REMARK    3  A    between atoms: C_3  and  C_4
REMARK    4  A    between atoms: C_7  and  C_8
REMARK    5  A    between atoms: C_8  and  N_9
REMARK    6  A    between atoms: C_16  and  C_18
REMARK                            x       y       z     vdW  Elec       q    Type
REMARK                         _______ _______ _______ _____ _____    ______ ____
ROOT
ATOM      1  C   UNL     1      45.994   8.604  12.137  0.00  0.00    +0.000 C 
ATOM      2  N   UNL     1      45.822   7.157  12.097  0.00  0.00    +0.000 N 
ATOM      3  C   UNL     1      44.614   6.689  11.546  0.00  0.00    +0.000 C 
ATOM      4  O   UNL     1      43.751   7.468  11.143  0.00  0.00    +0.000 OA
ENDROOT
BRANCH   3   5
ATOM      5  C   UNL     1      44.357   5.243  11.492  0.00  0.00    +0.000 A 
ATOM      6  C   UNL     1      43.630   4.540  12.439  0.00  0.00    +0.000 A 
ATOM      7  S   UNL     1      43.426   2.888  12.057  0.00  0.00    +0.000 S 
ATOM      8  C   UNL     1      44.165   3.096  10.541  0.00  0.00    +0.000 A 
ATOM      9  N   UNL     1      44.206   2.081   9.641  0.00  0.00    +0.000 NA
ATOM     10  C   UNL     1      44.731   2.405   8.504  0.00  0.00    +0.000 A 
ATOM     11  N   UNL     1      45.256   3.639   8.203  0.00  0.00    +0.000 N 
ATOM     12  C   UNL     1      45.364   4.649   9.139  0.00  0.00    +0.000 A 
ATOM     13  O   UNL     1      46.064   5.633   8.925  0.00  0.00    +0.000 OA
ATOM     14  C   UNL     1      44.663   4.374  10.379  0.00  0.00    +0.000 A 
ATOM     15  H   UNL     1      45.715   3.804   7.325  0.00  0.00    +0.000 HD
ENDBRANCH   3   5
BRANCH   2  16
ATOM     16  C   UNL     1      46.977   6.281  12.306  0.00  0.00    +0.000 C 
BRANCH  16  17
ATOM     17  C   UNL     1      47.358   5.918  13.719  0.00  0.00    +0.000 A 
ATOM     18  C   UNL     1      46.829   4.763  14.317  0.00  0.00    +0.000 A 
ATOM     19  C   UNL     1      47.252   4.365  15.583  0.00  0.00    +0.000 A 
ATOM     20  C   UNL     1      48.217   5.106  16.278  0.00  0.00    +0.000 A 
ATOM     21  C   UNL     1      48.715   6.282  15.696  0.00  0.00    +0.000 A 
ATOM     22  C   UNL     1      48.287   6.687  14.428  0.00  0.00    +0.000 A 
BRANCH  20  23
ATOM     23  C   UNL     1      48.698   4.650  17.642  0.00  0.00    +0.000 C 
BRANCH  23  24
ATOM     24  N   UNL     1      50.049   5.124  17.959  0.00  0.00    +0.000 NA
ATOM     25  C   UNL     1      50.195   5.549  19.355  0.00  0.00    +0.000 C 
ATOM     26  C   UNL     1      51.394   4.789  19.896  0.00  0.00    +0.000 C 
ATOM     27  N   UNL     1      51.593   3.667  18.981  0.00  0.00    +0.000 NA
ATOM     28  C   UNL     1      51.068   4.120  17.703  0.00  0.00    +0.000 C 
ATOM     29  H   UNL     1      51.026   2.885  19.291  0.00  0.00    +0.000 HD
ENDBRANCH  23  24
ENDBRANCH  20  23
ENDBRANCH  16  17
ENDBRANCH   2  16
TORSDOF 5
ENDMDL
MODEL 2
REMARK VINA RESULT:    -6.113      3.578      8.081
REMARK INTER + INTRA:          -9.020
REMARK INTER:                  -7.829
REMARK INTRA:                  -1.192
REMARK UNBOUND:                -1.120
REMARK  Name = 
REMARK  6 active torsions:
REMARK  status: ('A' for Active; 'I' for Inactive)
REMARK    1  A    between atoms: C_1  and  N_2
REMARK    2  A    between atoms: N_2  and  C_3
REMARK    3  A    between atoms: C_3  and  C_4
REMARK    4  A    between atoms: C_7  and  C_8
REMARK    5  A    between atoms: C_8  and  N_9
REMARK    6  A    between atoms: C_16  and  C_18
REMARK                            x       y       z     vdW  Elec       q    Type
REMARK                         _______ _______ _______ _____ _____    ______ ____
ROOT
ATOM      1  C   UNL     1      47.695   9.276  17.843  0.00  0.00    +0.000 C 
ATOM      2  N   UNL     1      48.694   8.302  17.421  0.00  0.00    +0.000 N 
ATOM      3  C   UNL     1      48.847   7.172  18.246  0.00  0.00    +0.000 C 
ATOM      4  O   UNL     1      48.186   7.036  19.274  0.00  0.00    +0.000 OA
ENDROOT
BRANCH   3   5
ATOM      5  C   UNL     1      49.851   6.155  17.900  0.00  0.00    +0.000 A 
ATOM      6  C   UNL     1      51.218   6.315  18.063  0.00  0.00    +0.000 A 
ATOM      7  S   UNL     1      52.122   4.925  17.654  0.00  0.00    +0.000 S 
ATOM      8  C   UNL     1      50.708   4.019  17.397  0.00  0.00    +0.000 A 
ATOM      9  N   UNL     1      50.771   2.688  17.136  0.00  0.00    +0.000 NA
ATOM     10  C   UNL     1      49.616   2.114  17.038  0.00  0.00    +0.000 A 
ATOM     11  N   UNL     1      48.406   2.761  17.134  0.00  0.00    +0.000 N 
ATOM     12  C   UNL     1      48.304   4.133  17.253  0.00  0.00    +0.000 A 
ATOM     13  O   UNL     1      47.232   4.702  17.074  0.00  0.00    +0.000 OA
ATOM     14  C   UNL     1      49.570   4.794  17.506  0.00  0.00    +0.000 A 
ATOM     15  H   UNL     1      47.545   2.268  16.975  0.00  0.00    +0.000 HD
ENDBRANCH   3   5
BRANCH   2  16
ATOM     16  C   UNL     1      49.234   8.356  16.061  0.00  0.00    +0.000 C 
BRANCH  16  17
ATOM     17  C   UNL     1      48.368   7.876  14.924  0.00  0.00    +0.000 A 
ATOM     18  C   UNL     1      47.514   8.771  14.261  0.00  0.00    +0.000 A 
ATOM     19  C   UNL     1      46.786   8.361  13.146  0.00  0.00    +0.000 A 
ATOM     20  C   UNL     1      46.899   7.051  12.664  0.00  0.00    +0.000 A 
ATOM     21  C   UNL     1      47.721   6.145  13.352  0.00  0.00    +0.000 A 
ATOM     22  C   UNL     1      48.448   6.553  14.475  0.00  0.00    +0.000 A 
BRANCH  20  23
ATOM     23  C   UNL     1      46.128   6.619  11.431  0.00  0.00    +0.000 C 
BRANCH  23  24
ATOM     24  N   UNL     1      45.234   5.485  11.685  0.00  0.00    +0.000 NA
ATOM     25  C   UNL     1      44.061   5.847  12.487  0.00  0.00    +0.000 C 
ATOM     26  C   UNL     1      42.855   5.361  11.701  0.00  0.00    +0.000 C 
ATOM     27  N   UNL     1      43.331   5.168  10.332  0.00  0.00    +0.000 NA
ATOM     28  C   UNL     1      44.749   4.871  10.460  0.00  0.00    +0.000 C 
ATOM     29  H   UNL     1      43.239   6.042   9.826  0.00  0.00    +0.000 HD
ENDBRANCH  23  24
ENDBRANCH  20  23
ENDBRANCH  16  17
ENDBRANCH   2  16
TORSDOF 5
ENDMDL
MODEL 3
REMARK VINA RESULT:    -6.017      3.632      8.391
REMARK INTER + INTRA:          -8.895
REMARK INTER:                  -7.858
REMARK INTRA:                  -1.037
REMARK UNBOUND:                -1.120
REMARK  Name = 
REMARK  6 active torsions:
REMARK  status: ('A' for Active; 'I' for Inactive)
REMARK    1  A    between atoms: C_1  and  N_2
REMARK    2  A    between atoms: N_2  and  C_3
REMARK    3  A    between atoms: C_3  and  C_4
REMARK    4  A    between atoms: C_7  and  C_8
REMARK    5  A    between atoms: C_8  and  N_9
REMARK    6  A    between atoms: C_16  and  C_18
REMARK                            x       y       z     vdW  Elec       q    Type
REMARK                         _______ _______ _______ _____ _____    ______ ____
ROOT
ATOM      1  C   UNL     1      50.215   7.984  13.015  0.00  0.00    +0.000 C 
ATOM      2  N   UNL     1      49.465   8.109  14.259  0.00  0.00    +0.000 N 
ATOM      3  C   UNL     1      50.227   8.139  15.442  0.00  0.00    +0.000 C 
ATOM      4  O   UNL     1      51.453   8.043  15.416  0.00  0.00    +0.000 OA
ENDROOT
BRANCH   3   5
ATOM      5  C   UNL     1      49.543   8.241  16.739  0.00  0.00    +0.000 A 
ATOM      6  C   UNL     1      49.398   9.415  17.460  0.00  0.00    +0.000 A 
ATOM      7  S   UNL     1      48.478   9.232  18.887  0.00  0.00    +0.000 S 
ATOM      8  C   UNL     1      48.114   7.616  18.505  0.00  0.00    +0.000 A 
ATOM      9  N   UNL     1      47.248   6.899  19.265  0.00  0.00    +0.000 NA
ATOM     10  C   UNL     1      47.008   5.711  18.813  0.00  0.00    +0.000 A 
ATOM     11  N   UNL     1      47.590   5.163  17.695  0.00  0.00    +0.000 N 
ATOM     12  C   UNL     1      48.582   5.807  16.982  0.00  0.00    +0.000 A 
ATOM     13  O   UNL     1      49.261   5.201  16.160  0.00  0.00    +0.000 OA
ATOM     14  C   UNL     1      48.778   7.190  17.371  0.00  0.00    +0.000 A 
ATOM     15  H   UNL     1      47.415   4.207  17.439  0.00  0.00    +0.000 HD
ENDBRANCH   3   5
BRANCH   2  16
ATOM     16  C   UNL     1      48.059   8.515  14.223  0.00  0.00    +0.000 C 
BRANCH  16  17
ATOM     17  C   UNL     1      47.085   7.667  13.445  0.00  0.00    +0.000 A 
ATOM     18  C   UNL     1      46.117   8.274  12.630  0.00  0.00    +0.000 A 
ATOM     19  C   UNL     1      45.279   7.500  11.830  0.00  0.00    +0.000 A 
ATOM     20  C   UNL     1      45.393   6.104  11.820  0.00  0.00    +0.000 A 
ATOM     21  C   UNL     1      46.334   5.496  12.666  0.00  0.00    +0.000 A 
ATOM     22  C   UNL     1      47.171   6.271  13.474  0.00  0.00    +0.000 A 
BRANCH  20  23
ATOM     23  C   UNL     1      44.501   5.269  10.923  0.00  0.00    +0.000 C 
BRANCH  23  24
ATOM     24  N   UNL     1      45.237   4.236  10.186  0.00  0.00    +0.000 NA
ATOM     25  C   UNL     1      44.711   2.886  10.409  0.00  0.00    +0.000 C 
ATOM     26  C   UNL     1      44.460   2.306   9.028  0.00  0.00    +0.000 C 
ATOM     27  N   UNL     1      44.411   3.453   8.123  0.00  0.00    +0.000 NA
ATOM     28  C   UNL     1      45.242   4.468   8.752  0.00  0.00    +0.000 C 
ATOM     29  H   UNL     1      43.460   3.804   8.088  0.00  0.00    +0.000 HD
ENDBRANCH  23  24
ENDBRANCH  20  23
ENDBRANCH  16  17
ENDBRANCH   2  16
TORSDOF 5
ENDMDL
MODEL 4
REMARK VINA RESULT:    -5.945      3.842      7.983
REMARK INTER + INTRA:          -8.803
REMARK INTER:                  -7.661
REMARK INTRA:                  -1.142
REMARK UNBOUND:                -1.120
REMARK  Name = 
REMARK  6 active torsions:
REMARK  status: ('A' for Active; 'I' for Inactive)
REMARK    1  A    between atoms: C_1  and  N_2
REMARK    2  A    between atoms: N_2  and  C_3
REMARK    3  A    between atoms: C_3  and  C_4
REMARK    4  A    between atoms: C_7  and  C_8
REMARK    5  A    between atoms: C_8  and  N_9
REMARK    6  A    between atoms: C_16  and  C_18
REMARK                            x       y       z     vdW  Elec       q    Type
REMARK                         _______ _______ _______ _____ _____    ______ ____
ROOT
ATOM      1  C   UNL     1      50.797   9.511  14.016  0.00  0.00    +0.000 C 
ATOM      2  N   UNL     1      49.801   9.120  15.007  0.00  0.00    +0.000 N 
ATOM      3  C   UNL     1      50.287   8.847  16.300  0.00  0.00    +0.000 C 
ATOM      4  O   UNL     1      51.487   8.917  16.560  0.00  0.00    +0.000 OA
ENDROOT
BRANCH   3   5
ATOM      5  C   UNL     1      49.348   8.424  17.349  0.00  0.00    +0.000 A 
ATOM      6  C   UNL     1      48.648   9.292  18.172  0.00  0.00    +0.000 A 
ATOM      7  S   UNL     1      47.566   8.506  19.234  0.00  0.00    +0.000 S 
ATOM      8  C   UNL     1      47.885   6.996  18.520  0.00  0.00    +0.000 A 
ATOM      9  N   UNL     1      47.184   5.892  18.883  0.00  0.00    +0.000 NA
ATOM     10  C   UNL     1      47.480   4.832  18.204  0.00  0.00    +0.000 A 
ATOM     11  N   UNL     1      48.445   4.769  17.226  0.00  0.00    +0.000 N 
ATOM     12  C   UNL     1      49.276   5.831  16.932  0.00  0.00    +0.000 A 
ATOM     13  O   UNL     1      50.285   5.672  16.253  0.00  0.00    +0.000 OA
ATOM     14  C   UNL     1      48.884   7.074  17.569  0.00  0.00    +0.000 A 
ATOM     15  H   UNL     1      48.677   3.895  16.787  0.00  0.00    +0.000 HD
ENDBRANCH   3   5
BRANCH   2  16
ATOM     16  C   UNL     1      48.379   9.338  14.735  0.00  0.00    +0.000 C 
BRANCH  16  17
ATOM     17  C   UNL     1      47.645   8.326  13.893  0.00  0.00    +0.000 A 
ATOM     18  C   UNL     1      46.408   8.654  13.316  0.00  0.00    +0.000 A 
ATOM     19  C   UNL     1      45.770   7.763  12.455  0.00  0.00    +0.000 A 
ATOM     20  C   UNL     1      46.355   6.528  12.147  0.00  0.00    +0.000 A 
ATOM     21  C   UNL     1      47.572   6.185  12.757  0.00  0.00    +0.000 A 
ATOM     22  C   UNL     1      48.210   7.075  13.625  0.00  0.00    +0.000 A 
BRANCH  20  23
ATOM     23  C   UNL     1      45.672   5.576  11.184  0.00  0.00    +0.000 C 
BRANCH  23  24
ATOM     24  N   UNL     1      44.405   5.052  11.704  0.00  0.00    +0.000 NA
ATOM     25  C   UNL     1      43.681   4.229  10.730  0.00  0.00    +0.000 C 
ATOM     26  C   UNL     1      43.385   2.916  11.435  0.00  0.00    +0.000 C 
ATOM     27  N   UNL     1      44.310   2.860  12.566  0.00  0.00    +0.000 NA
ATOM     28  C   UNL     1      44.583   4.249  12.903  0.00  0.00    +0.000 C 
ATOM     29  H   UNL     1      45.179   2.436  12.260  0.00  0.00    +0.000 HD
ENDBRANCH  23  24
ENDBRANCH  20  23
ENDBRANCH  16  17
ENDBRANCH   2  16
TORSDOF 5
ENDMDL
MODEL 5
REMARK VINA RESULT:    -5.932      3.442      8.635
REMARK INTER + INTRA:          -8.786
REMARK INTER:                  -7.732
REMARK INTRA:                  -1.054
REMARK UNBOUND:                -1.120
REMARK  Name = 
REMARK  6 active torsions:
REMARK  status: ('A' for Active; 'I' for Inactive)
REMARK    1  A    between atoms: C_1  and  N_2
REMARK    2  A    between atoms: N_2  and  C_3
REMARK    3  A    between atoms: C_3  and  C_4
REMARK    4  A    between atoms: C_7  and  C_8
REMARK    5  A    between atoms: C_8  and  N_9
REMARK    6  A    between atoms: C_16  and  C_18
REMARK                            x       y       z     vdW  Elec       q    Type
REMARK                         _______ _______ _______ _____ _____    ______ ____
ROOT
ATOM      1  C   UNL     1      50.476   8.156  13.648  0.00  0.00    +0.000 C 
ATOM      2  N   UNL     1      49.471   7.658  14.579  0.00  0.00    +0.000 N 
ATOM      3  C   UNL     1      49.958   6.985  15.715  0.00  0.00    +0.000 C 
ATOM      4  O   UNL     1      51.164   6.813  15.890  0.00  0.00    +0.000 OA
ENDROOT
BRANCH   3   5
ATOM      5  C   UNL     1      49.006   6.432  16.690  0.00  0.00    +0.000 A 
ATOM      6  C   UNL     1      48.495   5.145  16.645  0.00  0.00    +0.000 A 
ATOM      7  S   UNL     1      47.480   4.765  17.965  0.00  0.00    +0.000 S 
ATOM      8  C   UNL     1      47.818   6.252  18.717  0.00  0.00    +0.000 A 
ATOM      9  N   UNL     1      47.356   6.523  19.963  0.00  0.00    +0.000 NA
ATOM     10  C   UNL     1      47.753   7.658  20.439  0.00  0.00    +0.000 A 
ATOM     11  N   UNL     1      48.534   8.564  19.761  0.00  0.00    +0.000 N 
ATOM     12  C   UNL     1      48.901   8.388  18.441  0.00  0.00    +0.000 A 
ATOM     13  O   UNL     1      49.367   9.316  17.789  0.00  0.00    +0.000 OA
ATOM     14  C   UNL     1      48.596   7.070  17.920  0.00  0.00    +0.000 A 
ATOM     15  H   UNL     1      48.747   9.461  20.160  0.00  0.00    +0.000 HD
ENDBRANCH   3   5
BRANCH   2  16
ATOM     16  C   UNL     1      48.091   8.137  14.485  0.00  0.00    +0.000 C 
BRANCH  16  17
ATOM     17  C   UNL     1      47.134   7.401  13.583  0.00  0.00    +0.000 A 
ATOM     18  C   UNL     1      46.185   8.112  12.831  0.00  0.00    +0.000 A 
ATOM     19  C   UNL     1      45.365   7.450  11.920  0.00  0.00    +0.000 A 
ATOM     20  C   UNL     1      45.477   6.066  11.733  0.00  0.00    +0.000 A 
ATOM     21  C   UNL     1      46.398   5.351  12.516  0.00  0.00    +0.000 A 
ATOM     22  C   UNL     1      47.217   6.012  13.435  0.00  0.00    +0.000 A 
BRANCH  20  23
ATOM     23  C   UNL     1      44.604   5.356  10.717  0.00  0.00    +0.000 C 
BRANCH  23  24
ATOM     24  N   UNL     1      45.302   4.268  10.026  0.00  0.00    +0.000 NA
ATOM     25  C   UNL     1      44.754   2.945  10.337  0.00  0.00    +0.000 C 
ATOM     26  C   UNL     1      44.459   2.292   8.998  0.00  0.00    +0.000 C 
ATOM     27  N   UNL     1      44.412   3.386   8.030  0.00  0.00    +0.000 NA
ATOM     28  C   UNL     1      45.277   4.418   8.580  0.00  0.00    +0.000 C 
ATOM     29  H   UNL     1      43.468   3.755   7.996  0.00  0.00    +0.000 HD
ENDBRANCH  23  24
ENDBRANCH  20  23
ENDBRANCH  16  17
ENDBRANCH   2  16
TORSDOF 5
ENDMDL
MODEL 6
REMARK VINA RESULT:    -5.729      3.310      4.721
REMARK INTER + INTRA:          -8.524
REMARK INTER:                  -8.340
REMARK INTRA:                  -0.184
REMARK UNBOUND:                -1.120
REMARK  Name = 
REMARK  6 active torsions:
REMARK  status: ('A' for Active; 'I' for Inactive)
REMARK    1  A    between atoms: C_1  and  N_2
REMARK    2  A    between atoms: N_2  and  C_3
REMARK    3  A    between atoms: C_3  and  C_4
REMARK    4  A    between atoms: C_7  and  C_8
REMARK    5  A    between atoms: C_8  and  N_9
REMARK    6  A    between atoms: C_16  and  C_18
REMARK                            x       y       z     vdW  Elec       q    Type
REMARK                         _______ _______ _______ _____ _____    ______ ____
ROOT
ATOM      1  C   UNL     1      45.307   8.525  12.614  0.00  0.00    +0.000 C 
ATOM      2  N   UNL     1      45.282   7.075  12.466  0.00  0.00    +0.000 N 
ATOM      3  C   UNL     1      44.258   6.552  11.652  0.00  0.00    +0.000 C 
ATOM      4  O   UNL     1      43.426   7.285  11.121  0.00  0.00    +0.000 OA
ENDROOT
BRANCH   3   5
ATOM      5  C   UNL     1      44.152   5.097  11.472  0.00  0.00    +0.000 A 
ATOM      6  C   UNL     1      43.383   4.262  12.266  0.00  0.00    +0.000 A 
ATOM      7  S   UNL     1      43.392   2.633  11.755  0.00  0.00    +0.000 S 
ATOM      8  C   UNL     1      44.294   3.020  10.368  0.00  0.00    +0.000 A 
ATOM      9  N   UNL     1      44.549   2.085   9.419  0.00  0.00    +0.000 NA
ATOM     10  C   UNL     1      45.180   2.539   8.385  0.00  0.00    +0.000 A 
ATOM     11  N   UNL     1      45.617   3.834   8.238  0.00  0.00    +0.000 N 
ATOM     12  C   UNL     1      45.506   4.776   9.243  0.00  0.00    +0.000 A 
ATOM     13  O   UNL     1      46.128   5.831   9.189  0.00  0.00    +0.000 OA
ATOM     14  C   UNL     1      44.682   4.346  10.357  0.00  0.00    +0.000 A 
ATOM     15  H   UNL     1      46.167   4.105   7.442  0.00  0.00    +0.000 HD
ENDBRANCH   3   5
BRANCH   2  16
ATOM     16  C   UNL     1      46.447   6.283  12.864  0.00  0.00    +0.000 C 
BRANCH  16  17
ATOM     17  C   UNL     1      47.815   6.901  12.736  0.00  0.00    +0.000 A 
ATOM     18  C   UNL     1      48.206   7.506  11.531  0.00  0.00    +0.000 A 
ATOM     19  C   UNL     1      49.428   8.168  11.435  0.00  0.00    +0.000 A 
ATOM     20  C   UNL     1      50.284   8.247  12.541  0.00  0.00    +0.000 A 
ATOM     21  C   UNL     1      49.911   7.607  13.733  0.00  0.00    +0.000 A 
ATOM     22  C   UNL     1      48.688   6.937  13.829  0.00  0.00    +0.000 A 
BRANCH  20  23
ATOM     23  C   UNL     1      51.599   8.997  12.439  0.00  0.00    +0.000 C 
BRANCH  23  24
ATOM     24  N   UNL     1      52.638   8.234  11.741  0.00  0.00    +0.000 NA
ATOM     25  C   UNL     1      52.127   7.495  10.582  0.00  0.00    +0.000 C 
ATOM     26  C   UNL     1      53.011   7.894   9.413  0.00  0.00    +0.000 C 
ATOM     27  N   UNL     1      53.664   9.137   9.821  0.00  0.00    +0.000 NA
ATOM     28  C   UNL     1      53.729   9.073  11.273  0.00  0.00    +0.000 C 
ATOM     29  H   UNL     1      53.071   9.919   9.569  0.00  0.00    +0.000 HD
ENDBRANCH  23  24
ENDBRANCH  20  23
ENDBRANCH  16  17
ENDBRANCH   2  16
TORSDOF 5
ENDMDL
MODEL 7
REMARK VINA RESULT:    -5.628      3.730      8.130
REMARK INTER + INTRA:          -8.393
REMARK INTER:                  -7.114
REMARK INTRA:                  -1.279
REMARK UNBOUND:                -1.120
REMARK  Name = 
REMARK  6 active torsions:
REMARK  status: ('A' for Active; 'I' for Inactive)
REMARK    1  A    between atoms: C_1  and  N_2
REMARK    2  A    between atoms: N_2  and  C_3
REMARK    3  A    between atoms: C_3  and  C_4
REMARK    4  A    between atoms: C_7  and  C_8
REMARK    5  A    between atoms: C_8  and  N_9
REMARK    6  A    between atoms: C_16  and  C_18
REMARK                            x       y       z     vdW  Elec       q    Type
REMARK                         _______ _______ _______ _____ _____    ______ ____
ROOT
ATOM      1  C   UNL     1      50.053  10.780  12.015  0.00  0.00    +0.000 C 
ATOM      2  N   UNL     1      50.304   9.579  12.802  0.00  0.00    +0.000 N 
ATOM      3  C   UNL     1      50.542   9.776  14.175  0.00  0.00    +0.000 C 
ATOM      4  O   UNL     1      50.556  10.903  14.667  0.00  0.00    +0.000 OA
ENDROOT
BRANCH   3   5
ATOM      5  C   UNL     1      50.827   8.616  15.032  0.00  0.00    +0.000 A 
ATOM      6  C   UNL     1      52.065   8.003  15.137  0.00  0.00    +0.000 A 
ATOM      7  S   UNL     1      52.106   6.735  16.280  0.00  0.00    +0.000 S 
ATOM      8  C   UNL     1      50.518   7.069  16.783  0.00  0.00    +0.000 A 
ATOM      9  N   UNL     1      49.969   6.416  17.838  0.00  0.00    +0.000 NA
ATOM     10  C   UNL     1      48.784   6.826  18.155  0.00  0.00    +0.000 A 
ATOM     11  N   UNL     1      48.083   7.798  17.482  0.00  0.00    +0.000 N 
ATOM     12  C   UNL     1      48.548   8.380  16.318  0.00  0.00    +0.000 A 
ATOM     13  O   UNL     1      47.803   9.041  15.604  0.00  0.00    +0.000 OA
ATOM     14  C   UNL     1      49.927   8.051  16.012  0.00  0.00    +0.000 A 
ATOM     15  H   UNL     1      47.135   8.019  17.735  0.00  0.00    +0.000 HD
ENDBRANCH   3   5
BRANCH   2  16
ATOM     16  C   UNL     1      49.987   8.263  12.243  0.00  0.00    +0.000 C 
BRANCH  16  17
ATOM     17  C   UNL     1      48.621   7.682  12.503  0.00  0.00    +0.000 A 
ATOM     18  C   UNL     1      47.472   8.354  12.057  0.00  0.00    +0.000 A 
ATOM     19  C   UNL     1      46.213   7.776  12.204  0.00  0.00    +0.000 A 
ATOM     20  C   UNL     1      46.073   6.512  12.792  0.00  0.00    +0.000 A 
ATOM     21  C   UNL     1      47.218   5.860  13.275  0.00  0.00    +0.000 A 
ATOM     22  C   UNL     1      48.482   6.441  13.135  0.00  0.00    +0.000 A 
BRANCH  20  23
ATOM     23  C   UNL     1      44.703   5.874  12.920  0.00  0.00    +0.000 C 
BRANCH  23  24
ATOM     24  N   UNL     1      44.131   5.489  11.626  0.00  0.00    +0.000 NA
ATOM     25  C   UNL     1      44.925   4.475  10.926  0.00  0.00    +0.000 C 
ATOM     26  C   UNL     1      43.959   3.355  10.581  0.00  0.00    +0.000 C 
ATOM     27  N   UNL     1      42.808   3.545  11.462  0.00  0.00    +0.000 NA
ATOM     28  C   UNL     1      42.777   4.972  11.745  0.00  0.00    +0.000 C 
ATOM     29  H   UNL     1      42.977   3.057  12.335  0.00  0.00    +0.000 HD
ENDBRANCH  23  24
ENDBRANCH  20  23
ENDBRANCH  16  17
ENDBRANCH   2  16
TORSDOF 5
ENDMDL
MODEL 8
REMARK VINA RESULT:    -5.516      1.503      2.335
REMARK INTER + INTRA:          -8.249
REMARK INTER:                  -7.625
REMARK INTRA:                  -0.624
REMARK UNBOUND:                -1.120
REMARK  Name = 
REMARK  6 active torsions:
REMARK  status: ('A' for Active; 'I' for Inactive)
REMARK    1  A    between atoms: C_1  and  N_2
REMARK    2  A    between atoms: N_2  and  C_3
REMARK    3  A    between atoms: C_3  and  C_4
REMARK    4  A    between atoms: C_7  and  C_8
REMARK    5  A    between atoms: C_8  and  N_9
REMARK    6  A    between atoms: C_16  and  C_18
REMARK                            x       y       z     vdW  Elec       q    Type
REMARK                         _______ _______ _______ _____ _____    ______ ____
ROOT
ATOM      1  C   UNL     1      46.274   8.487  13.107  0.00  0.00    +0.000 C 
ATOM      2  N   UNL     1      46.175   7.215  12.402  0.00  0.00    +0.000 N 
ATOM      3  C   UNL     1      45.239   7.160  11.351  0.00  0.00    +0.000 C 
ATOM      4  O   UNL     1      44.535   8.129  11.070  0.00  0.00    +0.000 OA
ENDROOT
BRANCH   3   5
ATOM      5  C   UNL     1      45.063   5.905  10.606  0.00  0.00    +0.000 A 
ATOM      6  C   UNL     1      45.722   5.592   9.429  0.00  0.00    +0.000 A 
ATOM      7  S   UNL     1      45.378   4.025   8.847  0.00  0.00    +0.000 S 
ATOM      8  C   UNL     1      44.462   3.658  10.231  0.00  0.00    +0.000 A 
ATOM      9  N   UNL     1      43.971   2.409  10.431  0.00  0.00    +0.000 NA
ATOM     10  C   UNL     1      43.360   2.256  11.560  0.00  0.00    +0.000 A 
ATOM     11  N   UNL     1      43.158   3.252  12.485  0.00  0.00    +0.000 N 
ATOM     12  C   UNL     1      43.514   4.566  12.253  0.00  0.00    +0.000 A 
ATOM     13  O   UNL     1      43.094   5.468  12.970  0.00  0.00    +0.000 OA
ATOM     14  C   UNL     1      44.324   4.751  11.064  0.00  0.00    +0.000 A 
ATOM     15  H   UNL     1      42.611   3.085  13.312  0.00  0.00    +0.000 HD
ENDBRANCH   3   5
BRANCH   2  16
ATOM     16  C   UNL     1      47.221   6.205  12.571  0.00  0.00    +0.000 C 
BRANCH  16  17
ATOM     17  C   UNL     1      47.866   6.058  13.925  0.00  0.00    +0.000 A 
ATOM     18  C   UNL     1      48.909   6.917  14.307  0.00  0.00    +0.000 A 
ATOM     19  C   UNL     1      49.442   6.855  15.592  0.00  0.00    +0.000 A 
ATOM     20  C   UNL     1      48.943   5.939  16.528  0.00  0.00    +0.000 A 
ATOM     21  C   UNL     1      47.929   5.053  16.132  0.00  0.00    +0.000 A 
ATOM     22  C   UNL     1      47.397   5.109  14.841  0.00  0.00    +0.000 A 
BRANCH  20  23
ATOM     23  C   UNL     1      49.506   5.898  17.935  0.00  0.00    +0.000 C 
BRANCH  23  24
ATOM     24  N   UNL     1      50.849   5.311  17.995  0.00  0.00    +0.000 NA
ATOM     25  C   UNL     1      51.834   6.194  18.627  0.00  0.00    +0.000 C 
ATOM     26  C   UNL     1      52.490   5.369  19.721  0.00  0.00    +0.000 C 
ATOM     27  N   UNL     1      51.578   4.254  19.971  0.00  0.00    +0.000 NA
ATOM     28  C   UNL     1      50.875   4.048  18.715  0.00  0.00    +0.000 C 
ATOM     29  H   UNL     1      50.897   4.535  20.668  0.00  0.00    +0.000 HD
ENDBRANCH  23  24
ENDBRANCH  20  23
ENDBRANCH  16  17
ENDBRANCH   2  16
TORSDOF 5
ENDMDL
MODEL 9
REMARK VINA RESULT:    -4.826      3.751      8.336
REMARK INTER + INTRA:          -7.357
REMARK INTER:                  -6.351
REMARK INTRA:                  -1.006
REMARK UNBOUND:                -1.120
REMARK  Name = 
REMARK  6 active torsions:
REMARK  status: ('A' for Active; 'I' for Inactive)
REMARK    1  A    between atoms: C_1  and  N_2
REMARK    2  A    between atoms: N_2  and  C_3
REMARK    3  A    between atoms: C_3  and  C_4
REMARK    4  A    between atoms: C_7  and  C_8
REMARK    5  A    between atoms: C_8  and  N_9
REMARK    6  A    between atoms: C_16  and  C_18
REMARK                            x       y       z     vdW  Elec       q    Type
REMARK                         _______ _______ _______ _____ _____    ______ ____
ROOT
ATOM      1  C   UNL     1      44.668   9.626  12.321  0.00  0.00    +0.000 C 
ATOM      2  N   UNL     1      45.902   8.860  12.452  0.00  0.00    +0.000 N 
ATOM      3  C   UNL     1      47.095   9.606  12.475  0.00  0.00    +0.000 C 
ATOM      4  O   UNL     1      47.086  10.832  12.369  0.00  0.00    +0.000 OA
ENDROOT
BRANCH   3   5
ATOM      5  C   UNL     1      48.383   8.905  12.581  0.00  0.00    +0.000 A 
ATOM      6  C   UNL     1      49.139   8.484  11.499  0.00  0.00    +0.000 A 
ATOM      7  S   UNL     1      50.629   7.777  11.939  0.00  0.00    +0.000 S 
ATOM      8  C   UNL     1      50.382   8.154  13.577  0.00  0.00    +0.000 A 
ATOM      9  N   UNL     1      51.352   7.929  14.499  0.00  0.00    +0.000 NA
ATOM     10  C   UNL     1      51.054   8.333  15.690  0.00  0.00    +0.000 A 
ATOM     11  N   UNL     1      49.855   8.902  16.050  0.00  0.00    +0.000 N 
ATOM     12  C   UNL     1      48.792   9.013  15.174  0.00  0.00    +0.000 A 
ATOM     13  O   UNL     1      47.666   9.277  15.582  0.00  0.00    +0.000 OA
ATOM     14  C   UNL     1      49.133   8.702  13.799  0.00  0.00    +0.000 A 
ATOM     15  H   UNL     1      49.659   9.127  17.009  0.00  0.00    +0.000 HD
ENDBRANCH   3   5
BRANCH   2  16
ATOM     16  C   UNL     1      45.847   7.458  12.869  0.00  0.00    +0.000 C 
BRANCH  16  17
ATOM     17  C   UNL     1      45.760   6.394  11.805  0.00  0.00    +0.000 A 
ATOM     18  C   UNL     1      45.132   5.169  12.082  0.00  0.00    +0.000 A 
ATOM     19  C   UNL     1      44.958   4.220  11.077  0.00  0.00    +0.000 A 
ATOM     20  C   UNL     1      45.399   4.474   9.772  0.00  0.00    +0.000 A 
ATOM     21  C   UNL     1      46.063   5.682   9.506  0.00  0.00    +0.000 A 
ATOM     22  C   UNL     1      46.245   6.633  10.514  0.00  0.00    +0.000 A 
BRANCH  20  23
ATOM     23  C   UNL     1      45.178   3.451   8.675  0.00  0.00    +0.000 C 
BRANCH  23  24
ATOM     24  N   UNL     1      46.431   2.957   8.094  0.00  0.00    +0.000 NA
ATOM     25  C   UNL     1      46.471   1.497   7.971  0.00  0.00    +0.000 C 
ATOM     26  C   UNL     1      46.829   1.212   6.523  0.00  0.00    +0.000 C 
ATOM     27  N   UNL     1      46.536   2.446   5.796  0.00  0.00    +0.000 NA
ATOM     28  C   UNL     1      46.691   3.510   6.775  0.00  0.00    +0.000 C 
ATOM     29  H   UNL     1      45.565   2.432   5.502  0.00  0.00    +0.000 HD
ENDBRANCH  23  24
ENDBRANCH  20  23
ENDBRANCH  16  17
ENDBRANCH   2  16
TORSDOF 5
ENDMDL
