MODEL 1
REMARK VINA RESULT:    -8.436      0.000      0.000
REMARK INTER + INTRA:         -13.302
REMARK INTER:                 -12.382
REMARK INTRA:                  -0.920
REMARK UNBOUND:                -0.920
REMARK  Name = 
REMARK  9 active torsions:
REMARK  status: ('A' for Active; 'I' for Inactive)
REMARK    1  A    between atoms: C_1  and  O_2
REMARK    2  A    between atoms: O_2  and  C_3
REMARK    3  A    between atoms: C_5  and  C_6
REMARK    4  A    between atoms: C_6  and  N_7
REMARK    5  A    between atoms: C_8  and  C_10
REMARK    6  A    between atoms: C_22  and  C_23
REMARK    7  A    between atoms: C_23  and  N_24
REMARK    8  A    between atoms: N_24  and  C_25
REMARK    9  A    between atoms: C_25  and  C_26
REMARK                            x       y       z     vdW  Elec       q    Type
REMARK                         _______ _______ _______ _____ _____    ______ ____
ROOT
ATOM      1  C   UNL     1      44.599   5.222  11.883  0.00  0.00    +0.000 A 
ATOM      2  C   UNL     1      45.628   6.075  12.328  0.00  0.00    +0.000 A 
ATOM      3  C   UNL     1      46.727   5.586  13.057  0.00  0.00    +0.000 A 
ATOM      4  C   UNL     1      46.789   4.215  13.321  0.00  0.00    +0.000 A 
ATOM      5  C   UNL     1      45.798   3.358  12.841  0.00  0.00    +0.000 A 
ATOM      6  C   UNL     1      44.713   3.835  12.081  0.00  0.00    +0.000 A 
ENDROOT
BRANCH   1   8
ATOM      7  C   UNL     1      42.314   5.866  11.785  0.00  0.00    +0.000 C 
ATOM      8  O   UNL     1      43.603   5.840  11.168  0.00  0.00    +0.000 OA
ENDBRANCH   1   8
BRANCH   3   9
ATOM      9  C   UNL     1      47.842   6.495  13.515  0.00  0.00    +0.000 C 
BRANCH   9  10
ATOM     10  N   UNL     1      47.947   6.528  14.954  0.00  0.00    +0.000 N 
ATOM     11  C   UNL     1      49.154   6.714  15.584  0.00  0.00    +0.000 C 
ATOM     12  O   UNL     1      50.189   6.925  14.955  0.00  0.00    +0.000 OA
ATOM     13  H   UNL     1      47.169   6.140  15.477  0.00  0.00    +0.000 HD
BRANCH  11  14
ATOM     14  C   UNL     1      49.145   6.708  17.057  0.00  0.00    +0.000 A 
ATOM     15  C   UNL     1      49.378   7.886  17.755  0.00  0.00    +0.000 A 
ATOM     16  S   UNL     1      49.283   7.712  19.449  0.00  0.00    +0.000 S 
ATOM     17  C   UNL     1      48.972   6.043  19.317  0.00  0.00    +0.000 A 
ATOM     18  N   UNL     1      48.807   5.273  20.422  0.00  0.00    +0.000 NA
ATOM     19  C   UNL     1      48.606   4.021  20.175  0.00  0.00    +0.000 A 
ATOM     20  N   UNL     1      48.554   3.472  18.919  0.00  0.00    +0.000 N 
ATOM     21  C   UNL     1      48.697   4.214  17.769  0.00  0.00    +0.000 A 
ATOM     22  O   UNL     1      48.628   3.699  16.665  0.00  0.00    +0.000 OA
ATOM     23  C   UNL     1      48.930   5.630  17.993  0.00  0.00    +0.000 A 
ATOM     24  H   UNL     1      48.389   2.485  18.788  0.00  0.00    +0.000 HD
ENDBRANCH  11  14
ENDBRANCH   9  10
ENDBRANCH   3   9
BRANCH   6  25
ATOM     25  C   UNL     1      43.791   2.806  11.469  0.00  0.00    +0.000 C 
BRANCH  25  26
ATOM     26  N   UNL     1      44.316   2.155  10.268  0.00  0.00    +0.000 NA
ATOM     27  H   UNL     1      43.643   1.451   9.956  0.00  0.00    +0.000 HD
BRANCH  26  28
ATOM     28  C   UNL     1      44.479   3.075   9.136  0.00  0.00    +0.000 C 
BRANCH  28  29
ATOM     29  C   UNL     1      45.543   2.564   8.177  0.00  0.00    +0.000 A 
ATOM     30  C   UNL     1      45.985   3.382   7.136  0.00  0.00    +0.000 A 
ATOM     31  C   UNL     1      46.983   2.914   6.288  0.00  0.00    +0.000 A 
ATOM     32  C   UNL     1      47.517   1.650   6.501  0.00  0.00    +0.000 A 
ATOM     33  C   UNL     1      47.028   0.903   7.560  0.00  0.00    +0.000 A 
ATOM     34  N   UNL     1      46.056   1.326   8.397  0.00  0.00    +0.000 NA
ENDBRANCH  28  29
ENDBRANCH  26  28
ENDBRANCH  25  26
ENDBRANCH   6  25
TORSDOF 8
ENDMDL
MODEL 2
REMARK VINA RESULT:    -7.862      1.951      2.584
REMARK INTER + INTRA:         -12.459
REMARK INTER:                 -11.285
REMARK INTRA:                  -1.173
REMARK UNBOUND:                -0.920
REMARK  Name = 
REMARK  9 active torsions:
REMARK  status: ('A' for Active; 'I' for Inactive)
REMARK    1  A    between atoms: C_1  and  O_2
REMARK    2  A    between atoms: O_2  and  C_3
REMARK    3  A    between atoms: C_5  and  C_6
REMARK    4  A    between atoms: C_6  and  N_7
REMARK    5  A    between atoms: C_8  and  C_10
REMARK    6  A    between atoms: C_22  and  C_23
REMARK    7  A    between atoms: C_23  and  N_24
REMARK    8  A    between atoms: N_24  and  C_25
REMARK    9  A    between atoms: C_25  and  C_26
REMARK                            x       y       z     vdW  Elec       q    Type
REMARK                         _______ _______ _______ _____ _____    ______ ____
ROOT
ATOM      1  C   UNL     1      45.785   5.425  12.365  0.00  0.00    +0.000 A 
ATOM      2  C   UNL     1      46.667   6.285  13.049  0.00  0.00    +0.000 A 
ATOM      3  C   UNL     1      46.605   7.681  12.890  0.00  0.00    +0.000 A 
ATOM      4  C   UNL     1      45.628   8.208  12.042  0.00  0.00    +0.000 A 
ATOM      5  C   UNL     1      44.720   7.365  11.400  0.00  0.00    +0.000 A 
ATOM      6  C   UNL     1      44.753   5.969  11.581  0.00  0.00    +0.000 A 
ENDROOT
BRANCH   1   8
ATOM      7  C   UNL     1      46.815   3.777  13.732  0.00  0.00    +0.000 C 
ATOM      8  O   UNL     1      45.954   4.089  12.636  0.00  0.00    +0.000 OA
ENDBRANCH   1   8
BRANCH   3   9
ATOM      9  C   UNL     1      47.534   8.606  13.639  0.00  0.00    +0.000 C 
BRANCH   9  10
ATOM     10  N   UNL     1      48.656   7.895  14.203  0.00  0.00    +0.000 N 
ATOM     11  C   UNL     1      48.970   7.986  15.537  0.00  0.00    +0.000 C 
ATOM     12  O   UNL     1      48.274   8.622  16.326  0.00  0.00    +0.000 OA
ATOM     13  H   UNL     1      49.357   7.558  13.551  0.00  0.00    +0.000 HD
BRANCH  11  14
ATOM     14  C   UNL     1      50.151   7.235  15.997  0.00  0.00    +0.000 A 
ATOM     15  C   UNL     1      51.425   7.730  15.746  0.00  0.00    +0.000 A 
ATOM     16  S   UNL     1      52.676   6.764  16.389  0.00  0.00    +0.000 S 
ATOM     17  C   UNL     1      51.564   5.622  16.986  0.00  0.00    +0.000 A 
ATOM     18  N   UNL     1      51.987   4.509  17.639  0.00  0.00    +0.000 NA
ATOM     19  C   UNL     1      51.038   3.716  18.013  0.00  0.00    +0.000 A 
ATOM     20  N   UNL     1      49.702   3.940  17.793  0.00  0.00    +0.000 N 
ATOM     21  C   UNL     1      49.224   5.060  17.153  0.00  0.00    +0.000 A 
ATOM     22  O   UNL     1      48.028   5.240  16.988  0.00  0.00    +0.000 OA
ATOM     23  C   UNL     1      50.253   5.984  16.709  0.00  0.00    +0.000 A 
ATOM     24  H   UNL     1      49.005   3.285  18.112  0.00  0.00    +0.000 HD
ENDBRANCH  11  14
ENDBRANCH   9  10
ENDBRANCH   3   9
BRANCH   6  25
ATOM     25  C   UNL     1      43.625   5.165  10.977  0.00  0.00    +0.000 C 
BRANCH  25  26
ATOM     26  N   UNL     1      43.930   4.570   9.675  0.00  0.00    +0.000 NA
ATOM     27  H   UNL     1      44.762   5.026   9.293  0.00  0.00    +0.000 HD
BRANCH  26  28
ATOM     28  C   UNL     1      44.264   3.143   9.756  0.00  0.00    +0.000 C 
BRANCH  28  29
ATOM     29  C   UNL     1      45.287   2.769   8.695  0.00  0.00    +0.000 A 
ATOM     30  C   UNL     1      45.735   3.736   7.795  0.00  0.00    +0.000 A 
ATOM     31  C   UNL     1      46.697   3.387   6.852  0.00  0.00    +0.000 A 
ATOM     32  C   UNL     1      47.189   2.089   6.834  0.00  0.00    +0.000 A 
ATOM     33  C   UNL     1      46.698   1.189   7.767  0.00  0.00    +0.000 A 
ATOM     34  N   UNL     1      45.761   1.495   8.690  0.00  0.00    +0.000 NA
ENDBRANCH  28  29
ENDBRANCH  26  28
ENDBRANCH  25  26
ENDBRANCH   6  25
TORSDOF 8
ENDMDL
MODEL 3
REMARK VINA RESULT:    -7.810      2.048      2.812
REMARK INTER + INTRA:         -12.382
REMARK INTER:                 -11.328
REMARK INTRA:                  -1.054
REMARK UNBOUND:                -0.920
REMARK  Name = 
REMARK  9 active torsions:
REMARK  status: ('A' for Active; 'I' for Inactive)
REMARK    1  A    between atoms: C_1  and  O_2
REMARK    2  A    between atoms: O_2  and  C_3
REMARK    3  A    between atoms: C_5  and  C_6
REMARK    4  A    between atoms: C_6  and  N_7
REMARK    5  A    between atoms: C_8  and  C_10
REMARK    6  A    between atoms: C_22  and  C_23
REMARK    7  A    between atoms: C_23  and  N_24
REMARK    8  A    between atoms: N_24  and  C_25
REMARK    9  A    between atoms: C_25  and  C_26
REMARK                            x       y       z     vdW  Elec       q    Type
REMARK                         _______ _______ _______ _____ _____    ______ ____
ROOT
ATOM      1  C   UNL     1      45.297   6.674  12.049  0.00  0.00    +0.000 A 
ATOM      2  C   UNL     1      46.445   6.983  12.804  0.00  0.00    +0.000 A 
ATOM      3  C   UNL     1      47.089   6.016  13.596  0.00  0.00    +0.000 A 
ATOM      4  C   UNL     1      46.570   4.718  13.609  0.00  0.00    +0.000 A 
ATOM      5  C   UNL     1      45.462   4.394  12.825  0.00  0.00    +0.000 A 
ATOM      6  C   UNL     1      44.833   5.348  12.003  0.00  0.00    +0.000 A 
ENDROOT
BRANCH   1   8
ATOM      7  C   UNL     1      44.999   9.023  11.850  0.00  0.00    +0.000 C 
ATOM      8  O   UNL     1      44.791   7.716  11.311  0.00  0.00    +0.000 OA
ENDBRANCH   1   8
BRANCH   3   9
ATOM      9  C   UNL     1      48.334   6.339  14.388  0.00  0.00    +0.000 C 
BRANCH   9  10
ATOM     10  N   UNL     1      48.034   6.582  15.778  0.00  0.00    +0.000 N 
ATOM     11  C   UNL     1      48.823   6.078  16.784  0.00  0.00    +0.000 C 
ATOM     12  O   UNL     1      49.855   5.453  16.548  0.00  0.00    +0.000 OA
ATOM     13  H   UNL     1      47.092   6.891  15.995  0.00  0.00    +0.000 HD
BRANCH  11  14
ATOM     14  C   UNL     1      48.409   6.370  18.166  0.00  0.00    +0.000 A 
ATOM     15  C   UNL     1      48.371   5.348  19.107  0.00  0.00    +0.000 A 
ATOM     16  S   UNL     1      47.918   5.867  20.668  0.00  0.00    +0.000 S 
ATOM     17  C   UNL     1      47.708   7.470  20.135  0.00  0.00    +0.000 A 
ATOM     18  N   UNL     1      47.298   8.443  20.990  0.00  0.00    +0.000 NA
ATOM     19  C   UNL     1      47.154   9.605  20.445  0.00  0.00    +0.000 A 
ATOM     20  N   UNL     1      47.387   9.881  19.121  0.00  0.00    +0.000 N 
ATOM     21  C   UNL     1      47.821   8.935  18.222  0.00  0.00    +0.000 A 
ATOM     22  O   UNL     1      48.037   9.215  17.054  0.00  0.00    +0.000 OA
ATOM     23  C   UNL     1      47.995   7.606  18.785  0.00  0.00    +0.000 A 
ATOM     24  H   UNL     1      47.261  10.812  18.753  0.00  0.00    +0.000 HD
ENDBRANCH  11  14
ENDBRANCH   9  10
ENDBRANCH   3   9
BRANCH   6  25
ATOM     25  C   UNL     1      43.751   4.854  11.071  0.00  0.00    +0.000 C 
BRANCH  25  26
ATOM     26  N   UNL     1      44.195   4.608   9.698  0.00  0.00    +0.000 NA
ATOM     27  H   UNL     1      45.164   4.919   9.606  0.00  0.00    +0.000 HD
BRANCH  26  28
ATOM     28  C   UNL     1      44.201   3.184   9.339  0.00  0.00    +0.000 C 
BRANCH  28  29
ATOM     29  C   UNL     1      45.355   2.871   8.399  0.00  0.00    +0.000 A 
ATOM     30  C   UNL     1      45.917   1.594   8.395  0.00  0.00    +0.000 A 
ATOM     31  C   UNL     1      46.948   1.313   7.506  0.00  0.00    +0.000 A 
ATOM     32  C   UNL     1      47.389   2.308   6.642  0.00  0.00    +0.000 A 
ATOM     33  C   UNL     1      46.774   3.548   6.704  0.00  0.00    +0.000 A 
ATOM     34  N   UNL     1      45.775   3.853   7.560  0.00  0.00    +0.000 NA
ENDBRANCH  28  29
ENDBRANCH  26  28
ENDBRANCH  25  26
ENDBRANCH   6  25
TORSDOF 8
ENDMDL
MODEL 4
REMARK VINA RESULT:    -7.654      1.929      2.695
REMARK INTER + INTRA:         -12.153
REMARK INTER:                 -10.895
REMARK INTRA:                  -1.259
REMARK UNBOUND:                -0.920
REMARK  Name = 
REMARK  9 active torsions:
REMARK  status: ('A' for Active; 'I' for Inactive)
REMARK    1  A    between atoms: C_1  and  O_2
REMARK    2  A    between atoms: O_2  and  C_3
REMARK    3  A    between atoms: C_5  and  C_6
REMARK    4  A    between atoms: C_6  and  N_7
REMARK    5  A    between atoms: C_8  and  C_10
REMARK    6  A    between atoms: C_22  and  C_23
REMARK    7  A    between atoms: C_23  and  N_24
REMARK    8  A    between atoms: N_24  and  C_25
REMARK    9  A    between atoms: C_25  and  C_26
REMARK                            x       y       z     vdW  Elec       q    Type
REMARK                         _______ _______ _______ _____ _____    ______ ____
ROOT
ATOM      1  C   UNL     1      46.288   5.265  12.867  0.00  0.00    +0.000 A 
ATOM      2  C   UNL     1      46.966   6.354  13.449  0.00  0.00    +0.000 A 
ATOM      3  C   UNL     1      46.798   7.666  12.972  0.00  0.00    +0.000 A 
ATOM      4  C   UNL     1      45.919   7.876  11.906  0.00  0.00    +0.000 A 
ATOM      5  C   UNL     1      45.207   6.809  11.357  0.00  0.00    +0.000 A 
ATOM      6  C   UNL     1      45.344   5.497  11.852  0.00  0.00    +0.000 A 
ENDROOT
BRANCH   1   8
ATOM      7  C   UNL     1      47.115   4.088  14.758  0.00  0.00    +0.000 C 
ATOM      8  O   UNL     1      46.539   4.048  13.451  0.00  0.00    +0.000 OA
ENDBRANCH   1   8
BRANCH   3   9
ATOM      9  C   UNL     1      47.506   8.838  13.609  0.00  0.00    +0.000 C 
BRANCH   9  10
ATOM     10  N   UNL     1      47.294   8.880  15.036  0.00  0.00    +0.000 N 
ATOM     11  C   UNL     1      48.326   9.120  15.911  0.00  0.00    +0.000 C 
ATOM     12  O   UNL     1      49.463   9.376  15.520  0.00  0.00    +0.000 OA
ATOM     13  H   UNL     1      46.438   8.458  15.382  0.00  0.00    +0.000 HD
BRANCH  11  14
ATOM     14  C   UNL     1      47.997   9.116  17.346  0.00  0.00    +0.000 A 
ATOM     15  C   UNL     1      47.640  10.302  17.977  0.00  0.00    +0.000 A 
ATOM     16  S   UNL     1      47.243  10.111  19.625  0.00  0.00    +0.000 S 
ATOM     17  C   UNL     1      47.579   8.443  19.571  0.00  0.00    +0.000 A 
ATOM     18  N   UNL     1      47.458   7.669  20.681  0.00  0.00    +0.000 NA
ATOM     19  C   UNL     1      47.772   6.429  20.503  0.00  0.00    +0.000 A 
ATOM     20  N   UNL     1      48.195   5.894  19.312  0.00  0.00    +0.000 N 
ATOM     21  C   UNL     1      48.315   6.633  18.158  0.00  0.00    +0.000 A 
ATOM     22  O   UNL     1      48.675   6.124  17.109  0.00  0.00    +0.000 OA
ATOM     23  C   UNL     1      47.976   8.038  18.305  0.00  0.00    +0.000 A 
ATOM     24  H   UNL     1      48.422   4.914  19.233  0.00  0.00    +0.000 HD
ENDBRANCH  11  14
ENDBRANCH   9  10
ENDBRANCH   3   9
BRANCH   6  25
ATOM     25  C   UNL     1      44.406   4.448  11.301  0.00  0.00    +0.000 C 
BRANCH  25  26
ATOM     26  N   UNL     1      45.043   3.172  10.974  0.00  0.00    +0.000 NA
ATOM     27  H   UNL     1      44.857   2.509  11.729  0.00  0.00    +0.000 HD
BRANCH  26  28
ATOM     28  C   UNL     1      44.501   2.550   9.759  0.00  0.00    +0.000 C 
BRANCH  28  29
ATOM     29  C   UNL     1      45.543   2.533   8.652  0.00  0.00    +0.000 A 
ATOM     30  C   UNL     1      46.155   1.330   8.297  0.00  0.00    +0.000 A 
ATOM     31  C   UNL     1      47.081   1.324   7.259  0.00  0.00    +0.000 A 
ATOM     32  C   UNL     1      47.369   2.512   6.601  0.00  0.00    +0.000 A 
ATOM     33  C   UNL     1      46.714   3.662   7.009  0.00  0.00    +0.000 A 
ATOM     34  N   UNL     1      45.814   3.702   8.016  0.00  0.00    +0.000 NA
ENDBRANCH  28  29
ENDBRANCH  26  28
ENDBRANCH  25  26
ENDBRANCH   6  25
TORSDOF 8
ENDMDL
MODEL 5
REMARK VINA RESULT:    -7.543      2.393      3.534
REMARK INTER + INTRA:         -11.991
REMARK INTER:                 -10.734
REMARK INTRA:                  -1.257
REMARK UNBOUND:                -0.920
REMARK  Name = 
REMARK  9 active torsions:
REMARK  status: ('A' for Active; 'I' for Inactive)
REMARK    1  A    between atoms: C_1  and  O_2
REMARK    2  A    between atoms: O_2  and  C_3
REMARK    3  A    between atoms: C_5  and  C_6
REMARK    4  A    between atoms: C_6  and  N_7
REMARK    5  A    between atoms: C_8  and  C_10
REMARK    6  A    between atoms: C_22  and  C_23
REMARK    7  A    between atoms: C_23  and  N_24
REMARK    8  A    between atoms: N_24  and  C_25
REMARK    9  A    between atoms: C_25  and  C_26
REMARK                            x       y       z     vdW  Elec       q    Type
REMARK                         _______ _______ _______ _____ _____    ______ ____
ROOT
ATOM      1  C   UNL     1      45.652   5.453  12.237  0.00  0.00    +0.000 A 
ATOM      2  C   UNL     1      46.551   6.330  12.874  0.00  0.00    +0.000 A 
ATOM      3  C   UNL     1      46.459   7.725  12.712  0.00  0.00    +0.000 A 
ATOM      4  C   UNL     1      45.433   8.232  11.911  0.00  0.00    +0.000 A 
ATOM      5  C   UNL     1      44.509   7.370  11.317  0.00  0.00    +0.000 A 
ATOM      6  C   UNL     1      44.574   5.976  11.503  0.00  0.00    +0.000 A 
ENDROOT
BRANCH   1   8
ATOM      7  C   UNL     1      46.678   3.829  13.636  0.00  0.00    +0.000 C 
ATOM      8  O   UNL     1      45.856   4.121  12.505  0.00  0.00    +0.000 OA
ENDBRANCH   1   8
BRANCH   3   9
ATOM      9  C   UNL     1      47.408   8.669  13.411  0.00  0.00    +0.000 C 
BRANCH   9  10
ATOM     10  N   UNL     1      48.432   7.956  14.138  0.00  0.00    +0.000 N 
ATOM     11  C   UNL     1      48.660   8.187  15.473  0.00  0.00    +0.000 C 
ATOM     12  O   UNL     1      47.963   8.961  16.126  0.00  0.00    +0.000 OA
ATOM     13  H   UNL     1      49.147   7.496  13.585  0.00  0.00    +0.000 HD
BRANCH  11  14
ATOM     14  C   UNL     1      49.745   7.419  16.105  0.00  0.00    +0.000 A 
ATOM     15  C   UNL     1      49.487   6.670  17.247  0.00  0.00    +0.000 A 
ATOM     16  S   UNL     1      50.840   5.804  17.821  0.00  0.00    +0.000 S 
ATOM     17  C   UNL     1      51.836   6.435  16.593  0.00  0.00    +0.000 A 
ATOM     18  N   UNL     1      53.151   6.105  16.520  0.00  0.00    +0.000 NA
ATOM     19  C   UNL     1      53.793   6.678  15.557  0.00  0.00    +0.000 A 
ATOM     20  N   UNL     1      53.234   7.551  14.657  0.00  0.00    +0.000 N 
ATOM     21  C   UNL     1      51.904   7.901  14.679  0.00  0.00    +0.000 A 
ATOM     22  O   UNL     1      51.432   8.667  13.854  0.00  0.00    +0.000 OA
ATOM     23  C   UNL     1      51.137   7.286  15.749  0.00  0.00    +0.000 A 
ATOM     24  H   UNL     1      53.786   7.965  13.922  0.00  0.00    +0.000 HD
ENDBRANCH  11  14
ENDBRANCH   9  10
ENDBRANCH   3   9
BRANCH   6  25
ATOM     25  C   UNL     1      43.431   5.151  10.958  0.00  0.00    +0.000 C 
BRANCH  25  26
ATOM     26  N   UNL     1      43.696   4.522   9.663  0.00  0.00    +0.000 NA
ATOM     27  H   UNL     1      44.453   5.031   9.200  0.00  0.00    +0.000 HD
BRANCH  26  28
ATOM     28  C   UNL     1      44.166   3.136   9.779  0.00  0.00    +0.000 C 
BRANCH  28  29
ATOM     29  C   UNL     1      45.234   2.840   8.739  0.00  0.00    +0.000 A 
ATOM     30  C   UNL     1      45.681   3.860   7.898  0.00  0.00    +0.000 A 
ATOM     31  C   UNL     1      46.683   3.583   6.974  0.00  0.00    +0.000 A 
ATOM     32  C   UNL     1      47.216   2.302   6.915  0.00  0.00    +0.000 A 
ATOM     33  C   UNL     1      46.723   1.347   7.790  0.00  0.00    +0.000 A 
ATOM     34  N   UNL     1      45.747   1.583   8.693  0.00  0.00    +0.000 NA
ENDBRANCH  28  29
ENDBRANCH  26  28
ENDBRANCH  25  26
ENDBRANCH   6  25
TORSDOF 8
ENDMDL
MODEL 6
REMARK VINA RESULT:    -7.525      1.907      2.688
REMARK INTER + INTRA:         -11.964
REMARK INTER:                 -10.897
REMARK INTRA:                  -1.068
REMARK UNBOUND:                -0.920
REMARK  Name = 
REMARK  9 active torsions:
REMARK  status: ('A' for Active; 'I' for Inactive)
REMARK    1  A    between atoms: C_1  and  O_2
REMARK    2  A    between atoms: O_2  and  C_3
REMARK    3  A    between atoms: C_5  and  C_6
REMARK    4  A    between atoms: C_6  and  N_7
REMARK    5  A    between atoms: C_8  and  C_10
REMARK    6  A    between atoms: C_22  and  C_23
REMARK    7  A    between atoms: C_23  and  N_24
REMARK    8  A    between atoms: N_24  and  C_25
REMARK    9  A    between atoms: C_25  and  C_26
REMARK                            x       y       z     vdW  Elec       q    Type
REMARK                         _______ _______ _______ _____ _____    ______ ____
ROOT
ATOM      1  C   UNL     1      46.735   6.366  12.261  0.00  0.00    +0.000 A 
ATOM      2  C   UNL     1      47.232   5.785  13.444  0.00  0.00    +0.000 A 
ATOM      3  C   UNL     1      46.580   4.703  14.064  0.00  0.00    +0.000 A 
ATOM      4  C   UNL     1      45.423   4.196  13.466  0.00  0.00    +0.000 A 
ATOM      5  C   UNL     1      44.954   4.736  12.267  0.00  0.00    +0.000 A 
ATOM      6  C   UNL     1      45.620   5.796  11.623  0.00  0.00    +0.000 A 
ENDROOT
BRANCH   1   8
ATOM      7  C   UNL     1      47.167   8.702  12.260  0.00  0.00    +0.000 C 
ATOM      8  O   UNL     1      47.488   7.401  11.764  0.00  0.00    +0.000 OA
ENDBRANCH   1   8
BRANCH   3   9
ATOM      9  C   UNL     1      47.123   4.064  15.320  0.00  0.00    +0.000 C 
BRANCH   9  10
ATOM     10  N   UNL     1      47.793   5.026  16.161  0.00  0.00    +0.000 N 
ATOM     11  C   UNL     1      48.924   4.698  16.871  0.00  0.00    +0.000 C 
ATOM     12  O   UNL     1      49.454   3.594  16.772  0.00  0.00    +0.000 OA
ATOM     13  H   UNL     1      47.261   5.848  16.429  0.00  0.00    +0.000 HD
BRANCH  11  14
ATOM     14  C   UNL     1      49.510   5.753  17.715  0.00  0.00    +0.000 A 
ATOM     15  C   UNL     1      50.840   6.116  17.544  0.00  0.00    +0.000 A 
ATOM     16  S   UNL     1      51.343   7.384  18.567  0.00  0.00    +0.000 S 
ATOM     17  C   UNL     1      49.815   7.465  19.313  0.00  0.00    +0.000 A 
ATOM     18  N   UNL     1      49.571   8.349  20.314  0.00  0.00    +0.000 NA
ATOM     19  C   UNL     1      48.379   8.282  20.807  0.00  0.00    +0.000 A 
ATOM     20  N   UNL     1      47.407   7.410  20.384  0.00  0.00    +0.000 N 
ATOM     21  C   UNL     1      47.601   6.510  19.361  0.00  0.00    +0.000 A 
ATOM     22  O   UNL     1      46.711   5.760  18.994  0.00  0.00    +0.000 OA
ATOM     23  C   UNL     1      48.930   6.542  18.774  0.00  0.00    +0.000 A 
ATOM     24  H   UNL     1      46.491   7.407  20.805  0.00  0.00    +0.000 HD
ENDBRANCH  11  14
ENDBRANCH   9  10
ENDBRANCH   3   9
BRANCH   6  25
ATOM     25  C   UNL     1      45.127   6.191  10.250  0.00  0.00    +0.000 C 
BRANCH  25  26
ATOM     26  N   UNL     1      45.710   5.424   9.149  0.00  0.00    +0.000 NA
ATOM     27  H   UNL     1      46.647   5.118   9.422  0.00  0.00    +0.000 HD
BRANCH  26  28
ATOM     28  C   UNL     1      44.967   4.196   8.842  0.00  0.00    +0.000 C 
BRANCH  28  29
ATOM     29  C   UNL     1      45.848   3.205   8.099  0.00  0.00    +0.000 A 
ATOM     30  C   UNL     1      46.739   3.664   7.127  0.00  0.00    +0.000 A 
ATOM     31  C   UNL     1      47.563   2.749   6.481  0.00  0.00    +0.000 A 
ATOM     32  C   UNL     1      47.483   1.405   6.821  0.00  0.00    +0.000 A 
ATOM     33  C   UNL     1      46.578   1.031   7.802  0.00  0.00    +0.000 A 
ATOM     34  N   UNL     1      45.760   1.894   8.443  0.00  0.00    +0.000 NA
ENDBRANCH  28  29
ENDBRANCH  26  28
ENDBRANCH  25  26
ENDBRANCH   6  25
TORSDOF 8
ENDMDL
MODEL 7
REMARK VINA RESULT:    -7.503      2.577      3.537
REMARK INTER + INTRA:         -11.932
REMARK INTER:                 -10.838
REMARK INTRA:                  -1.094
REMARK UNBOUND:                -0.920
REMARK  Name = 
REMARK  9 active torsions:
REMARK  status: ('A' for Active; 'I' for Inactive)
REMARK    1  A    between atoms: C_1  and  O_2
REMARK    2  A    between atoms: O_2  and  C_3
REMARK    3  A    between atoms: C_5  and  C_6
REMARK    4  A    between atoms: C_6  and  N_7
REMARK    5  A    between atoms: C_8  and  C_10
REMARK    6  A    between atoms: C_22  and  C_23
REMARK    7  A    between atoms: C_23  and  N_24
REMARK    8  A    between atoms: N_24  and  C_25
REMARK    9  A    between atoms: C_25  and  C_26
REMARK                            x       y       z     vdW  Elec       q    Type
REMARK                         _______ _______ _______ _____ _____    ______ ____
ROOT
ATOM      1  C   UNL     1      47.035   5.625  13.411  0.00  0.00    +0.000 A 
ATOM      2  C   UNL     1      47.791   6.074  14.511  0.00  0.00    +0.000 A 
ATOM      3  C   UNL     1      48.676   7.161  14.402  0.00  0.00    +0.000 A 
ATOM      4  C   UNL     1      48.781   7.808  13.169  0.00  0.00    +0.000 A 
ATOM      5  C   UNL     1      47.999   7.399  12.088  0.00  0.00    +0.000 A 
ATOM      6  C   UNL     1      47.085   6.334  12.199  0.00  0.00    +0.000 A 
ENDROOT
BRANCH   1   8
ATOM      7  C   UNL     1      46.807   3.272  13.653  0.00  0.00    +0.000 C 
ATOM      8  O   UNL     1      46.201   4.566  13.675  0.00  0.00    +0.000 OA
ENDBRANCH   1   8
BRANCH   3   9
ATOM      9  C   UNL     1      49.471   7.659  15.587  0.00  0.00    +0.000 C 
BRANCH   9  10
ATOM     10  N   UNL     1      50.393   6.659  16.069  0.00  0.00    +0.000 N 
ATOM     11  C   UNL     1      50.242   6.075  17.304  0.00  0.00    +0.000 C 
ATOM     12  O   UNL     1      49.281   6.327  18.027  0.00  0.00    +0.000 OA
ATOM     13  H   UNL     1      51.293   6.605  15.602  0.00  0.00    +0.000 HD
BRANCH  11  14
ATOM     14  C   UNL     1      51.257   5.085  17.701  0.00  0.00    +0.000 A 
ATOM     15  C   UNL     1      52.453   5.510  18.268  0.00  0.00    +0.000 A 
ATOM     16  S   UNL     1      53.493   4.234  18.714  0.00  0.00    +0.000 S 
ATOM     17  C   UNL     1      52.405   3.065  18.124  0.00  0.00    +0.000 A 
ATOM     18  N   UNL     1      52.702   1.741  18.181  0.00  0.00    +0.000 NA
ATOM     19  C   UNL     1      51.800   0.969  17.672  0.00  0.00    +0.000 A 
ATOM     20  N   UNL     1      50.625   1.405  17.112  0.00  0.00    +0.000 N 
ATOM     21  C   UNL     1      50.272   2.733  17.048  0.00  0.00    +0.000 A 
ATOM     22  O   UNL     1      49.211   3.089  16.560  0.00  0.00    +0.000 OA
ATOM     23  C   UNL     1      51.257   3.645  17.605  0.00  0.00    +0.000 A 
ATOM     24  H   UNL     1      49.956   0.753  16.733  0.00  0.00    +0.000 HD
ENDBRANCH  11  14
ENDBRANCH   9  10
ENDBRANCH   3   9
BRANCH   6  25
ATOM     25  C   UNL     1      46.169   6.082  11.023  0.00  0.00    +0.000 C 
BRANCH  25  26
ATOM     26  N   UNL     1      44.954   5.335  11.347  0.00  0.00    +0.000 NA
ATOM     27  H   UNL     1      44.337   5.933  11.901  0.00  0.00    +0.000 HD
BRANCH  26  28
ATOM     28  C   UNL     1      44.174   4.956  10.161  0.00  0.00    +0.000 C 
BRANCH  28  29
ATOM     29  C   UNL     1      44.974   4.023   9.267  0.00  0.00    +0.000 A 
ATOM     30  C   UNL     1      44.974   2.651   9.522  0.00  0.00    +0.000 A 
ATOM     31  C   UNL     1      45.683   1.807   8.675  0.00  0.00    +0.000 A 
ATOM     32  C   UNL     1      46.367   2.348   7.594  0.00  0.00    +0.000 A 
ATOM     33  C   UNL     1      46.312   3.720   7.405  0.00  0.00    +0.000 A 
ATOM     34  N   UNL     1      45.638   4.567   8.213  0.00  0.00    +0.000 NA
ENDBRANCH  28  29
ENDBRANCH  26  28
ENDBRANCH  25  26
ENDBRANCH   6  25
TORSDOF 8
ENDMDL
MODEL 8
REMARK VINA RESULT:    -7.210      4.418      9.441
REMARK INTER + INTRA:         -11.502
REMARK INTER:                 -10.434
REMARK INTRA:                  -1.068
REMARK UNBOUND:                -0.920
REMARK  Name = 
REMARK  9 active torsions:
REMARK  status: ('A' for Active; 'I' for Inactive)
REMARK    1  A    between atoms: C_1  and  O_2
REMARK    2  A    between atoms: O_2  and  C_3
REMARK    3  A    between atoms: C_5  and  C_6
REMARK    4  A    between atoms: C_6  and  N_7
REMARK    5  A    between atoms: C_8  and  C_10
REMARK    6  A    between atoms: C_22  and  C_23
REMARK    7  A    between atoms: C_23  and  N_24
REMARK    8  A    between atoms: N_24  and  C_25
REMARK    9  A    between atoms: C_25  and  C_26
REMARK                            x       y       z     vdW  Elec       q    Type
REMARK                         _______ _______ _______ _____ _____    ______ ____
ROOT
ATOM      1  C   UNL     1      50.653   4.851  17.739  0.00  0.00    +0.000 A 
ATOM      2  C   UNL     1      49.280   4.727  17.450  0.00  0.00    +0.000 A 
ATOM      3  C   UNL     1      48.709   3.489  17.105  0.00  0.00    +0.000 A 
ATOM      4  C   UNL     1      49.537   2.364  17.071  0.00  0.00    +0.000 A 
ATOM      5  C   UNL     1      50.888   2.472  17.404  0.00  0.00    +0.000 A 
ATOM      6  C   UNL     1      51.460   3.701  17.783  0.00  0.00    +0.000 A 
ENDROOT
BRANCH   1   8
ATOM      7  C   UNL     1      51.363   6.990  16.986  0.00  0.00    +0.000 C 
ATOM      8  O   UNL     1      51.060   6.118  18.077  0.00  0.00    +0.000 OA
ENDBRANCH   1   8
BRANCH   3   9
ATOM      9  C   UNL     1      47.233   3.349  16.817  0.00  0.00    +0.000 C 
BRANCH   9  10
ATOM     10  N   UNL     1      46.776   4.340  15.874  0.00  0.00    +0.000 N 
ATOM     11  C   UNL     1      46.822   4.120  14.518  0.00  0.00    +0.000 C 
ATOM     12  O   UNL     1      47.192   3.047  14.047  0.00  0.00    +0.000 OA
ATOM     13  H   UNL     1      46.684   5.290  16.219  0.00  0.00    +0.000 HD
BRANCH  11  14
ATOM     14  C   UNL     1      46.352   5.212  13.649  0.00  0.00    +0.000 A 
ATOM     15  C   UNL     1      47.164   6.317  13.427  0.00  0.00    +0.000 A 
ATOM     16  S   UNL     1      46.488   7.463  12.359  0.00  0.00    +0.000 S 
ATOM     17  C   UNL     1      45.062   6.548  12.190  0.00  0.00    +0.000 A 
ATOM     18  N   UNL     1      44.039   6.985  11.411  0.00  0.00    +0.000 NA
ATOM     19  C   UNL     1      43.009   6.206  11.397  0.00  0.00    +0.000 A 
ATOM     20  N   UNL     1      42.913   5.026  12.092  0.00  0.00    +0.000 N 
ATOM     21  C   UNL     1      43.929   4.533  12.877  0.00  0.00    +0.000 A 
ATOM     22  O   UNL     1      43.821   3.471  13.469  0.00  0.00    +0.000 OA
ATOM     23  C   UNL     1      45.111   5.376  12.931  0.00  0.00    +0.000 A 
ATOM     24  H   UNL     1      42.083   4.456  12.038  0.00  0.00    +0.000 HD
ENDBRANCH  11  14
ENDBRANCH   9  10
ENDBRANCH   3   9
BRANCH   6  25
ATOM     25  C   UNL     1      52.885   3.677  18.285  0.00  0.00    +0.000 C 
BRANCH  25  26
ATOM     26  N   UNL     1      53.168   2.626  19.264  0.00  0.00    +0.000 NA
ATOM     27  H   UNL     1      52.575   1.818  19.059  0.00  0.00    +0.000 HD
BRANCH  26  28
ATOM     28  C   UNL     1      54.548   2.130  19.197  0.00  0.00    +0.000 C 
BRANCH  28  29
ATOM     29  C   UNL     1      54.603   0.786  18.488  0.00  0.00    +0.000 A 
ATOM     30  C   UNL     1      54.782   0.740  17.105  0.00  0.00    +0.000 A 
ATOM     31  C   UNL     1      54.865  -0.498  16.476  0.00  0.00    +0.000 A 
ATOM     32  C   UNL     1      54.772  -1.654  17.240  0.00  0.00    +0.000 A 
ATOM     33  C   UNL     1      54.601  -1.523  18.608  0.00  0.00    +0.000 A 
ATOM     34  N   UNL     1      54.511  -0.337  19.248  0.00  0.00    +0.000 NA
ENDBRANCH  28  29
ENDBRANCH  26  28
ENDBRANCH  25  26
ENDBRANCH   6  25
TORSDOF 8
ENDMDL
MODEL 9
REMARK VINA RESULT:    -7.072      3.694      9.695
REMARK INTER + INTRA:         -11.300
REMARK INTER:                  -9.504
REMARK INTRA:                  -1.796
REMARK UNBOUND:                -0.920
REMARK  Name = 
REMARK  9 active torsions:
REMARK  status: ('A' for Active; 'I' for Inactive)
REMARK    1  A    between atoms: C_1  and  O_2
REMARK    2  A    between atoms: O_2  and  C_3
REMARK    3  A    between atoms: C_5  and  C_6
REMARK    4  A    between atoms: C_6  and  N_7
REMARK    5  A    between atoms: C_8  and  C_10
REMARK    6  A    between atoms: C_22  and  C_23
REMARK    7  A    between atoms: C_23  and  N_24
REMARK    8  A    between atoms: N_24  and  C_25
REMARK    9  A    between atoms: C_25  and  C_26
REMARK                            x       y       z     vdW  Elec       q    Type
REMARK                         _______ _______ _______ _____ _____    ______ ____
ROOT
ATOM      1  C   UNL     1      50.462   5.627  17.371  0.00  0.00    +0.000 A 
ATOM      2  C   UNL     1      49.168   5.238  16.976  0.00  0.00    +0.000 A 
ATOM      3  C   UNL     1      48.766   3.890  16.996  0.00  0.00    +0.000 A 
ATOM      4  C   UNL     1      49.682   2.932  17.438  0.00  0.00    +0.000 A 
ATOM      5  C   UNL     1      50.949   3.317  17.877  0.00  0.00    +0.000 A 
ATOM      6  C   UNL     1      51.347   4.668  17.893  0.00  0.00    +0.000 A 
ENDROOT
BRANCH   1   8
ATOM      7  C   UNL     1      49.558   7.809  17.109  0.00  0.00    +0.000 C 
ATOM      8  O   UNL     1      50.703   6.978  17.315  0.00  0.00    +0.000 OA
ENDBRANCH   1   8
BRANCH   3   9
ATOM      9  C   UNL     1      47.371   3.472  16.594  0.00  0.00    +0.000 C 
BRANCH   9  10
ATOM     10  N   UNL     1      46.774   4.414  15.678  0.00  0.00    +0.000 N 
ATOM     11  C   UNL     1      46.760   4.191  14.322  0.00  0.00    +0.000 C 
ATOM     12  O   UNL     1      47.195   3.151  13.831  0.00  0.00    +0.000 OA
ATOM     13  H   UNL     1      46.620   5.355  16.027  0.00  0.00    +0.000 HD
BRANCH  11  14
ATOM     14  C   UNL     1      46.145   5.232  13.482  0.00  0.00    +0.000 A 
ATOM     15  C   UNL     1      46.830   6.416  13.236  0.00  0.00    +0.000 A 
ATOM     16  S   UNL     1      45.997   7.490  12.205  0.00  0.00    +0.000 S 
ATOM     17  C   UNL     1      44.667   6.434  12.086  0.00  0.00    +0.000 A 
ATOM     18  N   UNL     1      43.573   6.766  11.352  0.00  0.00    +0.000 NA
ATOM     19  C   UNL     1      42.629   5.885  11.373  0.00  0.00    +0.000 A 
ATOM     20  N   UNL     1      42.683   4.699  12.062  0.00  0.00    +0.000 N 
ATOM     21  C   UNL     1      43.775   4.310  12.802  0.00  0.00    +0.000 A 
ATOM     22  O   UNL     1      43.801   3.241  13.389  0.00  0.00    +0.000 OA
ATOM     23  C   UNL     1      44.866   5.270  12.815  0.00  0.00    +0.000 A 
ATOM     24  H   UNL     1      41.914   4.047  12.036  0.00  0.00    +0.000 HD
ENDBRANCH  11  14
ENDBRANCH   9  10
ENDBRANCH   3   9
BRANCH   6  25
ATOM     25  C   UNL     1      52.672   4.992  18.543  0.00  0.00    +0.000 C 
BRANCH  25  26
ATOM     26  N   UNL     1      52.634   6.120  19.475  0.00  0.00    +0.000 NA
ATOM     27  H   UNL     1      51.954   6.804  19.134  0.00  0.00    +0.000 HD
BRANCH  26  28
ATOM     28  C   UNL     1      52.176   5.745  20.819  0.00  0.00    +0.000 C 
BRANCH  28  29
ATOM     29  C   UNL     1      50.661   5.826  20.913  0.00  0.00    +0.000 A 
ATOM     30  C   UNL     1      50.025   7.062  20.796  0.00  0.00    +0.000 A 
ATOM     31  C   UNL     1      48.637   7.115  20.850  0.00  0.00    +0.000 A 
ATOM     32  C   UNL     1      47.919   5.938  21.015  0.00  0.00    +0.000 A 
ATOM     33  C   UNL     1      48.624   4.750  21.116  0.00  0.00    +0.000 A 
ATOM     34  N   UNL     1      49.972   4.666  21.074  0.00  0.00    +0.000 NA
ENDBRANCH  28  29
ENDBRANCH  26  28
ENDBRANCH  25  26
ENDBRANCH   6  25
TORSDOF 8
ENDMDL
