MODEL 1
REMARK VINA RESULT:    -8.038      0.000      0.000
REMARK INTER + INTRA:         -14.055
REMARK INTER:                 -12.738
REMARK INTRA:                  -1.317
REMARK UNBOUND:                -1.317
REMARK  Name = 
REMARK  12 active torsions:
REMARK  status: ('A' for Active; 'I' for Inactive)
REMARK    1  A    between atoms: C_1  and  N_2
REMARK    2  A    between atoms: N_2  and  C_3
REMARK    3  A    between atoms: N_2  and  C_4
REMARK    4  A    between atoms: C_4  and  C_5
REMARK    5  A    between atoms: C_5  and  O_6
REMARK    6  A    between atoms: O_6  and  C_7
REMARK    7  A    between atoms: N_9  and  C_10
REMARK    8  A    between atoms: C_13  and  C_14
REMARK    9  A    between atoms: C_14  and  C_17
REMARK   10  A    between atoms: C_17  and  N_18
REMARK   11  A    between atoms: N_18  and  C_19
REMARK   12  A    between atoms: C_22  and  C_23
REMARK                            x       y       z     vdW  Elec       q    Type
REMARK                         _______ _______ _______ _____ _____    ______ ____
ROOT
ATOM      1  C   UNL     1      43.382   4.605  12.622  0.00  0.00    +0.000 C 
ATOM      2  F   UNL     1      43.149   3.684  13.605  0.00  0.00    +0.000 F 
ATOM      3  F   UNL     1      42.382   5.535  12.764  0.00  0.00    +0.000 F 
ENDROOT
BRANCH   1   7
ATOM      4  C   UNL     1      47.284   6.405  13.326  0.00  0.00    +0.000 A 
ATOM      5  C   UNL     1      46.212   7.195  12.918  0.00  0.00    +0.000 A 
ATOM      6  C   UNL     1      44.964   6.630  12.658  0.00  0.00    +0.000 A 
ATOM      7  C   UNL     1      44.750   5.253  12.798  0.00  0.00    +0.000 A 
ATOM      8  C   UNL     1      45.854   4.451  13.132  0.00  0.00    +0.000 A 
ATOM      9  C   UNL     1      47.113   5.019  13.381  0.00  0.00    +0.000 A 
BRANCH   4  12
ATOM     10  C   UNL     1      49.447   7.499  12.818  0.00  0.00    +0.000 C 
ATOM     11  O   UNL     1      49.315   7.747  11.630  0.00  0.00    +0.000 OA
ATOM     12  N   UNL     1      48.530   6.950  13.675  0.00  0.00    +0.000 N 
ATOM     13  H   UNL     1      48.818   6.925  14.642  0.00  0.00    +0.000 HD
BRANCH  10  14
ATOM     14  O   UNL     1      50.618   7.667  13.485  0.00  0.00    +0.000 OA
BRANCH  14  15
ATOM     15  C   UNL     1      50.418   8.163  14.815  0.00  0.00    +0.000 C 
BRANCH  15  16
ATOM     16  C   UNL     1      51.184   7.380  15.890  0.00  0.00    +0.000 C 
BRANCH  16  18
ATOM     17  C   UNL     1      51.308   5.342  17.195  0.00  0.00    +0.000 C 
ATOM     18  N   UNL     1      50.464   6.161  16.322  0.00  0.00    +0.000 NA
ATOM     19  C   UNL     1      49.200   6.460  16.996  0.00  0.00    +0.000 C 
ENDBRANCH  16  18
ENDBRANCH  15  16
ENDBRANCH  14  15
ENDBRANCH  10  14
ENDBRANCH   4  12
ENDBRANCH   1   7
BRANCH   1  20
ATOM     20  C   UNL     1      43.179   3.918  11.241  0.00  0.00    +0.000 C 
BRANCH  20  21
ATOM     21  N   UNL     1      43.764   4.652  10.100  0.00  0.00    +0.000 N 
ATOM     22  H   UNL     1      44.156   5.549  10.390  0.00  0.00    +0.000 HD
BRANCH  21  23
ATOM     23  C   UNL     1      44.620   3.939   9.245  0.00  0.00    +0.000 A 
ATOM     24  C   UNL     1      45.513   4.564   8.364  0.00  0.00    +0.000 A 
ATOM     25  C   UNL     1      46.420   3.821   7.597  0.00  0.00    +0.000 A 
ATOM     26  C   UNL     1      46.473   2.435   7.719  0.00  0.00    +0.000 A 
ATOM     27  C   UNL     1      45.600   1.792   8.603  0.00  0.00    +0.000 A 
ATOM     28  C   UNL     1      44.697   2.546   9.367  0.00  0.00    +0.000 A 
BRANCH  26  29
ATOM     29  C   UNL     1      47.469   1.697   6.899  0.00  0.00    +0.000 C 
ATOM     30  N   UNL     1      48.580   2.387   6.485  0.00  0.00    +0.000 N 
ATOM     31  O   UNL     1      47.296   0.533   6.566  0.00  0.00    +0.000 OA
ATOM     32  H   UNL     1      48.630   3.392   6.511  0.00  0.00    +0.000 HD
ATOM     33  H   UNL     1      49.173   1.903   5.822  0.00  0.00    +0.000 HD
ENDBRANCH  26  29
ENDBRANCH  21  23
ENDBRANCH  20  21
ENDBRANCH   1  20
TORSDOF 10
ENDMDL
MODEL 2
REMARK VINA RESULT:    -7.841      1.387      2.405
REMARK INTER + INTRA:         -13.742
REMARK INTER:                 -12.384
REMARK INTRA:                  -1.358
REMARK UNBOUND:                -1.317
REMARK  Name = 
REMARK  12 active torsions:
REMARK  status: ('A' for Active; 'I' for Inactive)
REMARK    1  A    between atoms: C_1  and  N_2
REMARK    2  A    between atoms: N_2  and  C_3
REMARK    3  A    between atoms: N_2  and  C_4
REMARK    4  A    between atoms: C_4  and  C_5
REMARK    5  A    between atoms: C_5  and  O_6
REMARK    6  A    between atoms: O_6  and  C_7
REMARK    7  A    between atoms: N_9  and  C_10
REMARK    8  A    between atoms: C_13  and  C_14
REMARK    9  A    between atoms: C_14  and  C_17
REMARK   10  A    between atoms: C_17  and  N_18
REMARK   11  A    between atoms: N_18  and  C_19
REMARK   12  A    between atoms: C_22  and  C_23
REMARK                            x       y       z     vdW  Elec       q    Type
REMARK                         _______ _______ _______ _____ _____    ______ ____
ROOT
ATOM      1  C   UNL     1      43.379   4.685  12.685  0.00  0.00    +0.000 C 
ATOM      2  F   UNL     1      43.088   3.810  13.694  0.00  0.00    +0.000 F 
ATOM      3  F   UNL     1      42.430   5.671  12.786  0.00  0.00    +0.000 F 
ENDROOT
BRANCH   1   7
ATOM      4  C   UNL     1      47.364   6.300  13.377  0.00  0.00    +0.000 A 
ATOM      5  C   UNL     1      46.348   7.124  12.900  0.00  0.00    +0.000 A 
ATOM      6  C   UNL     1      45.075   6.616  12.643  0.00  0.00    +0.000 A 
ATOM      7  C   UNL     1      44.779   5.263  12.856  0.00  0.00    +0.000 A 
ATOM      8  C   UNL     1      45.828   4.421  13.261  0.00  0.00    +0.000 A 
ATOM      9  C   UNL     1      47.112   4.931  13.507  0.00  0.00    +0.000 A 
BRANCH   4  12
ATOM     10  C   UNL     1      49.109   6.991  14.993  0.00  0.00    +0.000 C 
ATOM     11  O   UNL     1      48.599   6.659  16.051  0.00  0.00    +0.000 OA
ATOM     12  N   UNL     1      48.632   6.793  13.724  0.00  0.00    +0.000 N 
ATOM     13  H   UNL     1      49.267   7.063  12.986  0.00  0.00    +0.000 HD
BRANCH  10  14
ATOM     14  O   UNL     1      50.253   7.719  14.918  0.00  0.00    +0.000 OA
BRANCH  14  15
ATOM     15  C   UNL     1      50.558   8.114  13.573  0.00  0.00    +0.000 C 
BRANCH  15  16
ATOM     16  C   UNL     1      50.408   9.620  13.321  0.00  0.00    +0.000 C 
BRANCH  16  18
ATOM     17  C   UNL     1      48.762  11.390  13.474  0.00  0.00    +0.000 C 
ATOM     18  N   UNL     1      49.008  10.011  13.048  0.00  0.00    +0.000 NA
ATOM     19  C   UNL     1      48.640   9.856  11.640  0.00  0.00    +0.000 C 
ENDBRANCH  16  18
ENDBRANCH  15  16
ENDBRANCH  14  15
ENDBRANCH  10  14
ENDBRANCH   4  12
ENDBRANCH   1   7
BRANCH   1  20
ATOM     20  C   UNL     1      43.153   3.966  11.324  0.00  0.00    +0.000 C 
BRANCH  20  21
ATOM     21  N   UNL     1      43.716   4.674  10.156  0.00  0.00    +0.000 N 
ATOM     22  H   UNL     1      44.110   5.578  10.418  0.00  0.00    +0.000 HD
BRANCH  21  23
ATOM     23  C   UNL     1      44.560   3.943   9.304  0.00  0.00    +0.000 A 
ATOM     24  C   UNL     1      45.407   4.547   8.366  0.00  0.00    +0.000 A 
ATOM     25  C   UNL     1      46.306   3.793   7.602  0.00  0.00    +0.000 A 
ATOM     26  C   UNL     1      46.397   2.415   7.783  0.00  0.00    +0.000 A 
ATOM     27  C   UNL     1      45.570   1.792   8.723  0.00  0.00    +0.000 A 
ATOM     28  C   UNL     1      44.675   2.559   9.484  0.00  0.00    +0.000 A 
BRANCH  26  29
ATOM     29  C   UNL     1      47.383   1.664   6.962  0.00  0.00    +0.000 C 
ATOM     30  N   UNL     1      48.450   2.364   6.459  0.00  0.00    +0.000 N 
ATOM     31  O   UNL     1      47.237   0.477   6.702  0.00  0.00    +0.000 OA
ATOM     32  H   UNL     1      48.465   3.371   6.427  0.00  0.00    +0.000 HD
ATOM     33  H   UNL     1      49.030   1.863   5.800  0.00  0.00    +0.000 HD
ENDBRANCH  26  29
ENDBRANCH  21  23
ENDBRANCH  20  21
ENDBRANCH   1  20
TORSDOF 10
ENDMDL
MODEL 3
REMARK VINA RESULT:    -7.736      1.746      2.806
REMARK INTER + INTRA:         -13.575
REMARK INTER:                 -12.410
REMARK INTRA:                  -1.165
REMARK UNBOUND:                -1.317
REMARK  Name = 
REMARK  12 active torsions:
REMARK  status: ('A' for Active; 'I' for Inactive)
REMARK    1  A    between atoms: C_1  and  N_2
REMARK    2  A    between atoms: N_2  and  C_3
REMARK    3  A    between atoms: N_2  and  C_4
REMARK    4  A    between atoms: C_4  and  C_5
REMARK    5  A    between atoms: C_5  and  O_6
REMARK    6  A    between atoms: O_6  and  C_7
REMARK    7  A    between atoms: N_9  and  C_10
REMARK    8  A    between atoms: C_13  and  C_14
REMARK    9  A    between atoms: C_14  and  C_17
REMARK   10  A    between atoms: C_17  and  N_18
REMARK   11  A    between atoms: N_18  and  C_19
REMARK   12  A    between atoms: C_22  and  C_23
REMARK                            x       y       z     vdW  Elec       q    Type
REMARK                         _______ _______ _______ _____ _____    ______ ____
ROOT
ATOM      1  C   UNL     1      43.356   4.748  12.660  0.00  0.00    +0.000 C 
ATOM      2  F   UNL     1      43.042   3.868  13.658  0.00  0.00    +0.000 F 
ATOM      3  F   UNL     1      42.446   5.767  12.787  0.00  0.00    +0.000 F 
ENDROOT
BRANCH   1   7
ATOM      4  C   UNL     1      47.425   6.276  12.932  0.00  0.00    +0.000 A 
ATOM      5  C   UNL     1      47.151   4.951  13.261  0.00  0.00    +0.000 A 
ATOM      6  C   UNL     1      45.850   4.455  13.210  0.00  0.00    +0.000 A 
ATOM      7  C   UNL     1      44.778   5.272  12.827  0.00  0.00    +0.000 A 
ATOM      8  C   UNL     1      45.048   6.627  12.573  0.00  0.00    +0.000 A 
ATOM      9  C   UNL     1      46.357   7.129  12.637  0.00  0.00    +0.000 A 
BRANCH   4  12
ATOM     10  C   UNL     1      49.385   7.433  13.911  0.00  0.00    +0.000 C 
ATOM     11  O   UNL     1      49.026   7.568  15.070  0.00  0.00    +0.000 OA
ATOM     12  N   UNL     1      48.732   6.788  12.893  0.00  0.00    +0.000 N 
ATOM     13  H   UNL     1      49.259   6.712  12.035  0.00  0.00    +0.000 HD
BRANCH  10  14
ATOM     14  O   UNL     1      50.511   8.004  13.411  0.00  0.00    +0.000 OA
BRANCH  14  15
ATOM     15  C   UNL     1      50.455   8.158  11.987  0.00  0.00    +0.000 C 
BRANCH  15  16
ATOM     16  C   UNL     1      51.709   8.806  11.384  0.00  0.00    +0.000 C 
BRANCH  16  18
ATOM     17  C   UNL     1      52.370   7.079   9.819  0.00  0.00    +0.000 C 
ATOM     18  N   UNL     1      52.745   7.811  11.030  0.00  0.00    +0.000 NA
ATOM     19  C   UNL     1      54.069   8.411  10.856  0.00  0.00    +0.000 C 
ENDBRANCH  16  18
ENDBRANCH  15  16
ENDBRANCH  14  15
ENDBRANCH  10  14
ENDBRANCH   4  12
ENDBRANCH   1   7
BRANCH   1  20
ATOM     20  C   UNL     1      43.091   4.060  11.291  0.00  0.00    +0.000 C 
BRANCH  20  21
ATOM     21  N   UNL     1      43.726   4.728  10.136  0.00  0.00    +0.000 N 
ATOM     22  H   UNL     1      44.161   5.612  10.405  0.00  0.00    +0.000 HD
BRANCH  21  23
ATOM     23  C   UNL     1      44.553   3.947   9.314  0.00  0.00    +0.000 A 
ATOM     24  C   UNL     1      45.468   4.497   8.406  0.00  0.00    +0.000 A 
ATOM     25  C   UNL     1      46.345   3.688   7.674  0.00  0.00    +0.000 A 
ATOM     26  C   UNL     1      46.345   2.307   7.856  0.00  0.00    +0.000 A 
ATOM     27  C   UNL     1      45.449   1.737   8.767  0.00  0.00    +0.000 A 
ATOM     28  C   UNL     1      44.577   2.558   9.496  0.00  0.00    +0.000 A 
BRANCH  26  29
ATOM     29  C   UNL     1      47.311   1.496   7.069  0.00  0.00    +0.000 C 
ATOM     30  N   UNL     1      48.399   2.146   6.543  0.00  0.00    +0.000 N 
ATOM     31  O   UNL     1      47.133   0.305   6.858  0.00  0.00    +0.000 OA
ATOM     32  H   UNL     1      48.443   3.150   6.471  0.00  0.00    +0.000 HD
ATOM     33  H   UNL     1      48.966   1.602   5.906  0.00  0.00    +0.000 HD
ENDBRANCH  26  29
ENDBRANCH  21  23
ENDBRANCH  20  21
ENDBRANCH   1  20
TORSDOF 10
ENDMDL
MODEL 4
REMARK VINA RESULT:    -7.527      1.228      1.715
REMARK INTER + INTRA:         -13.244
REMARK INTER:                 -12.114
REMARK INTRA:                  -1.131
REMARK UNBOUND:                -1.317
REMARK  Name = 
REMARK  12 active torsions:
REMARK  status: ('A' for Active; 'I' for Inactive)
REMARK    1  A    between atoms: C_1  and  N_2
REMARK    2  A    between atoms: N_2  and  C_3
REMARK    3  A    between atoms: N_2  and  C_4
REMARK    4  A    between atoms: C_4  and  C_5
REMARK    5  A    between atoms: C_5  and  O_6
REMARK    6  A    between atoms: O_6  and  C_7
REMARK    7  A    between atoms: N_9  and  C_10
REMARK    8  A    between atoms: C_13  and  C_14
REMARK    9  A    between atoms: C_14  and  C_17
REMARK   10  A    between atoms: C_17  and  N_18
REMARK   11  A    between atoms: N_18  and  C_19
REMARK   12  A    between atoms: C_22  and  C_23
REMARK                            x       y       z     vdW  Elec       q    Type
REMARK                         _______ _______ _______ _____ _____    ______ ____
ROOT
ATOM      1  C   UNL     1      43.434   5.540  12.310  0.00  0.00    +0.000 C 
ATOM      2  F   UNL     1      42.652   5.244  13.392  0.00  0.00    +0.000 F 
ATOM      3  F   UNL     1      42.858   6.654  11.751  0.00  0.00    +0.000 F 
ENDROOT
BRANCH   1   7
ATOM      4  C   UNL     1      47.464   6.370  13.735  0.00  0.00    +0.000 A 
ATOM      5  C   UNL     1      46.791   7.305  12.953  0.00  0.00    +0.000 A 
ATOM      6  C   UNL     1      45.513   7.043  12.462  0.00  0.00    +0.000 A 
ATOM      7  C   UNL     1      44.866   5.832  12.740  0.00  0.00    +0.000 A 
ATOM      8  C   UNL     1      45.581   4.860  13.462  0.00  0.00    +0.000 A 
ATOM      9  C   UNL     1      46.873   5.121  13.944  0.00  0.00    +0.000 A 
BRANCH   4  12
ATOM     10  C   UNL     1      49.034   7.696  15.117  0.00  0.00    +0.000 C 
ATOM     11  O   UNL     1      48.283   8.531  15.596  0.00  0.00    +0.000 OA
ATOM     12  N   UNL     1      48.717   6.634  14.313  0.00  0.00    +0.000 N 
ATOM     13  H   UNL     1      49.486   6.011  14.111  0.00  0.00    +0.000 HD
BRANCH  10  14
ATOM     14  O   UNL     1      50.384   7.748  15.254  0.00  0.00    +0.000 OA
BRANCH  14  15
ATOM     15  C   UNL     1      50.879   6.737  16.142  0.00  0.00    +0.000 C 
BRANCH  15  16
ATOM     16  C   UNL     1      50.608   7.026  17.624  0.00  0.00    +0.000 C 
BRANCH  16  18
ATOM     17  C   UNL     1      48.454   6.560  18.630  0.00  0.00    +0.000 C 
ATOM     18  N   UNL     1      49.752   5.996  18.253  0.00  0.00    +0.000 NA
ATOM     19  C   UNL     1      49.552   4.825  17.398  0.00  0.00    +0.000 C 
ENDBRANCH  16  18
ENDBRANCH  15  16
ENDBRANCH  14  15
ENDBRANCH  10  14
ENDBRANCH   4  12
ENDBRANCH   1   7
BRANCH   1  20
ATOM     20  C   UNL     1      43.305   4.386  11.275  0.00  0.00    +0.000 C 
BRANCH  20  21
ATOM     21  N   UNL     1      43.692   4.752   9.897  0.00  0.00    +0.000 N 
ATOM     22  H   UNL     1      43.917   5.745   9.821  0.00  0.00    +0.000 HD
BRANCH  21  23
ATOM     23  C   UNL     1      44.635   3.934   9.254  0.00  0.00    +0.000 A 
ATOM     24  C   UNL     1      44.609   2.535   9.327  0.00  0.00    +0.000 A 
ATOM     25  C   UNL     1      45.506   1.750   8.593  0.00  0.00    +0.000 A 
ATOM     26  C   UNL     1      46.432   2.349   7.743  0.00  0.00    +0.000 A 
ATOM     27  C   UNL     1      46.467   3.744   7.644  0.00  0.00    +0.000 A 
ATOM     28  C   UNL     1      45.562   4.520   8.383  0.00  0.00    +0.000 A 
BRANCH  26  29
ATOM     29  C   UNL     1      47.346   1.468   6.970  0.00  0.00    +0.000 C 
ATOM     30  N   UNL     1      48.345   2.074   6.250  0.00  0.00    +0.000 N 
ATOM     31  O   UNL     1      47.199   0.255   6.935  0.00  0.00    +0.000 OA
ATOM     32  H   UNL     1      48.338   3.060   6.043  0.00  0.00    +0.000 HD
ATOM     33  H   UNL     1      48.867   1.466   5.632  0.00  0.00    +0.000 HD
ENDBRANCH  26  29
ENDBRANCH  21  23
ENDBRANCH  20  21
ENDBRANCH   1  20
TORSDOF 10
ENDMDL
MODEL 5
REMARK VINA RESULT:    -7.365      1.384      1.968
REMARK INTER + INTRA:         -12.987
REMARK INTER:                 -11.972
REMARK INTRA:                  -1.016
REMARK UNBOUND:                -1.317
REMARK  Name = 
REMARK  12 active torsions:
REMARK  status: ('A' for Active; 'I' for Inactive)
REMARK    1  A    between atoms: C_1  and  N_2
REMARK    2  A    between atoms: N_2  and  C_3
REMARK    3  A    between atoms: N_2  and  C_4
REMARK    4  A    between atoms: C_4  and  C_5
REMARK    5  A    between atoms: C_5  and  O_6
REMARK    6  A    between atoms: O_6  and  C_7
REMARK    7  A    between atoms: N_9  and  C_10
REMARK    8  A    between atoms: C_13  and  C_14
REMARK    9  A    between atoms: C_14  and  C_17
REMARK   10  A    between atoms: C_17  and  N_18
REMARK   11  A    between atoms: N_18  and  C_19
REMARK   12  A    between atoms: C_22  and  C_23
REMARK                            x       y       z     vdW  Elec       q    Type
REMARK                         _______ _______ _______ _____ _____    ______ ____
ROOT
ATOM      1  C   UNL     1      43.461   4.520  12.585  0.00  0.00    +0.000 C 
ATOM      2  F   UNL     1      43.459   3.339  13.274  0.00  0.00    +0.000 F 
ATOM      3  F   UNL     1      42.467   5.269  13.161  0.00  0.00    +0.000 F 
ENDROOT
BRANCH   1   7
ATOM      4  C   UNL     1      47.318   6.461  13.153  0.00  0.00    +0.000 A 
ATOM      5  C   UNL     1      46.190   7.219  12.849  0.00  0.00    +0.000 A 
ATOM      6  C   UNL     1      44.955   6.611  12.633  0.00  0.00    +0.000 A 
ATOM      7  C   UNL     1      44.809   5.220  12.714  0.00  0.00    +0.000 A 
ATOM      8  C   UNL     1      45.965   4.454  12.942  0.00  0.00    +0.000 A 
ATOM      9  C   UNL     1      47.211   5.067  13.146  0.00  0.00    +0.000 A 
BRANCH   4  12
ATOM     10  C   UNL     1      49.241   6.938  14.640  0.00  0.00    +0.000 C 
ATOM     11  O   UNL     1      48.986   6.221  15.595  0.00  0.00    +0.000 OA
ATOM     12  N   UNL     1      48.558   7.045  13.456  0.00  0.00    +0.000 N 
ATOM     13  H   UNL     1      49.003   7.630  12.764  0.00  0.00    +0.000 HD
BRANCH  10  14
ATOM     14  O   UNL     1      50.250   7.846  14.642  0.00  0.00    +0.000 OA
BRANCH  14  15
ATOM     15  C   UNL     1      49.767   9.196  14.637  0.00  0.00    +0.000 C 
BRANCH  15  16
ATOM     16  C   UNL     1      48.982   9.578  15.899  0.00  0.00    +0.000 C 
BRANCH  16  18
ATOM     17  C   UNL     1      50.189   9.010  17.921  0.00  0.00    +0.000 C 
ATOM     18  N   UNL     1      49.859  10.081  16.979  0.00  0.00    +0.000 NA
ATOM     19  C   UNL     1      51.090  10.690  16.472  0.00  0.00    +0.000 C 
ENDBRANCH  16  18
ENDBRANCH  15  16
ENDBRANCH  14  15
ENDBRANCH  10  14
ENDBRANCH   4  12
ENDBRANCH   1   7
BRANCH   1  20
ATOM     20  C   UNL     1      43.033   4.237  11.116  0.00  0.00    +0.000 C 
BRANCH  20  21
ATOM     21  N   UNL     1      43.897   4.864  10.095  0.00  0.00    +0.000 N 
ATOM     22  H   UNL     1      44.350   5.707  10.451  0.00  0.00    +0.000 HD
BRANCH  21  23
ATOM     23  C   UNL     1      44.783   4.028   9.397  0.00  0.00    +0.000 A 
ATOM     24  C   UNL     1      44.756   2.630   9.501  0.00  0.00    +0.000 A 
ATOM     25  C   UNL     1      45.590   1.825   8.716  0.00  0.00    +0.000 A 
ATOM     26  C   UNL     1      46.451   2.401   7.787  0.00  0.00    +0.000 A 
ATOM     27  C   UNL     1      46.485   3.793   7.656  0.00  0.00    +0.000 A 
ATOM     28  C   UNL     1      45.644   4.590   8.446  0.00  0.00    +0.000 A 
BRANCH  26  29
ATOM     29  C   UNL     1      47.300   1.500   6.963  0.00  0.00    +0.000 C 
ATOM     30  N   UNL     1      48.386   2.055   6.335  0.00  0.00    +0.000 N 
ATOM     31  O   UNL     1      47.027   0.317   6.810  0.00  0.00    +0.000 OA
ATOM     32  H   UNL     1      48.490   3.051   6.221  0.00  0.00    +0.000 HD
ATOM     33  H   UNL     1      48.866   1.453   5.680  0.00  0.00    +0.000 HD
ENDBRANCH  26  29
ENDBRANCH  21  23
ENDBRANCH  20  21
ENDBRANCH   1  20
TORSDOF 10
ENDMDL
MODEL 6
REMARK VINA RESULT:    -7.140      2.243      2.909
REMARK INTER + INTRA:         -12.631
REMARK INTER:                 -11.298
REMARK INTRA:                  -1.332
REMARK UNBOUND:                -1.317
REMARK  Name = 
REMARK  12 active torsions:
REMARK  status: ('A' for Active; 'I' for Inactive)
REMARK    1  A    between atoms: C_1  and  N_2
REMARK    2  A    between atoms: N_2  and  C_3
REMARK    3  A    between atoms: N_2  and  C_4
REMARK    4  A    between atoms: C_4  and  C_5
REMARK    5  A    between atoms: C_5  and  O_6
REMARK    6  A    between atoms: O_6  and  C_7
REMARK    7  A    between atoms: N_9  and  C_10
REMARK    8  A    between atoms: C_13  and  C_14
REMARK    9  A    between atoms: C_14  and  C_17
REMARK   10  A    between atoms: C_17  and  N_18
REMARK   11  A    between atoms: N_18  and  C_19
REMARK   12  A    between atoms: C_22  and  C_23
REMARK                            x       y       z     vdW  Elec       q    Type
REMARK                         _______ _______ _______ _____ _____    ______ ____
ROOT
ATOM      1  C   UNL     1      43.781   5.948  11.825  0.00  0.00    +0.000 C 
ATOM      2  F   UNL     1      42.740   6.294  12.642  0.00  0.00    +0.000 F 
ATOM      3  F   UNL     1      44.096   7.098  11.146  0.00  0.00    +0.000 F 
ENDROOT
BRANCH   1   7
ATOM      4  C   UNL     1      47.052   4.488  14.300  0.00  0.00    +0.000 A 
ATOM      5  C   UNL     1      46.944   5.846  14.013  0.00  0.00    +0.000 A 
ATOM      6  C   UNL     1      45.921   6.326  13.196  0.00  0.00    +0.000 A 
ATOM      7  C   UNL     1      44.972   5.459  12.640  0.00  0.00    +0.000 A 
ATOM      8  C   UNL     1      45.132   4.082  12.868  0.00  0.00    +0.000 A 
ATOM      9  C   UNL     1      46.170   3.598  13.680  0.00  0.00    +0.000 A 
BRANCH   4  12
ATOM     10  C   UNL     1      47.793   3.489  16.443  0.00  0.00    +0.000 C 
ATOM     11  O   UNL     1      46.721   3.268  16.985  0.00  0.00    +0.000 OA
ATOM     12  N   UNL     1      48.018   3.980  15.184  0.00  0.00    +0.000 N 
ATOM     13  H   UNL     1      48.988   3.991  14.902  0.00  0.00    +0.000 HD
BRANCH  10  14
ATOM     14  O   UNL     1      48.986   3.346  17.074  0.00  0.00    +0.000 OA
BRANCH  14  15
ATOM     15  C   UNL     1      49.245   4.415  17.993  0.00  0.00    +0.000 C 
BRANCH  15  16
ATOM     16  C   UNL     1      50.528   5.200  17.686  0.00  0.00    +0.000 C 
BRANCH  16  18
ATOM     17  C   UNL     1      50.129   6.867  15.974  0.00  0.00    +0.000 C 
ATOM     18  N   UNL     1      50.264   6.630  17.413  0.00  0.00    +0.000 NA
ATOM     19  C   UNL     1      49.079   7.131  18.110  0.00  0.00    +0.000 C 
ENDBRANCH  16  18
ENDBRANCH  15  16
ENDBRANCH  14  15
ENDBRANCH  10  14
ENDBRANCH   4  12
ENDBRANCH   1   7
BRANCH   1  20
ATOM     20  C   UNL     1      43.266   4.921  10.776  0.00  0.00    +0.000 C 
BRANCH  20  21
ATOM     21  N   UNL     1      43.841   5.084   9.425  0.00  0.00    +0.000 N 
ATOM     22  H   UNL     1      44.217   6.023   9.287  0.00  0.00    +0.000 HD
BRANCH  21  23
ATOM     23  C   UNL     1      44.712   4.081   8.969  0.00  0.00    +0.000 A 
ATOM     24  C   UNL     1      44.604   2.740   9.360  0.00  0.00    +0.000 A 
ATOM     25  C   UNL     1      45.429   1.751   8.810  0.00  0.00    +0.000 A 
ATOM     26  C   UNL     1      46.363   2.080   7.832  0.00  0.00    +0.000 A 
ATOM     27  C   UNL     1      46.480   3.411   7.416  0.00  0.00    +0.000 A 
ATOM     28  C   UNL     1      45.647   4.393   7.973  0.00  0.00    +0.000 A 
BRANCH  26  29
ATOM     29  C   UNL     1      47.199   0.989   7.264  0.00  0.00    +0.000 C 
ATOM     30  N   UNL     1      46.928  -0.291   7.674  0.00  0.00    +0.000 N 
ATOM     31  O   UNL     1      48.122   1.216   6.495  0.00  0.00    +0.000 OA
ATOM     32  H   UNL     1      46.367  -0.488   8.488  0.00  0.00    +0.000 HD
ATOM     33  H   UNL     1      47.591  -0.995   7.378  0.00  0.00    +0.000 HD
ENDBRANCH  26  29
ENDBRANCH  21  23
ENDBRANCH  20  21
ENDBRANCH   1  20
TORSDOF 10
ENDMDL
MODEL 7
REMARK VINA RESULT:    -6.617      2.361      3.533
REMARK INTER + INTRA:         -11.802
REMARK INTER:                 -10.586
REMARK INTRA:                  -1.217
REMARK UNBOUND:                -1.317
REMARK  Name = 
REMARK  12 active torsions:
REMARK  status: ('A' for Active; 'I' for Inactive)
REMARK    1  A    between atoms: C_1  and  N_2
REMARK    2  A    between atoms: N_2  and  C_3
REMARK    3  A    between atoms: N_2  and  C_4
REMARK    4  A    between atoms: C_4  and  C_5
REMARK    5  A    between atoms: C_5  and  O_6
REMARK    6  A    between atoms: O_6  and  C_7
REMARK    7  A    between atoms: N_9  and  C_10
REMARK    8  A    between atoms: C_13  and  C_14
REMARK    9  A    between atoms: C_14  and  C_17
REMARK   10  A    between atoms: C_17  and  N_18
REMARK   11  A    between atoms: N_18  and  C_19
REMARK   12  A    between atoms: C_22  and  C_23
REMARK                            x       y       z     vdW  Elec       q    Type
REMARK                         _______ _______ _______ _____ _____    ______ ____
ROOT
ATOM      1  C   UNL     1      45.221   5.919  12.268  0.00  0.00    +0.000 C 
ATOM      2  F   UNL     1      45.025   4.619  12.645  0.00  0.00    +0.000 F 
ATOM      3  F   UNL     1      44.370   6.649  13.060  0.00  0.00    +0.000 F 
ENDROOT
BRANCH   1   7
ATOM      4  C   UNL     1      49.289   7.243  13.082  0.00  0.00    +0.000 A 
ATOM      5  C   UNL     1      48.692   7.527  11.856  0.00  0.00    +0.000 A 
ATOM      6  C   UNL     1      47.402   7.083  11.567  0.00  0.00    +0.000 A 
ATOM      7  C   UNL     1      46.667   6.339  12.500  0.00  0.00    +0.000 A 
ATOM      8  C   UNL     1      47.303   5.988  13.702  0.00  0.00    +0.000 A 
ATOM      9  C   UNL     1      48.607   6.424  13.987  0.00  0.00    +0.000 A 
BRANCH   4  12
ATOM     10  C   UNL     1      50.822   8.986  13.945  0.00  0.00    +0.000 C 
ATOM     11  O   UNL     1      50.030   9.839  14.312  0.00  0.00    +0.000 OA
ATOM     12  N   UNL     1      50.552   7.742  13.437  0.00  0.00    +0.000 N 
ATOM     13  H   UNL     1      51.364   7.161  13.290  0.00  0.00    +0.000 HD
BRANCH  10  14
ATOM     14  O   UNL     1      52.165   9.188  13.909  0.00  0.00    +0.000 OA
BRANCH  14  15
ATOM     15  C   UNL     1      52.546  10.125  12.893  0.00  0.00    +0.000 C 
BRANCH  15  16
ATOM     16  C   UNL     1      53.067   9.470  11.608  0.00  0.00    +0.000 C 
BRANCH  16  18
ATOM     17  C   UNL     1      51.197  10.745  10.744  0.00  0.00    +0.000 C 
ATOM     18  N   UNL     1      52.409  10.002  10.394  0.00  0.00    +0.000 NA
ATOM     19  C   UNL     1      53.296  10.851   9.596  0.00  0.00    +0.000 C 
ENDBRANCH  16  18
ENDBRANCH  15  16
ENDBRANCH  14  15
ENDBRANCH  10  14
ENDBRANCH   4  12
ENDBRANCH   1   7
BRANCH   1  20
ATOM     20  C   UNL     1      44.740   6.086  10.798  0.00  0.00    +0.000 C 
BRANCH  20  21
ATOM     21  N   UNL     1      44.150   4.868  10.204  0.00  0.00    +0.000 N 
ATOM     22  H   UNL     1      43.252   5.064   9.760  0.00  0.00    +0.000 HD
BRANCH  21  23
ATOM     23  C   UNL     1      44.986   4.070   9.407  0.00  0.00    +0.000 A 
ATOM     24  C   UNL     1      44.955   2.670   9.431  0.00  0.00    +0.000 A 
ATOM     25  C   UNL     1      45.734   1.908   8.551  0.00  0.00    +0.000 A 
ATOM     26  C   UNL     1      46.541   2.534   7.605  0.00  0.00    +0.000 A 
ATOM     27  C   UNL     1      46.578   3.931   7.554  0.00  0.00    +0.000 A 
ATOM     28  C   UNL     1      45.792   4.684   8.439  0.00  0.00    +0.000 A 
BRANCH  26  29
ATOM     29  C   UNL     1      47.331   1.679   6.681  0.00  0.00    +0.000 C 
ATOM     30  N   UNL     1      48.348   2.278   5.981  0.00  0.00    +0.000 N 
ATOM     31  O   UNL     1      47.068   0.497   6.510  0.00  0.00    +0.000 OA
ATOM     32  H   UNL     1      48.424   3.278   5.894  0.00  0.00    +0.000 HD
ATOM     33  H   UNL     1      48.780   1.708   5.266  0.00  0.00    +0.000 HD
ENDBRANCH  26  29
ENDBRANCH  21  23
ENDBRANCH  20  21
ENDBRANCH   1  20
TORSDOF 10
ENDMDL
MODEL 8
REMARK VINA RESULT:    -6.577      2.779      3.335
REMARK INTER + INTRA:         -11.738
REMARK INTER:                 -12.003
REMARK INTRA:                   0.265
REMARK UNBOUND:                -1.317
REMARK  Name = 
REMARK  12 active torsions:
REMARK  status: ('A' for Active; 'I' for Inactive)
REMARK    1  A    between atoms: C_1  and  N_2
REMARK    2  A    between atoms: N_2  and  C_3
REMARK    3  A    between atoms: N_2  and  C_4
REMARK    4  A    between atoms: C_4  and  C_5
REMARK    5  A    between atoms: C_5  and  O_6
REMARK    6  A    between atoms: O_6  and  C_7
REMARK    7  A    between atoms: N_9  and  C_10
REMARK    8  A    between atoms: C_13  and  C_14
REMARK    9  A    between atoms: C_14  and  C_17
REMARK   10  A    between atoms: C_17  and  N_18
REMARK   11  A    between atoms: N_18  and  C_19
REMARK   12  A    between atoms: C_22  and  C_23
REMARK                            x       y       z     vdW  Elec       q    Type
REMARK                         _______ _______ _______ _____ _____    ______ ____
ROOT
ATOM      1  C   UNL     1      44.889   6.041  11.191  0.00  0.00    +0.000 C 
ATOM      2  F   UNL     1      44.404   7.277  11.514  0.00  0.00    +0.000 F 
ATOM      3  F   UNL     1      45.764   6.262  10.157  0.00  0.00    +0.000 F 
ENDROOT
BRANCH   1   7
ATOM      4  C   UNL     1      47.117   4.271  14.488  0.00  0.00    +0.000 A 
ATOM      5  C   UNL     1      46.212   3.502  13.761  0.00  0.00    +0.000 A 
ATOM      6  C   UNL     1      45.467   4.060  12.723  0.00  0.00    +0.000 A 
ATOM      7  C   UNL     1      45.606   5.411  12.379  0.00  0.00    +0.000 A 
ATOM      8  C   UNL     1      46.461   6.201  13.166  0.00  0.00    +0.000 A 
ATOM      9  C   UNL     1      47.200   5.641  14.219  0.00  0.00    +0.000 A 
BRANCH   4  12
ATOM     10  C   UNL     1      47.553   3.334  16.739  0.00  0.00    +0.000 C 
ATOM     11  O   UNL     1      46.420   3.256  17.187  0.00  0.00    +0.000 OA
ATOM     12  N   UNL     1      47.941   3.723  15.484  0.00  0.00    +0.000 N 
ATOM     13  H   UNL     1      48.928   3.619  15.295  0.00  0.00    +0.000 HD
BRANCH  10  14
ATOM     14  O   UNL     1      48.664   3.111  17.487  0.00  0.00    +0.000 OA
BRANCH  14  15
ATOM     15  C   UNL     1      49.520   4.260  17.545  0.00  0.00    +0.000 C 
BRANCH  15  16
ATOM     16  C   UNL     1      48.972   5.397  18.417  0.00  0.00    +0.000 C 
BRANCH  16  18
ATOM     17  C   UNL     1      48.785   4.691  20.727  0.00  0.00    +0.000 C 
ATOM     18  N   UNL     1      49.595   5.432  19.758  0.00  0.00    +0.000 NA
ATOM     19  C   UNL     1      50.964   4.915  19.760  0.00  0.00    +0.000 C 
ENDBRANCH  16  18
ENDBRANCH  15  16
ENDBRANCH  14  15
ENDBRANCH  10  14
ENDBRANCH   4  12
ENDBRANCH   1   7
BRANCH   1  20
ATOM     20  C   UNL     1      43.720   5.182  10.629  0.00  0.00    +0.000 C 
BRANCH  20  21
ATOM     21  N   UNL     1      44.036   3.748  10.466  0.00  0.00    +0.000 N 
ATOM     22  H   UNL     1      43.203   3.165  10.566  0.00  0.00    +0.000 HD
BRANCH  21  23
ATOM     23  C   UNL     1      44.821   3.383   9.361  0.00  0.00    +0.000 A 
ATOM     24  C   UNL     1      45.283   4.306   8.413  0.00  0.00    +0.000 A 
ATOM     25  C   UNL     1      46.145   3.920   7.379  0.00  0.00    +0.000 A 
ATOM     26  C   UNL     1      46.588   2.603   7.288  0.00  0.00    +0.000 A 
ATOM     27  C   UNL     1      46.150   1.667   8.232  0.00  0.00    +0.000 A 
ATOM     28  C   UNL     1      45.289   2.065   9.264  0.00  0.00    +0.000 A 
BRANCH  26  29
ATOM     29  C   UNL     1      47.519   2.251   6.184  0.00  0.00    +0.000 C 
ATOM     30  N   UNL     1      47.457   3.007   5.041  0.00  0.00    +0.000 N 
ATOM     31  O   UNL     1      48.285   1.301   6.264  0.00  0.00    +0.000 OA
ATOM     32  H   UNL     1      46.678   3.613   4.839  0.00  0.00    +0.000 HD
ATOM     33  H   UNL     1      48.005   2.666   4.262  0.00  0.00    +0.000 HD
ENDBRANCH  26  29
ENDBRANCH  21  23
ENDBRANCH  20  21
ENDBRANCH   1  20
TORSDOF 10
ENDMDL
MODEL 9
REMARK VINA RESULT:    -6.497      1.938      2.378
REMARK INTER + INTRA:         -11.612
REMARK INTER:                 -10.758
REMARK INTRA:                  -0.854
REMARK UNBOUND:                -1.317
REMARK  Name = 
REMARK  12 active torsions:
REMARK  status: ('A' for Active; 'I' for Inactive)
REMARK    1  A    between atoms: C_1  and  N_2
REMARK    2  A    between atoms: N_2  and  C_3
REMARK    3  A    between atoms: N_2  and  C_4
REMARK    4  A    between atoms: C_4  and  C_5
REMARK    5  A    between atoms: C_5  and  O_6
REMARK    6  A    between atoms: O_6  and  C_7
REMARK    7  A    between atoms: N_9  and  C_10
REMARK    8  A    between atoms: C_13  and  C_14
REMARK    9  A    between atoms: C_14  and  C_17
REMARK   10  A    between atoms: C_17  and  N_18
REMARK   11  A    between atoms: N_18  and  C_19
REMARK   12  A    between atoms: C_22  and  C_23
REMARK                            x       y       z     vdW  Elec       q    Type
REMARK                         _______ _______ _______ _____ _____    ______ ____
ROOT
ATOM      1  C   UNL     1      44.379   5.489  12.180  0.00  0.00    +0.000 C 
ATOM      2  F   UNL     1      43.314   5.772  12.989  0.00  0.00    +0.000 F 
ATOM      3  F   UNL     1      44.197   6.270  11.067  0.00  0.00    +0.000 F 
ENDROOT
BRANCH   1   7
ATOM      4  C   UNL     1      48.037   6.447  14.339  0.00  0.00    +0.000 A 
ATOM      5  C   UNL     1      47.435   7.402  13.524  0.00  0.00    +0.000 A 
ATOM      6  C   UNL     1      46.281   7.102  12.801  0.00  0.00    +0.000 A 
ATOM      7  C   UNL     1      45.692   5.832  12.872  0.00  0.00    +0.000 A 
ATOM      8  C   UNL     1      46.348   4.850  13.633  0.00  0.00    +0.000 A 
ATOM      9  C   UNL     1      47.517   5.150  14.350  0.00  0.00    +0.000 A 
BRANCH   4  12
ATOM     10  C   UNL     1      49.169   6.814  16.512  0.00  0.00    +0.000 C 
ATOM     11  O   UNL     1      48.282   6.514  17.295  0.00  0.00    +0.000 OA
ATOM     12  N   UNL     1      49.150   6.739  15.144  0.00  0.00    +0.000 N 
ATOM     13  H   UNL     1      50.032   6.946  14.697  0.00  0.00    +0.000 HD
BRANCH  10  14
ATOM     14  O   UNL     1      50.344   7.373  16.900  0.00  0.00    +0.000 OA
BRANCH  14  15
ATOM     15  C   UNL     1      51.124   6.488  17.715  0.00  0.00    +0.000 C 
BRANCH  15  16
ATOM     16  C   UNL     1      52.600   6.887  17.827  0.00  0.00    +0.000 C 
BRANCH  16  18
ATOM     17  C   UNL     1      54.087   7.624  19.592  0.00  0.00    +0.000 C 
ATOM     18  N   UNL     1      53.175   6.567  19.153  0.00  0.00    +0.000 NA
ATOM     19  C   UNL     1      52.150   6.343  20.174  0.00  0.00    +0.000 C 
ENDBRANCH  16  18
ENDBRANCH  15  16
ENDBRANCH  14  15
ENDBRANCH  10  14
ENDBRANCH   4  12
ENDBRANCH   1   7
BRANCH   1  20
ATOM     20  C   UNL     1      44.273   4.005  11.724  0.00  0.00    +0.000 C 
BRANCH  20  21
ATOM     21  N   UNL     1      43.730   3.820  10.362  0.00  0.00    +0.000 N 
ATOM     22  H   UNL     1      43.126   4.596  10.089  0.00  0.00    +0.000 HD
BRANCH  21  23
ATOM     23  C   UNL     1      44.636   3.460   9.351  0.00  0.00    +0.000 A 
ATOM     24  C   UNL     1      45.336   4.399   8.581  0.00  0.00    +0.000 A 
ATOM     25  C   UNL     1      46.302   4.002   7.649  0.00  0.00    +0.000 A 
ATOM     26  C   UNL     1      46.611   2.654   7.488  0.00  0.00    +0.000 A 
ATOM     27  C   UNL     1      45.935   1.700   8.255  0.00  0.00    +0.000 A 
ATOM     28  C   UNL     1      44.969   2.109   9.187  0.00  0.00    +0.000 A 
BRANCH  26  29
ATOM     29  C   UNL     1      47.661   2.289   6.500  0.00  0.00    +0.000 C 
ATOM     30  N   UNL     1      47.756   3.056   5.367  0.00  0.00    +0.000 N 
ATOM     31  O   UNL     1      48.389   1.319   6.660  0.00  0.00    +0.000 OA
ATOM     32  H   UNL     1      47.022   3.683   5.079  0.00  0.00    +0.000 HD
ATOM     33  H   UNL     1      48.386   2.709   4.656  0.00  0.00    +0.000 HD
ENDBRANCH  26  29
ENDBRANCH  21  23
ENDBRANCH  20  21
ENDBRANCH   1  20
TORSDOF 10
ENDMDL
