MODEL 1
REMARK VINA RESULT:    -8.155      0.000      0.000
REMARK INTER + INTRA:         -12.220
REMARK INTER:                 -11.493
REMARK INTRA:                  -0.728
REMARK UNBOUND:                -0.728
REMARK  Name = 
REMARK  7 active torsions:
REMARK  status: ('A' for Active; 'I' for Inactive)
REMARK    1  A    between atoms: C_2  and  C_4
REMARK    2  A    between atoms: C_7  and  N_8
REMARK    3  A    between atoms: N_8  and  C_9
REMARK    4  A    between atoms: C_9  and  C_10
REMARK    5  A    between atoms: C_10  and  C_11
REMARK    6  A    between atoms: C_15  and  C_16
REMARK    7  A    between atoms: C_16  and  C_17
REMARK                            x       y       z     vdW  Elec       q    Type
REMARK                         _______ _______ _______ _____ _____    ______ ____
ROOT
ATOM      1  C   UNL     1      43.213   4.358  11.221  0.00  0.00    +0.000 C 
ENDROOT
BRANCH   1   2
ATOM      2  N   UNL     1      43.773   4.790   9.937  0.00  0.00    +0.000 N 
ATOM      3  H   UNL     1      44.191   5.716   9.988  0.00  0.00    +0.000 HD
BRANCH   2   7
ATOM      4  C   UNL     1      46.231   2.037   8.012  0.00  0.00    +0.000 A 
ATOM      5  C   UNL     1      46.346   3.367   7.641  0.00  0.00    +0.000 A 
ATOM      6  C   UNL     1      45.513   4.303   8.258  0.00  0.00    +0.000 A 
ATOM      7  C   UNL     1      44.575   3.900   9.213  0.00  0.00    +0.000 A 
ATOM      8  C   UNL     1      44.582   2.536   9.535  0.00  0.00    +0.000 A 
ATOM      9  N   UNL     1      45.358   1.588   8.953  0.00  0.00    +0.000 NA
BRANCH   4  11
ATOM     10  N   UNL     1      46.786  -0.293   7.651  0.00  0.00    +0.000 N 
ATOM     11  C   UNL     1      47.108   1.007   7.369  0.00  0.00    +0.000 C 
ATOM     12  O   UNL     1      48.047   1.297   6.640  0.00  0.00    +0.000 OA
ATOM     13  H   UNL     1      47.340  -1.041   7.260  0.00  0.00    +0.000 HD
ATOM     14  H   UNL     1      46.003  -0.491   8.263  0.00  0.00    +0.000 HD
ENDBRANCH   4  11
ENDBRANCH   2   7
ENDBRANCH   1   2
BRANCH   1  15
ATOM     15  C   UNL     1      43.322   5.493  12.244  0.00  0.00    +0.000 C 
BRANCH  15  16
ATOM     16  C   UNL     1      44.735   5.676  12.733  0.00  0.00    +0.000 A 
ATOM     17  C   UNL     1      45.460   6.827  12.406  0.00  0.00    +0.000 A 
ATOM     18  C   UNL     1      46.773   6.982  12.849  0.00  0.00    +0.000 A 
ATOM     19  C   UNL     1      47.373   5.995  13.634  0.00  0.00    +0.000 A 
ATOM     20  C   UNL     1      46.661   4.845  13.994  0.00  0.00    +0.000 A 
ATOM     21  C   UNL     1      45.349   4.686  13.518  0.00  0.00    +0.000 A 
BRANCH  20  22
ATOM     22  C   UNL     1      47.267   3.817  14.920  0.00  0.00    +0.000 C 
BRANCH  22  23
ATOM     23  C   UNL     1      47.130   4.214  16.380  0.00  0.00    +0.000 C 
ATOM     24  C   UNL     1      48.358   4.775  17.131  0.00  0.00    +0.000 C 
ATOM     25  N   UNL     1      48.003   3.922  18.287  0.00  0.00    +0.000 NA
ATOM     26  C   UNL     1      47.252   3.035  17.374  0.00  0.00    +0.000 C 
ATOM     27  H   UNL     1      47.407   4.394  18.968  0.00  0.00    +0.000 HD
ENDBRANCH  22  23
ENDBRANCH  20  22
ENDBRANCH  15  16
ENDBRANCH   1  15
TORSDOF 7
ENDMDL
MODEL 2
REMARK VINA RESULT:    -7.837      3.087      7.915
REMARK INTER + INTRA:         -11.772
REMARK INTER:                 -11.085
REMARK INTRA:                  -0.687
REMARK UNBOUND:                -0.728
REMARK  Name = 
REMARK  7 active torsions:
REMARK  status: ('A' for Active; 'I' for Inactive)
REMARK    1  A    between atoms: C_2  and  C_4
REMARK    2  A    between atoms: C_7  and  N_8
REMARK    3  A    between atoms: N_8  and  C_9
REMARK    4  A    between atoms: C_9  and  C_10
REMARK    5  A    between atoms: C_10  and  C_11
REMARK    6  A    between atoms: C_15  and  C_16
REMARK    7  A    between atoms: C_16  and  C_17
REMARK                            x       y       z     vdW  Elec       q    Type
REMARK                         _______ _______ _______ _____ _____    ______ ____
ROOT
ATOM      1  C   UNL     1      45.678   6.507  12.504  0.00  0.00    +0.000 C 
ENDROOT
BRANCH   1   2
ATOM      2  N   UNL     1      47.083   6.367  12.898  0.00  0.00    +0.000 N 
ATOM      3  H   UNL     1      47.591   7.248  12.843  0.00  0.00    +0.000 HD
BRANCH   2   7
ATOM      4  C   UNL     1      47.748   4.235  16.411  0.00  0.00    +0.000 A 
ATOM      5  C   UNL     1      48.384   5.459  16.274  0.00  0.00    +0.000 A 
ATOM      6  C   UNL     1      48.192   6.178  15.093  0.00  0.00    +0.000 A 
ATOM      7  C   UNL     1      47.393   5.664  14.068  0.00  0.00    +0.000 A 
ATOM      8  C   UNL     1      46.770   4.438  14.339  0.00  0.00    +0.000 A 
ATOM      9  N   UNL     1      46.937   3.696  15.462  0.00  0.00    +0.000 NA
BRANCH   4  11
ATOM     10  N   UNL     1      46.936   2.539  17.937  0.00  0.00    +0.000 N 
ATOM     11  C   UNL     1      47.933   3.436  17.664  0.00  0.00    +0.000 C 
ATOM     12  O   UNL     1      48.904   3.568  18.397  0.00  0.00    +0.000 OA
ATOM     13  H   UNL     1      46.989   1.973  18.771  0.00  0.00    +0.000 HD
ATOM     14  H   UNL     1      46.146   2.464  17.307  0.00  0.00    +0.000 HD
ENDBRANCH   4  11
ENDBRANCH   2   7
ENDBRANCH   1   2
BRANCH   1  15
ATOM     15  C   UNL     1      45.564   6.517  10.977  0.00  0.00    +0.000 C 
BRANCH  15  16
ATOM     16  C   UNL     1      45.239   5.152  10.429  0.00  0.00    +0.000 A 
ATOM     17  C   UNL     1      44.610   4.193  11.229  0.00  0.00    +0.000 A 
ATOM     18  C   UNL     1      44.328   2.926  10.720  0.00  0.00    +0.000 A 
ATOM     19  C   UNL     1      44.659   2.607   9.401  0.00  0.00    +0.000 A 
ATOM     20  C   UNL     1      45.267   3.557   8.573  0.00  0.00    +0.000 A 
ATOM     21  C   UNL     1      45.574   4.820   9.105  0.00  0.00    +0.000 A 
BRANCH  20  22
ATOM     22  C   UNL     1      45.543   3.253   7.119  0.00  0.00    +0.000 C 
BRANCH  22  23
ATOM     23  C   UNL     1      47.022   3.026   6.856  0.00  0.00    +0.000 C 
ATOM     24  C   UNL     1      47.501   2.756   5.412  0.00  0.00    +0.000 C 
ATOM     25  N   UNL     1      48.374   1.681   5.934  0.00  0.00    +0.000 NA
ATOM     26  C   UNL     1      47.500   1.578   7.122  0.00  0.00    +0.000 C 
ATOM     27  H   UNL     1      49.318   2.000   6.157  0.00  0.00    +0.000 HD
ENDBRANCH  22  23
ENDBRANCH  20  22
ENDBRANCH  15  16
ENDBRANCH   1  15
TORSDOF 7
ENDMDL
MODEL 3
REMARK VINA RESULT:    -7.766      2.220      3.237
REMARK INTER + INTRA:         -11.672
REMARK INTER:                 -10.772
REMARK INTRA:                  -0.900
REMARK UNBOUND:                -0.728
REMARK  Name = 
REMARK  7 active torsions:
REMARK  status: ('A' for Active; 'I' for Inactive)
REMARK    1  A    between atoms: C_2  and  C_4
REMARK    2  A    between atoms: C_7  and  N_8
REMARK    3  A    between atoms: N_8  and  C_9
REMARK    4  A    between atoms: C_9  and  C_10
REMARK    5  A    between atoms: C_10  and  C_11
REMARK    6  A    between atoms: C_15  and  C_16
REMARK    7  A    between atoms: C_16  and  C_17
REMARK                            x       y       z     vdW  Elec       q    Type
REMARK                         _______ _______ _______ _____ _____    ______ ____
ROOT
ATOM      1  C   UNL     1      43.116   4.334  11.149  0.00  0.00    +0.000 C 
ENDROOT
BRANCH   1   2
ATOM      2  N   UNL     1      43.702   4.819   9.897  0.00  0.00    +0.000 N 
ATOM      3  H   UNL     1      44.092   5.755   9.988  0.00  0.00    +0.000 HD
BRANCH   2   7
ATOM      4  C   UNL     1      46.281   2.181   7.968  0.00  0.00    +0.000 A 
ATOM      5  C   UNL     1      46.436   3.534   7.708  0.00  0.00    +0.000 A 
ATOM      6  C   UNL     1      45.565   4.433   8.327  0.00  0.00    +0.000 A 
ATOM      7  C   UNL     1      44.551   3.974   9.173  0.00  0.00    +0.000 A 
ATOM      8  C   UNL     1      44.521   2.590   9.392  0.00  0.00    +0.000 A 
ATOM      9  N   UNL     1      45.333   1.677   8.803  0.00  0.00    +0.000 NA
BRANCH   4  11
ATOM     10  N   UNL     1      48.264   1.729   6.653  0.00  0.00    +0.000 N 
ATOM     11  C   UNL     1      47.197   1.189   7.320  0.00  0.00    +0.000 C 
ATOM     12  O   UNL     1      47.014  -0.019   7.379  0.00  0.00    +0.000 OA
ATOM     13  H   UNL     1      48.918   1.121   6.182  0.00  0.00    +0.000 HD
ATOM     14  H   UNL     1      48.376   2.735   6.624  0.00  0.00    +0.000 HD
ENDBRANCH   4  11
ENDBRANCH   2   7
ENDBRANCH   1   2
BRANCH   1  15
ATOM     15  C   UNL     1      43.389   5.336  12.275  0.00  0.00    +0.000 C 
BRANCH  15  16
ATOM     16  C   UNL     1      44.830   5.308  12.715  0.00  0.00    +0.000 A 
ATOM     17  C   UNL     1      45.370   4.167  13.317  0.00  0.00    +0.000 A 
ATOM     18  C   UNL     1      46.700   4.154  13.736  0.00  0.00    +0.000 A 
ATOM     19  C   UNL     1      47.509   5.276  13.546  0.00  0.00    +0.000 A 
ATOM     20  C   UNL     1      46.999   6.421  12.924  0.00  0.00    +0.000 A 
ATOM     21  C   UNL     1      45.651   6.434  12.533  0.00  0.00    +0.000 A 
BRANCH  20  22
ATOM     22  C   UNL     1      47.891   7.604  12.629  0.00  0.00    +0.000 C 
BRANCH  22  23
ATOM     23  C   UNL     1      49.362   7.222  12.631  0.00  0.00    +0.000 C 
ATOM     24  C   UNL     1      50.351   8.026  13.504  0.00  0.00    +0.000 C 
ATOM     25  N   UNL     1      51.304   8.027  12.371  0.00  0.00    +0.000 NA
ATOM     26  C   UNL     1      50.171   7.803  11.447  0.00  0.00    +0.000 C 
ATOM     27  H   UNL     1      51.961   7.246  12.397  0.00  0.00    +0.000 HD
ENDBRANCH  22  23
ENDBRANCH  20  22
ENDBRANCH  15  16
ENDBRANCH   1  15
TORSDOF 7
ENDMDL
MODEL 4
REMARK VINA RESULT:    -7.090      3.093      3.998
REMARK INTER + INTRA:         -10.718
REMARK INTER:                 -10.093
REMARK INTRA:                  -0.625
REMARK UNBOUND:                -0.728
REMARK  Name = 
REMARK  7 active torsions:
REMARK  status: ('A' for Active; 'I' for Inactive)
REMARK    1  A    between atoms: C_2  and  C_4
REMARK    2  A    between atoms: C_7  and  N_8
REMARK    3  A    between atoms: N_8  and  C_9
REMARK    4  A    between atoms: C_9  and  C_10
REMARK    5  A    between atoms: C_10  and  C_11
REMARK    6  A    between atoms: C_15  and  C_16
REMARK    7  A    between atoms: C_16  and  C_17
REMARK                            x       y       z     vdW  Elec       q    Type
REMARK                         _______ _______ _______ _____ _____    ______ ____
ROOT
ATOM      1  C   UNL     1      43.722   4.866  11.345  0.00  0.00    +0.000 C 
ENDROOT
BRANCH   1   2
ATOM      2  N   UNL     1      43.811   4.845   9.883  0.00  0.00    +0.000 N 
ATOM      3  H   UNL     1      43.887   5.779   9.485  0.00  0.00    +0.000 HD
BRANCH   2   7
ATOM      4  C   UNL     1      46.390   2.300   7.832  0.00  0.00    +0.000 A 
ATOM      5  C   UNL     1      45.458   1.721   8.679  0.00  0.00    +0.000 A 
ATOM      6  C   UNL     1      44.600   2.559   9.395  0.00  0.00    +0.000 A 
ATOM      7  C   UNL     1      44.694   3.948   9.269  0.00  0.00    +0.000 A 
ATOM      8  C   UNL     1      45.645   4.414   8.351  0.00  0.00    +0.000 A 
ATOM      9  N   UNL     1      46.510   3.642   7.647  0.00  0.00    +0.000 NA
BRANCH   4  11
ATOM     10  N   UNL     1      48.409   2.074   6.513  0.00  0.00    +0.000 N 
ATOM     11  C   UNL     1      47.326   1.431   7.051  0.00  0.00    +0.000 C 
ATOM     12  O   UNL     1      47.147   0.230   6.901  0.00  0.00    +0.000 OA
ATOM     13  H   UNL     1      49.077   1.554   5.965  0.00  0.00    +0.000 HD
ATOM     14  H   UNL     1      48.518   3.071   6.657  0.00  0.00    +0.000 HD
ENDBRANCH   4  11
ENDBRANCH   2   7
ENDBRANCH   1   2
BRANCH   1  15
ATOM     15  C   UNL     1      45.126   4.778  11.953  0.00  0.00    +0.000 C 
BRANCH  15  16
ATOM     16  C   UNL     1      45.748   6.139  12.129  0.00  0.00    +0.000 A 
ATOM     17  C   UNL     1      44.959   7.294  12.092  0.00  0.00    +0.000 A 
ATOM     18  C   UNL     1      45.544   8.551  12.240  0.00  0.00    +0.000 A 
ATOM     19  C   UNL     1      46.921   8.668  12.440  0.00  0.00    +0.000 A 
ATOM     20  C   UNL     1      47.728   7.527  12.505  0.00  0.00    +0.000 A 
ATOM     21  C   UNL     1      47.133   6.267  12.325  0.00  0.00    +0.000 A 
BRANCH  20  22
ATOM     22  C   UNL     1      49.202   7.637  12.815  0.00  0.00    +0.000 C 
BRANCH  22  23
ATOM     23  C   UNL     1      49.961   8.366  11.718  0.00  0.00    +0.000 C 
ATOM     24  C   UNL     1      51.034   7.606  10.907  0.00  0.00    +0.000 C 
ATOM     25  N   UNL     1      51.919   8.787  11.028  0.00  0.00    +0.000 NA
ATOM     26  C   UNL     1      51.158   9.206  12.224  0.00  0.00    +0.000 C 
ATOM     27  H   UNL     1      51.831   9.438  10.248  0.00  0.00    +0.000 HD
ENDBRANCH  22  23
ENDBRANCH  20  22
ENDBRANCH  15  16
ENDBRANCH   1  15
TORSDOF 7
ENDMDL
MODEL 5
REMARK VINA RESULT:    -6.703      3.902      7.926
REMARK INTER + INTRA:         -10.174
REMARK INTER:                  -9.615
REMARK INTRA:                  -0.559
REMARK UNBOUND:                -0.728
REMARK  Name = 
REMARK  7 active torsions:
REMARK  status: ('A' for Active; 'I' for Inactive)
REMARK    1  A    between atoms: C_2  and  C_4
REMARK    2  A    between atoms: C_7  and  N_8
REMARK    3  A    between atoms: N_8  and  C_9
REMARK    4  A    between atoms: C_9  and  C_10
REMARK    5  A    between atoms: C_10  and  C_11
REMARK    6  A    between atoms: C_15  and  C_16
REMARK    7  A    between atoms: C_16  and  C_17
REMARK                            x       y       z     vdW  Elec       q    Type
REMARK                         _______ _______ _______ _____ _____    ______ ____
ROOT
ATOM      1  C   UNL     1      45.737   5.942  12.725  0.00  0.00    +0.000 C 
ENDROOT
BRANCH   1   2
ATOM      2  N   UNL     1      46.232   7.217  13.250  0.00  0.00    +0.000 N 
ATOM      3  H   UNL     1      45.911   7.397  14.199  0.00  0.00    +0.000 HD
BRANCH   2   7
ATOM      4  C   UNL     1      50.262   8.238  13.038  0.00  0.00    +0.000 A 
ATOM      5  C   UNL     1      49.429   8.709  12.036  0.00  0.00    +0.000 A 
ATOM      6  C   UNL     1      48.078   8.357  12.076  0.00  0.00    +0.000 A 
ATOM      7  C   UNL     1      47.587   7.535  13.095  0.00  0.00    +0.000 A 
ATOM      8  C   UNL     1      48.516   7.157  14.074  0.00  0.00    +0.000 A 
ATOM      9  N   UNL     1      49.838   7.460  14.069  0.00  0.00    +0.000 NA
BRANCH   4  11
ATOM     10  N   UNL     1      52.483   7.889  12.136  0.00  0.00    +0.000 N 
ATOM     11  C   UNL     1      51.717   8.595  13.025  0.00  0.00    +0.000 C 
ATOM     12  O   UNL     1      52.195   9.455  13.751  0.00  0.00    +0.000 OA
ATOM     13  H   UNL     1      53.474   8.068  12.080  0.00  0.00    +0.000 HD
ATOM     14  H   UNL     1      52.048   7.181  11.556  0.00  0.00    +0.000 HD
ENDBRANCH   4  11
ENDBRANCH   2   7
ENDBRANCH   1   2
BRANCH   1  15
ATOM     15  C   UNL     1      45.112   6.156  11.343  0.00  0.00    +0.000 C 
BRANCH  15  16
ATOM     16  C   UNL     1      44.872   4.852  10.626  0.00  0.00    +0.000 A 
ATOM     17  C   UNL     1      44.209   3.799  11.264  0.00  0.00    +0.000 A 
ATOM     18  C   UNL     1      44.005   2.589  10.600  0.00  0.00    +0.000 A 
ATOM     19  C   UNL     1      44.451   2.424   9.287  0.00  0.00    +0.000 A 
ATOM     20  C   UNL     1      45.096   3.471   8.618  0.00  0.00    +0.000 A 
ATOM     21  C   UNL     1      45.322   4.674   9.307  0.00  0.00    +0.000 A 
BRANCH  20  22
ATOM     22  C   UNL     1      45.496   3.334   7.169  0.00  0.00    +0.000 C 
BRANCH  22  23
ATOM     23  C   UNL     1      46.972   3.006   7.014  0.00  0.00    +0.000 C 
ATOM     24  C   UNL     1      47.567   2.843   5.598  0.00  0.00    +0.000 C 
ATOM     25  N   UNL     1      48.300   1.649   6.076  0.00  0.00    +0.000 NA
ATOM     26  C   UNL     1      47.310   1.504   7.164  0.00  0.00    +0.000 C 
ATOM     27  H   UNL     1      49.239   1.862   6.414  0.00  0.00    +0.000 HD
ENDBRANCH  22  23
ENDBRANCH  20  22
ENDBRANCH  15  16
ENDBRANCH   1  15
TORSDOF 7
ENDMDL
MODEL 6
REMARK VINA RESULT:    -6.699      2.269      2.662
REMARK INTER + INTRA:         -10.168
REMARK INTER:                  -9.417
REMARK INTRA:                  -0.751
REMARK UNBOUND:                -0.728
REMARK  Name = 
REMARK  7 active torsions:
REMARK  status: ('A' for Active; 'I' for Inactive)
REMARK    1  A    between atoms: C_2  and  C_4
REMARK    2  A    between atoms: C_7  and  N_8
REMARK    3  A    between atoms: N_8  and  C_9
REMARK    4  A    between atoms: C_9  and  C_10
REMARK    5  A    between atoms: C_10  and  C_11
REMARK    6  A    between atoms: C_15  and  C_16
REMARK    7  A    between atoms: C_16  and  C_17
REMARK                            x       y       z     vdW  Elec       q    Type
REMARK                         _______ _______ _______ _____ _____    ______ ____
ROOT
ATOM      1  C   UNL     1      43.506   4.524  11.348  0.00  0.00    +0.000 C 
ENDROOT
BRANCH   1   2
ATOM      2  N   UNL     1      43.525   3.284  10.566  0.00  0.00    +0.000 N 
ATOM      3  H   UNL     1      42.610   3.050  10.186  0.00  0.00    +0.000 HD
BRANCH   2   7
ATOM      4  C   UNL     1      46.404   2.857   7.589  0.00  0.00    +0.000 A 
ATOM      5  C   UNL     1      46.000   1.712   8.259  0.00  0.00    +0.000 A 
ATOM      6  C   UNL     1      45.053   1.838   9.277  0.00  0.00    +0.000 A 
ATOM      7  C   UNL     1      44.541   3.093   9.622  0.00  0.00    +0.000 A 
ATOM      8  C   UNL     1      44.993   4.169   8.847  0.00  0.00    +0.000 A 
ATOM      9  N   UNL     1      45.922   4.099   7.860  0.00  0.00    +0.000 NA
BRANCH   4  11
ATOM     10  N   UNL     1      47.053   3.330   5.304  0.00  0.00    +0.000 N 
ATOM     11  C   UNL     1      47.419   2.758   6.493  0.00  0.00    +0.000 C 
ATOM     12  O   UNL     1      48.503   2.209   6.640  0.00  0.00    +0.000 OA
ATOM     13  H   UNL     1      47.683   3.292   4.517  0.00  0.00    +0.000 HD
ATOM     14  H   UNL     1      46.144   3.771   5.222  0.00  0.00    +0.000 HD
ENDBRANCH   4  11
ENDBRANCH   2   7
ENDBRANCH   1   2
BRANCH   1  15
ATOM     15  C   UNL     1      44.606   4.484  12.413  0.00  0.00    +0.000 C 
BRANCH  15  16
ATOM     16  C   UNL     1      45.430   5.746  12.417  0.00  0.00    +0.000 A 
ATOM     17  C   UNL     1      44.898   6.947  11.938  0.00  0.00    +0.000 A 
ATOM     18  C   UNL     1      45.672   8.107  11.930  0.00  0.00    +0.000 A 
ATOM     19  C   UNL     1      46.982   8.083  12.413  0.00  0.00    +0.000 A 
ATOM     20  C   UNL     1      47.530   6.899  12.920  0.00  0.00    +0.000 A 
ATOM     21  C   UNL     1      46.751   5.730  12.896  0.00  0.00    +0.000 A 
BRANCH  20  22
ATOM     22  C   UNL     1      48.911   6.884  13.530  0.00  0.00    +0.000 C 
BRANCH  22  23
ATOM     23  C   UNL     1      48.864   6.976  15.046  0.00  0.00    +0.000 C 
ATOM     24  C   UNL     1      48.740   8.363  15.716  0.00  0.00    +0.000 C 
ATOM     25  N   UNL     1      49.770   7.948  16.696  0.00  0.00    +0.000 NA
ATOM     26  C   UNL     1      50.253   6.941  15.728  0.00  0.00    +0.000 C 
ATOM     27  H   UNL     1      49.377   7.536  17.543  0.00  0.00    +0.000 HD
ENDBRANCH  22  23
ENDBRANCH  20  22
ENDBRANCH  15  16
ENDBRANCH   1  15
TORSDOF 7
ENDMDL
MODEL 7
REMARK VINA RESULT:    -6.567      3.820      8.602
REMARK INTER + INTRA:          -9.982
REMARK INTER:                  -9.484
REMARK INTRA:                  -0.497
REMARK UNBOUND:                -0.728
REMARK  Name = 
REMARK  7 active torsions:
REMARK  status: ('A' for Active; 'I' for Inactive)
REMARK    1  A    between atoms: C_2  and  C_4
REMARK    2  A    between atoms: C_7  and  N_8
REMARK    3  A    between atoms: N_8  and  C_9
REMARK    4  A    between atoms: C_9  and  C_10
REMARK    5  A    between atoms: C_10  and  C_11
REMARK    6  A    between atoms: C_15  and  C_16
REMARK    7  A    between atoms: C_16  and  C_17
REMARK                            x       y       z     vdW  Elec       q    Type
REMARK                         _______ _______ _______ _____ _____    ______ ____
ROOT
ATOM      1  C   UNL     1      46.705   6.282  12.000  0.00  0.00    +0.000 C 
ENDROOT
BRANCH   1   2
ATOM      2  N   UNL     1      46.918   7.590  12.626  0.00  0.00    +0.000 N 
ATOM      3  H   UNL     1      46.053   8.118  12.726  0.00  0.00    +0.000 HD
BRANCH   2   7
ATOM      4  C   UNL     1      49.131   7.625  16.152  0.00  0.00    +0.000 A 
ATOM      5  C   UNL     1      48.613   8.832  15.709  0.00  0.00    +0.000 A 
ATOM      6  C   UNL     1      47.888   8.845  14.515  0.00  0.00    +0.000 A 
ATOM      7  C   UNL     1      47.707   7.670  13.779  0.00  0.00    +0.000 A 
ATOM      8  C   UNL     1      48.241   6.506  14.350  0.00  0.00    +0.000 A 
ATOM      9  N   UNL     1      48.965   6.446  15.495  0.00  0.00    +0.000 NA
BRANCH   4  11
ATOM     10  N   UNL     1      50.103   6.324  17.949  0.00  0.00    +0.000 N 
ATOM     11  C   UNL     1      49.915   7.575  17.426  0.00  0.00    +0.000 C 
ATOM     12  O   UNL     1      50.362   8.577  17.970  0.00  0.00    +0.000 OA
ATOM     13  H   UNL     1      50.613   6.215  18.813  0.00  0.00    +0.000 HD
ATOM     14  H   UNL     1      49.712   5.521  17.471  0.00  0.00    +0.000 HD
ENDBRANCH   4  11
ENDBRANCH   2   7
ENDBRANCH   1   2
BRANCH   1  15
ATOM     15  C   UNL     1      45.602   6.385  10.942  0.00  0.00    +0.000 C 
BRANCH  15  16
ATOM     16  C   UNL     1      45.235   5.035  10.380  0.00  0.00    +0.000 A 
ATOM     17  C   UNL     1      44.557   4.097  11.165  0.00  0.00    +0.000 A 
ATOM     18  C   UNL     1      44.235   2.844  10.643  0.00  0.00    +0.000 A 
ATOM     19  C   UNL     1      44.575   2.520   9.328  0.00  0.00    +0.000 A 
ATOM     20  C   UNL     1      45.233   3.451   8.516  0.00  0.00    +0.000 A 
ATOM     21  C   UNL     1      45.578   4.698   9.060  0.00  0.00    +0.000 A 
BRANCH  20  22
ATOM     22  C   UNL     1      45.520   3.145   7.065  0.00  0.00    +0.000 C 
BRANCH  22  23
ATOM     23  C   UNL     1      47.010   3.011   6.796  0.00  0.00    +0.000 C 
ATOM     24  C   UNL     1      47.497   2.733   5.356  0.00  0.00    +0.000 C 
ATOM     25  N   UNL     1      48.445   1.735   5.902  0.00  0.00    +0.000 NA
ATOM     26  C   UNL     1      47.588   1.608   7.099  0.00  0.00    +0.000 C 
ATOM     27  H   UNL     1      49.366   2.125   6.107  0.00  0.00    +0.000 HD
ENDBRANCH  22  23
ENDBRANCH  20  22
ENDBRANCH  15  16
ENDBRANCH   1  15
TORSDOF 7
ENDMDL
MODEL 8
REMARK VINA RESULT:    -6.556      4.538      8.158
REMARK INTER + INTRA:          -9.966
REMARK INTER:                  -9.433
REMARK INTRA:                  -0.533
REMARK UNBOUND:                -0.728
REMARK  Name = 
REMARK  7 active torsions:
REMARK  status: ('A' for Active; 'I' for Inactive)
REMARK    1  A    between atoms: C_2  and  C_4
REMARK    2  A    between atoms: C_7  and  N_8
REMARK    3  A    between atoms: N_8  and  C_9
REMARK    4  A    between atoms: C_9  and  C_10
REMARK    5  A    between atoms: C_10  and  C_11
REMARK    6  A    between atoms: C_15  and  C_16
REMARK    7  A    between atoms: C_16  and  C_17
REMARK                            x       y       z     vdW  Elec       q    Type
REMARK                         _______ _______ _______ _____ _____    ______ ____
ROOT
ATOM      1  C   UNL     1      46.760   6.426  11.781  0.00  0.00    +0.000 C 
ENDROOT
BRANCH   1   2
ATOM      2  N   UNL     1      47.080   7.796  12.193  0.00  0.00    +0.000 N 
ATOM      3  H   UNL     1      46.789   7.992  13.149  0.00  0.00    +0.000 HD
BRANCH   2   7
ATOM      4  C   UNL     1      50.775   9.444  11.213  0.00  0.00    +0.000 A 
ATOM      5  C   UNL     1      50.710   8.069  11.376  0.00  0.00    +0.000 A 
ATOM      6  C   UNL     1      49.485   7.500  11.729  0.00  0.00    +0.000 A 
ATOM      7  C   UNL     1      48.358   8.303  11.929  0.00  0.00    +0.000 A 
ATOM      8  C   UNL     1      48.538   9.673  11.694  0.00  0.00    +0.000 A 
ATOM      9  N   UNL     1      49.709  10.273  11.366  0.00  0.00    +0.000 NA
BRANCH   4  11
ATOM     10  N   UNL     1      52.685   9.566   9.728  0.00  0.00    +0.000 N 
ATOM     11  C   UNL     1      52.074  10.087  10.837  0.00  0.00    +0.000 C 
ATOM     12  O   UNL     1      52.562  11.015  11.469  0.00  0.00    +0.000 OA
ATOM     13  H   UNL     1      53.570   9.943   9.422  0.00  0.00    +0.000 HD
ATOM     14  H   UNL     1      52.250   8.795   9.236  0.00  0.00    +0.000 HD
ENDBRANCH   4  11
ENDBRANCH   2   7
ENDBRANCH   1   2
BRANCH   1  15
ATOM     15  C   UNL     1      45.414   6.404  11.050  0.00  0.00    +0.000 C 
BRANCH  15  16
ATOM     16  C   UNL     1      45.125   5.054  10.446  0.00  0.00    +0.000 A 
ATOM     17  C   UNL     1      44.470   4.066  11.189  0.00  0.00    +0.000 A 
ATOM     18  C   UNL     1      44.220   2.813  10.628  0.00  0.00    +0.000 A 
ATOM     19  C   UNL     1      44.610   2.539   9.315  0.00  0.00    +0.000 A 
ATOM     20  C   UNL     1      45.245   3.519   8.544  0.00  0.00    +0.000 A 
ATOM     21  C   UNL     1      45.518   4.767   9.128  0.00  0.00    +0.000 A 
BRANCH  20  22
ATOM     22  C   UNL     1      45.585   3.264   7.095  0.00  0.00    +0.000 C 
BRANCH  22  23
ATOM     23  C   UNL     1      47.065   2.980   6.898  0.00  0.00    +0.000 C 
ATOM     24  C   UNL     1      47.610   2.764   5.469  0.00  0.00    +0.000 C 
ATOM     25  N   UNL     1      48.405   1.623   5.978  0.00  0.00    +0.000 NA
ATOM     26  C   UNL     1      47.462   1.500   7.110  0.00  0.00    +0.000 C 
ATOM     27  H   UNL     1      49.348   1.885   6.267  0.00  0.00    +0.000 HD
ENDBRANCH  22  23
ENDBRANCH  20  22
ENDBRANCH  15  16
ENDBRANCH   1  15
TORSDOF 7
ENDMDL
MODEL 9
REMARK VINA RESULT:    -6.462      3.556      7.274
REMARK INTER + INTRA:          -9.834
REMARK INTER:                  -8.592
REMARK INTRA:                  -1.242
REMARK UNBOUND:                -0.728
REMARK  Name = 
REMARK  7 active torsions:
REMARK  status: ('A' for Active; 'I' for Inactive)
REMARK    1  A    between atoms: C_2  and  C_4
REMARK    2  A    between atoms: C_7  and  N_8
REMARK    3  A    between atoms: N_8  and  C_9
REMARK    4  A    between atoms: C_9  and  C_10
REMARK    5  A    between atoms: C_10  and  C_11
REMARK    6  A    between atoms: C_15  and  C_16
REMARK    7  A    between atoms: C_16  and  C_17
REMARK                            x       y       z     vdW  Elec       q    Type
REMARK                         _______ _______ _______ _____ _____    ______ ____
ROOT
ATOM      1  C   UNL     1      49.740   7.382  12.932  0.00  0.00    +0.000 C 
ENDROOT
BRANCH   1   2
ATOM      2  N   UNL     1      49.412   7.683  14.328  0.00  0.00    +0.000 N 
ATOM      3  H   UNL     1      48.908   8.562  14.427  0.00  0.00    +0.000 HD
BRANCH   2   7
ATOM      4  C   UNL     1      48.006   4.602  16.748  0.00  0.00    +0.000 A 
ATOM      5  C   UNL     1      47.388   4.785  15.520  0.00  0.00    +0.000 A 
ATOM      6  C   UNL     1      47.830   5.829  14.704  0.00  0.00    +0.000 A 
ATOM      7  C   UNL     1      48.857   6.677  15.127  0.00  0.00    +0.000 A 
ATOM      8  C   UNL     1      49.431   6.366  16.368  0.00  0.00    +0.000 A 
ATOM      9  N   UNL     1      49.028   5.375  17.201  0.00  0.00    +0.000 NA
BRANCH   4  11
ATOM     10  N   UNL     1      48.371   3.243  18.719  0.00  0.00    +0.000 N 
ATOM     11  C   UNL     1      47.556   3.493  17.648  0.00  0.00    +0.000 C 
ATOM     12  O   UNL     1      46.532   2.852  17.450  0.00  0.00    +0.000 OA
ATOM     13  H   UNL     1      48.136   2.502  19.363  0.00  0.00    +0.000 HD
ATOM     14  H   UNL     1      49.212   3.793  18.844  0.00  0.00    +0.000 HD
ENDBRANCH   4  11
ENDBRANCH   2   7
ENDBRANCH   1   2
BRANCH   1  15
ATOM     15  C   UNL     1      49.062   8.398  12.007  0.00  0.00    +0.000 C 
BRANCH  15  16
ATOM     16  C   UNL     1      47.579   8.154  11.895  0.00  0.00    +0.000 A 
ATOM     17  C   UNL     1      46.664   9.164  12.211  0.00  0.00    +0.000 A 
ATOM     18  C   UNL     1      45.293   8.926  12.121  0.00  0.00    +0.000 A 
ATOM     19  C   UNL     1      44.821   7.680  11.702  0.00  0.00    +0.000 A 
ATOM     20  C   UNL     1      45.716   6.661  11.357  0.00  0.00    +0.000 A 
ATOM     21  C   UNL     1      47.094   6.902  11.480  0.00  0.00    +0.000 A 
BRANCH  20  22
ATOM     22  C   UNL     1      45.217   5.344  10.814  0.00  0.00    +0.000 C 
BRANCH  22  23
ATOM     23  C   UNL     1      44.572   4.490  11.893  0.00  0.00    +0.000 C 
ATOM     24  C   UNL     1      45.370   3.320  12.509  0.00  0.00    +0.000 C 
ATOM     25  N   UNL     1      44.154   2.480  12.415  0.00  0.00    +0.000 NA
ATOM     26  C   UNL     1      43.647   3.374  11.352  0.00  0.00    +0.000 C 
ATOM     27  H   UNL     1      43.585   2.500  13.262  0.00  0.00    +0.000 HD
ENDBRANCH  22  23
ENDBRANCH  20  22
ENDBRANCH  15  16
ENDBRANCH   1  15
TORSDOF 7
ENDMDL
