MODEL 1
REMARK VINA RESULT:    -8.732      0.000      0.000
REMARK INTER + INTRA:         -12.738
REMARK INTER:                 -11.795
REMARK INTRA:                  -0.943
REMARK UNBOUND:                -0.943
REMARK  Name = 
REMARK  6 active torsions:
REMARK  status: ('A' for Active; 'I' for Inactive)
REMARK    1  A    between atoms: C_2  and  C_4
REMARK    2  A    between atoms: C_7  and  N_8
REMARK    3  A    between atoms: N_8  and  C_9
REMARK    4  A    between atoms: C_9  and  C_10
REMARK    5  A    between atoms: C_10  and  C_11
REMARK    6  A    between atoms: C_15  and  C_16
REMARK                            x       y       z     vdW  Elec       q    Type
REMARK                         _______ _______ _______ _____ _____    ______ ____
ROOT
ATOM      1  C   UNL     1      43.249   5.301  12.392  0.00  0.00    +0.000 C 
ENDROOT
BRANCH   1   2
ATOM      2  C   UNL     1      44.711   5.410  12.738  0.00  0.00    +0.000 A 
ATOM      3  C   UNL     1      45.331   4.429  13.502  0.00  0.00    +0.000 A 
ATOM      4  N   UNL     1      46.624   4.477  13.874  0.00  0.00    +0.000 NA
ATOM      5  C   UNL     1      47.338   5.552  13.461  0.00  0.00    +0.000 A 
ATOM      6  C   UNL     1      46.837   6.617  12.705  0.00  0.00    +0.000 A 
ATOM      7  C   UNL     1      45.480   6.519  12.354  0.00  0.00    +0.000 A 
BRANCH   6   8
ATOM      8  C   UNL     1      47.692   7.755  12.297  0.00  0.00    +0.000 A 
ATOM      9  C   UNL     1      49.045   7.567  11.938  0.00  0.00    +0.000 A 
ATOM     10  C   UNL     1      49.845   8.628  11.498  0.00  0.00    +0.000 A 
ATOM     11  C   UNL     1      49.307   9.905  11.426  0.00  0.00    +0.000 A 
ATOM     12  F   UNL     1      50.070  10.919  10.999  0.00  0.00    +0.000 F 
ATOM     13  C   UNL     1      47.988  10.123  11.793  0.00  0.00    +0.000 A 
ATOM     14  F   UNL     1      47.467  11.357  11.731  0.00  0.00    +0.000 F 
ATOM     15  C   UNL     1      47.185   9.066  12.222  0.00  0.00    +0.000 A 
ENDBRANCH   6   8
ENDBRANCH   1   2
BRANCH   1  16
ATOM     16  C   UNL     1      43.034   4.345  11.217  0.00  0.00    +0.000 C 
BRANCH  16  17
ATOM     17  N   UNL     1      43.719   4.824  10.020  0.00  0.00    +0.000 N 
ATOM     18  H   UNL     1      43.162   5.420   9.410  0.00  0.00    +0.000 HD
BRANCH  17  22
ATOM     19  C   UNL     1      46.340   2.288   7.887  0.00  0.00    +0.000 A 
ATOM     20  C   UNL     1      45.438   1.736   8.798  0.00  0.00    +0.000 A 
ATOM     21  C   UNL     1      44.557   2.563   9.503  0.00  0.00    +0.000 A 
ATOM     22  C   UNL     1      44.531   3.947   9.294  0.00  0.00    +0.000 A 
ATOM     23  C   UNL     1      45.465   4.489   8.397  0.00  0.00    +0.000 A 
ATOM     24  C   UNL     1      46.365   3.671   7.701  0.00  0.00    +0.000 A 
BRANCH  19  26
ATOM     25  N   UNL     1      48.379   2.069   6.577  0.00  0.00    +0.000 N 
ATOM     26  C   UNL     1      47.301   1.441   7.139  0.00  0.00    +0.000 C 
ATOM     27  O   UNL     1      47.161   0.229   7.051  0.00  0.00    +0.000 OA
ATOM     28  H   UNL     1      49.080   1.470   6.161  0.00  0.00    +0.000 HD
ATOM     29  H   UNL     1      48.655   3.006   6.837  0.00  0.00    +0.000 HD
ENDBRANCH  19  26
ENDBRANCH  17  22
ENDBRANCH  16  17
ENDBRANCH   1  16
TORSDOF 6
ENDMDL
MODEL 2
REMARK VINA RESULT:    -8.598      3.511      4.486
REMARK INTER + INTRA:         -12.556
REMARK INTER:                 -11.722
REMARK INTRA:                  -0.833
REMARK UNBOUND:                -0.943
REMARK  Name = 
REMARK  6 active torsions:
REMARK  status: ('A' for Active; 'I' for Inactive)
REMARK    1  A    between atoms: C_2  and  C_4
REMARK    2  A    between atoms: C_7  and  N_8
REMARK    3  A    between atoms: N_8  and  C_9
REMARK    4  A    between atoms: C_9  and  C_10
REMARK    5  A    between atoms: C_10  and  C_11
REMARK    6  A    between atoms: C_15  and  C_16
REMARK                            x       y       z     vdW  Elec       q    Type
REMARK                         _______ _______ _______ _____ _____    ______ ____
ROOT
ATOM      1  C   UNL     1      43.910   6.130  11.985  0.00  0.00    +0.000 C 
ENDROOT
BRANCH   1   2
ATOM      2  C   UNL     1      45.357   6.178  12.402  0.00  0.00    +0.000 A 
ATOM      3  C   UNL     1      46.322   6.693  11.546  0.00  0.00    +0.000 A 
ATOM      4  N   UNL     1      47.634   6.740  11.840  0.00  0.00    +0.000 NA
ATOM      5  C   UNL     1      48.006   6.253  13.048  0.00  0.00    +0.000 A 
ATOM      6  C   UNL     1      47.145   5.691  13.997  0.00  0.00    +0.000 A 
ATOM      7  C   UNL     1      45.789   5.660  13.633  0.00  0.00    +0.000 A 
BRANCH   6   8
ATOM      8  C   UNL     1      47.640   5.183  15.296  0.00  0.00    +0.000 A 
ATOM      9  C   UNL     1      48.632   5.873  16.027  0.00  0.00    +0.000 A 
ATOM     10  C   UNL     1      49.066   5.429  17.282  0.00  0.00    +0.000 A 
ATOM     11  C   UNL     1      48.524   4.271  17.822  0.00  0.00    +0.000 A 
ATOM     12  F   UNL     1      48.934   3.850  19.025  0.00  0.00    +0.000 F 
ATOM     13  C   UNL     1      47.565   3.561  17.117  0.00  0.00    +0.000 A 
ATOM     14  F   UNL     1      47.044   2.439  17.633  0.00  0.00    +0.000 F 
ATOM     15  C   UNL     1      47.123   4.006  15.871  0.00  0.00    +0.000 A 
ENDBRANCH   6   8
ENDBRANCH   1   2
BRANCH   1  16
ATOM     16  C   UNL     1      43.586   4.809  11.285  0.00  0.00    +0.000 C 
BRANCH  16  17
ATOM     17  N   UNL     1      43.750   4.929   9.839  0.00  0.00    +0.000 N 
ATOM     18  H   UNL     1      42.899   5.142   9.322  0.00  0.00    +0.000 HD
BRANCH  17  22
ATOM     19  C   UNL     1      46.361   2.269   7.848  0.00  0.00    +0.000 A 
ATOM     20  C   UNL     1      45.427   1.766   8.756  0.00  0.00    +0.000 A 
ATOM     21  C   UNL     1      44.549   2.634   9.413  0.00  0.00    +0.000 A 
ATOM     22  C   UNL     1      44.559   4.011   9.160  0.00  0.00    +0.000 A 
ATOM     23  C   UNL     1      45.524   4.504   8.267  0.00  0.00    +0.000 A 
ATOM     24  C   UNL     1      46.421   3.644   7.618  0.00  0.00    +0.000 A 
BRANCH  19  26
ATOM     25  N   UNL     1      48.353   1.975   6.481  0.00  0.00    +0.000 N 
ATOM     26  C   UNL     1      47.319   1.377   7.149  0.00  0.00    +0.000 C 
ATOM     27  O   UNL     1      47.216   0.159   7.191  0.00  0.00    +0.000 OA
ATOM     28  H   UNL     1      49.056   1.357   6.099  0.00  0.00    +0.000 HD
ATOM     29  H   UNL     1      48.607   2.942   6.633  0.00  0.00    +0.000 HD
ENDBRANCH  19  26
ENDBRANCH  17  22
ENDBRANCH  16  17
ENDBRANCH   1  16
TORSDOF 6
ENDMDL
MODEL 3
REMARK VINA RESULT:    -8.458      1.163      1.758
REMARK INTER + INTRA:         -12.368
REMARK INTER:                 -11.436
REMARK INTRA:                  -0.932
REMARK UNBOUND:                -0.943
REMARK  Name = 
REMARK  6 active torsions:
REMARK  status: ('A' for Active; 'I' for Inactive)
REMARK    1  A    between atoms: C_2  and  C_4
REMARK    2  A    between atoms: C_7  and  N_8
REMARK    3  A    between atoms: N_8  and  C_9
REMARK    4  A    between atoms: C_9  and  C_10
REMARK    5  A    between atoms: C_10  and  C_11
REMARK    6  A    between atoms: C_15  and  C_16
REMARK                            x       y       z     vdW  Elec       q    Type
REMARK                         _______ _______ _______ _____ _____    ______ ____
ROOT
ATOM      1  C   UNL     1      44.841   4.801  12.246  0.00  0.00    +0.000 C 
ENDROOT
BRANCH   1   2
ATOM      2  C   UNL     1      46.112   5.354  12.836  0.00  0.00    +0.000 A 
ATOM      3  C   UNL     1      46.592   4.880  14.050  0.00  0.00    +0.000 A 
ATOM      4  N   UNL     1      47.703   5.348  14.649  0.00  0.00    +0.000 NA
ATOM      5  C   UNL     1      48.373   6.335  14.007  0.00  0.00    +0.000 A 
ATOM      6  C   UNL     1      47.993   6.916  12.792  0.00  0.00    +0.000 A 
ATOM      7  C   UNL     1      46.822   6.395  12.217  0.00  0.00    +0.000 A 
BRANCH   6   8
ATOM      8  C   UNL     1      48.788   7.993  12.159  0.00  0.00    +0.000 A 
ATOM      9  C   UNL     1      48.269   9.298  12.007  0.00  0.00    +0.000 A 
ATOM     10  C   UNL     1      49.033  10.336  11.459  0.00  0.00    +0.000 A 
ATOM     11  C   UNL     1      50.329  10.080  11.037  0.00  0.00    +0.000 A 
ATOM     12  F   UNL     1      51.062  11.074  10.519  0.00  0.00    +0.000 F 
ATOM     13  C   UNL     1      50.857   8.803  11.153  0.00  0.00    +0.000 A 
ATOM     14  F   UNL     1      52.107   8.551  10.740  0.00  0.00    +0.000 F 
ATOM     15  C   UNL     1      50.102   7.769  11.707  0.00  0.00    +0.000 A 
ENDBRANCH   6   8
ENDBRANCH   1   2
BRANCH   1  16
ATOM     16  C   UNL     1      44.384   5.636  11.049  0.00  0.00    +0.000 C 
BRANCH  16  17
ATOM     17  N   UNL     1      43.771   4.793  10.026  0.00  0.00    +0.000 N 
ATOM     18  H   UNL     1      42.888   4.361  10.293  0.00  0.00    +0.000 HD
BRANCH  17  22
ATOM     19  C   UNL     1      46.364   2.282   7.830  0.00  0.00    +0.000 A 
ATOM     20  C   UNL     1      45.453   1.718   8.725  0.00  0.00    +0.000 A 
ATOM     21  C   UNL     1      44.582   2.536   9.450  0.00  0.00    +0.000 A 
ATOM     22  C   UNL     1      44.573   3.925   9.278  0.00  0.00    +0.000 A 
ATOM     23  C   UNL     1      45.515   4.480   8.397  0.00  0.00    +0.000 A 
ATOM     24  C   UNL     1      46.406   3.669   7.681  0.00  0.00    +0.000 A 
BRANCH  19  26
ATOM     25  N   UNL     1      48.414   2.069   6.536  0.00  0.00    +0.000 N 
ATOM     26  C   UNL     1      47.316   1.443   7.061  0.00  0.00    +0.000 C 
ATOM     27  O   UNL     1      47.150   0.239   6.925  0.00  0.00    +0.000 OA
ATOM     28  H   UNL     1      49.106   1.471   6.106  0.00  0.00    +0.000 HD
ATOM     29  H   UNL     1      48.706   2.989   6.835  0.00  0.00    +0.000 HD
ENDBRANCH  19  26
ENDBRANCH  17  22
ENDBRANCH  16  17
ENDBRANCH   1  16
TORSDOF 6
ENDMDL
MODEL 4
REMARK VINA RESULT:    -8.272      4.372      7.503
REMARK INTER + INTRA:         -12.116
REMARK INTER:                 -11.364
REMARK INTRA:                  -0.752
REMARK UNBOUND:                -0.943
REMARK  Name = 
REMARK  6 active torsions:
REMARK  status: ('A' for Active; 'I' for Inactive)
REMARK    1  A    between atoms: C_2  and  C_4
REMARK    2  A    between atoms: C_7  and  N_8
REMARK    3  A    between atoms: N_8  and  C_9
REMARK    4  A    between atoms: C_9  and  C_10
REMARK    5  A    between atoms: C_10  and  C_11
REMARK    6  A    between atoms: C_15  and  C_16
REMARK                            x       y       z     vdW  Elec       q    Type
REMARK                         _______ _______ _______ _____ _____    ______ ____
ROOT
ATOM      1  C   UNL     1      45.754   7.663  12.126  0.00  0.00    +0.000 C 
ENDROOT
BRANCH   1   2
ATOM      2  C   UNL     1      45.020   6.542  11.438  0.00  0.00    +0.000 A 
ATOM      3  C   UNL     1      43.697   6.266  11.754  0.00  0.00    +0.000 A 
ATOM      4  N   UNL     1      42.989   5.263  11.201  0.00  0.00    +0.000 NA
ATOM      5  C   UNL     1      43.630   4.498  10.285  0.00  0.00    +0.000 A 
ATOM      6  C   UNL     1      44.962   4.653   9.887  0.00  0.00    +0.000 A 
ATOM      7  C   UNL     1      45.654   5.709  10.502  0.00  0.00    +0.000 A 
BRANCH   6   8
ATOM      8  C   UNL     1      45.582   3.769   8.874  0.00  0.00    +0.000 A 
ATOM      9  C   UNL     1      46.298   4.296   7.776  0.00  0.00    +0.000 A 
ATOM     10  C   UNL     1      46.934   3.467   6.845  0.00  0.00    +0.000 A 
ATOM     11  C   UNL     1      46.851   2.090   6.987  0.00  0.00    +0.000 A 
ATOM     12  F   UNL     1      47.465   1.297   6.100  0.00  0.00    +0.000 F 
ATOM     13  C   UNL     1      46.137   1.544   8.042  0.00  0.00    +0.000 A 
ATOM     14  F   UNL     1      46.049   0.213   8.179  0.00  0.00    +0.000 F 
ATOM     15  C   UNL     1      45.510   2.367   8.978  0.00  0.00    +0.000 A 
ENDBRANCH   6   8
ENDBRANCH   1   2
BRANCH   1  16
ATOM     16  C   UNL     1      47.268   7.457  12.046  0.00  0.00    +0.000 C 
BRANCH  16  17
ATOM     17  N   UNL     1      47.881   7.562  13.367  0.00  0.00    +0.000 N 
ATOM     18  H   UNL     1      48.781   8.038  13.391  0.00  0.00    +0.000 HD
BRANCH  17  22
ATOM     19  C   UNL     1      47.721   4.365  16.126  0.00  0.00    +0.000 A 
ATOM     20  C   UNL     1      47.061   4.251  14.900  0.00  0.00    +0.000 A 
ATOM     21  C   UNL     1      47.115   5.297  13.973  0.00  0.00    +0.000 A 
ATOM     22  C   UNL     1      47.850   6.460  14.229  0.00  0.00    +0.000 A 
ATOM     23  C   UNL     1      48.483   6.572  15.478  0.00  0.00    +0.000 A 
ATOM     24  C   UNL     1      48.418   5.538  16.421  0.00  0.00    +0.000 A 
BRANCH  19  26
ATOM     25  N   UNL     1      48.856   2.867  17.671  0.00  0.00    +0.000 N 
ATOM     26  C   UNL     1      47.666   3.282  17.139  0.00  0.00    +0.000 C 
ATOM     27  O   UNL     1      46.605   2.800  17.511  0.00  0.00    +0.000 OA
ATOM     28  H   UNL     1      48.798   2.205  18.434  0.00  0.00    +0.000 HD
ATOM     29  H   UNL     1      49.707   3.404  17.577  0.00  0.00    +0.000 HD
ENDBRANCH  19  26
ENDBRANCH  17  22
ENDBRANCH  16  17
ENDBRANCH   1  16
TORSDOF 6
ENDMDL
MODEL 5
REMARK VINA RESULT:    -8.090      4.133      7.126
REMARK INTER + INTRA:         -11.870
REMARK INTER:                 -10.941
REMARK INTRA:                  -0.929
REMARK UNBOUND:                -0.943
REMARK  Name = 
REMARK  6 active torsions:
REMARK  status: ('A' for Active; 'I' for Inactive)
REMARK    1  A    between atoms: C_2  and  C_4
REMARK    2  A    between atoms: C_7  and  N_8
REMARK    3  A    between atoms: N_8  and  C_9
REMARK    4  A    between atoms: C_9  and  C_10
REMARK    5  A    between atoms: C_10  and  C_11
REMARK    6  A    between atoms: C_15  and  C_16
REMARK                            x       y       z     vdW  Elec       q    Type
REMARK                         _______ _______ _______ _____ _____    ______ ____
ROOT
ATOM      1  C   UNL     1      42.889   6.545  11.317  0.00  0.00    +0.000 C 
ENDROOT
BRANCH   1   2
ATOM      2  C   UNL     1      43.285   5.113  11.071  0.00  0.00    +0.000 A 
ATOM      3  C   UNL     1      42.863   4.106  11.929  0.00  0.00    +0.000 A 
ATOM      4  N   UNL     1      43.203   2.811  11.788  0.00  0.00    +0.000 NA
ATOM      5  C   UNL     1      44.000   2.501  10.737  0.00  0.00    +0.000 A 
ATOM      6  C   UNL     1      44.511   3.414   9.809  0.00  0.00    +0.000 A 
ATOM      7  C   UNL     1      44.131   4.752  10.011  0.00  0.00    +0.000 A 
BRANCH   6   8
ATOM      8  C   UNL     1      45.377   2.986   8.687  0.00  0.00    +0.000 A 
ATOM      9  C   UNL     1      45.845   3.909   7.725  0.00  0.00    +0.000 A 
ATOM     10  C   UNL     1      46.709   3.523   6.693  0.00  0.00    +0.000 A 
ATOM     11  C   UNL     1      47.107   2.198   6.595  0.00  0.00    +0.000 A 
ATOM     12  F   UNL     1      47.938   1.830   5.612  0.00  0.00    +0.000 F 
ATOM     13  C   UNL     1      46.646   1.266   7.512  0.00  0.00    +0.000 A 
ATOM     14  F   UNL     1      47.024  -0.016   7.416  0.00  0.00    +0.000 F 
ATOM     15  C   UNL     1      45.793   1.649   8.548  0.00  0.00    +0.000 A 
ENDBRANCH   6   8
ENDBRANCH   1   2
BRANCH   1  16
ATOM     16  C   UNL     1      44.113   7.463  11.301  0.00  0.00    +0.000 C 
BRANCH  16  17
ATOM     17  N   UNL     1      44.891   7.319  12.527  0.00  0.00    +0.000 N 
ATOM     18  H   UNL     1      44.453   7.697  13.366  0.00  0.00    +0.000 HD
BRANCH  17  22
ATOM     19  C   UNL     1      49.071   7.904  12.313  0.00  0.00    +0.000 A 
ATOM     20  C   UNL     1      48.212   8.983  12.094  0.00  0.00    +0.000 A 
ATOM     21  C   UNL     1      46.828   8.806  12.173  0.00  0.00    +0.000 A 
ATOM     22  C   UNL     1      46.269   7.566  12.502  0.00  0.00    +0.000 A 
ATOM     23  C   UNL     1      47.144   6.484  12.690  0.00  0.00    +0.000 A 
ATOM     24  C   UNL     1      48.532   6.647  12.593  0.00  0.00    +0.000 A 
BRANCH  19  26
ATOM     25  N   UNL     1      51.239   8.140  13.392  0.00  0.00    +0.000 N 
ATOM     26  C   UNL     1      50.544   8.054  12.217  0.00  0.00    +0.000 C 
ATOM     27  O   UNL     1      51.122   8.067  11.139  0.00  0.00    +0.000 OA
ATOM     28  H   UNL     1      52.247   8.136  13.317  0.00  0.00    +0.000 HD
ATOM     29  H   UNL     1      50.832   7.885  14.281  0.00  0.00    +0.000 HD
ENDBRANCH  19  26
ENDBRANCH  17  22
ENDBRANCH  16  17
ENDBRANCH   1  16
TORSDOF 6
ENDMDL
MODEL 6
REMARK VINA RESULT:    -8.044      1.973      2.401
REMARK INTER + INTRA:         -11.808
REMARK INTER:                 -11.353
REMARK INTRA:                  -0.455
REMARK UNBOUND:                -0.943
REMARK  Name = 
REMARK  6 active torsions:
REMARK  status: ('A' for Active; 'I' for Inactive)
REMARK    1  A    between atoms: C_2  and  C_4
REMARK    2  A    between atoms: C_7  and  N_8
REMARK    3  A    between atoms: N_8  and  C_9
REMARK    4  A    between atoms: C_9  and  C_10
REMARK    5  A    between atoms: C_10  and  C_11
REMARK    6  A    between atoms: C_15  and  C_16
REMARK                            x       y       z     vdW  Elec       q    Type
REMARK                         _______ _______ _______ _____ _____    ______ ____
ROOT
ATOM      1  C   UNL     1      43.612   3.814  12.814  0.00  0.00    +0.000 C 
ENDROOT
BRANCH   1   2
ATOM      2  C   UNL     1      44.219   5.141  12.442  0.00  0.00    +0.000 A 
ATOM      3  C   UNL     1      43.464   6.103  11.781  0.00  0.00    +0.000 A 
ATOM      4  N   UNL     1      43.949   7.297  11.393  0.00  0.00    +0.000 NA
ATOM      5  C   UNL     1      45.249   7.550  11.678  0.00  0.00    +0.000 A 
ATOM      6  C   UNL     1      46.125   6.668  12.320  0.00  0.00    +0.000 A 
ATOM      7  C   UNL     1      45.568   5.434  12.695  0.00  0.00    +0.000 A 
BRANCH   6   8
ATOM      8  C   UNL     1      47.535   7.029  12.594  0.00  0.00    +0.000 A 
ATOM      9  C   UNL     1      48.338   7.653  11.613  0.00  0.00    +0.000 A 
ATOM     10  C   UNL     1      49.654   8.047  11.881  0.00  0.00    +0.000 A 
ATOM     11  C   UNL     1      50.198   7.806  13.135  0.00  0.00    +0.000 A 
ATOM     12  F   UNL     1      51.455   8.189  13.393  0.00  0.00    +0.000 F 
ATOM     13  C   UNL     1      49.440   7.175  14.109  0.00  0.00    +0.000 A 
ATOM     14  F   UNL     1      49.965   6.935  15.319  0.00  0.00    +0.000 F 
ATOM     15  C   UNL     1      48.125   6.790  13.849  0.00  0.00    +0.000 A 
ENDBRANCH   6   8
ENDBRANCH   1   2
BRANCH   1  16
ATOM     16  C   UNL     1      43.535   2.887  11.599  0.00  0.00    +0.000 C 
BRANCH  16  17
ATOM     17  N   UNL     1      43.606   3.647  10.355  0.00  0.00    +0.000 N 
ATOM     18  H   UNL     1      42.707   3.903   9.950  0.00  0.00    +0.000 HD
BRANCH  17  22
ATOM     19  C   UNL     1      46.544   2.676   7.477  0.00  0.00    +0.000 A 
ATOM     20  C   UNL     1      45.964   1.660   8.240  0.00  0.00    +0.000 A 
ATOM     21  C   UNL     1      44.983   1.966   9.188  0.00  0.00    +0.000 A 
ATOM     22  C   UNL     1      44.535   3.278   9.375  0.00  0.00    +0.000 A 
ATOM     23  C   UNL     1      45.148   4.292   8.622  0.00  0.00    +0.000 A 
ATOM     24  C   UNL     1      46.147   3.998   7.684  0.00  0.00    +0.000 A 
BRANCH  19  26
ATOM     25  N   UNL     1      47.651   3.192   5.372  0.00  0.00    +0.000 N 
ATOM     26  C   UNL     1      47.602   2.387   6.478  0.00  0.00    +0.000 C 
ATOM     27  O   UNL     1      48.418   1.491   6.643  0.00  0.00    +0.000 OA
ATOM     28  H   UNL     1      48.438   3.053   4.753  0.00  0.00    +0.000 HD
ATOM     29  H   UNL     1      47.165   4.077   5.326  0.00  0.00    +0.000 HD
ENDBRANCH  19  26
ENDBRANCH  17  22
ENDBRANCH  16  17
ENDBRANCH   1  16
TORSDOF 6
ENDMDL
MODEL 7
REMARK VINA RESULT:    -7.804      4.712      8.003
REMARK INTER + INTRA:         -11.484
REMARK INTER:                 -10.933
REMARK INTRA:                  -0.550
REMARK UNBOUND:                -0.943
REMARK  Name = 
REMARK  6 active torsions:
REMARK  status: ('A' for Active; 'I' for Inactive)
REMARK    1  A    between atoms: C_2  and  C_4
REMARK    2  A    between atoms: C_7  and  N_8
REMARK    3  A    between atoms: N_8  and  C_9
REMARK    4  A    between atoms: C_9  and  C_10
REMARK    5  A    between atoms: C_10  and  C_11
REMARK    6  A    between atoms: C_15  and  C_16
REMARK                            x       y       z     vdW  Elec       q    Type
REMARK                         _______ _______ _______ _____ _____    ______ ____
ROOT
ATOM      1  C   UNL     1      44.888   6.287  12.852  0.00  0.00    +0.000 C 
ENDROOT
BRANCH   1   2
ATOM      2  C   UNL     1      44.491   5.081  12.042  0.00  0.00    +0.000 A 
ATOM      3  C   UNL     1      43.425   4.283  12.439  0.00  0.00    +0.000 A 
ATOM      4  N   UNL     1      43.034   3.176  11.781  0.00  0.00    +0.000 NA
ATOM      5  C   UNL     1      43.735   2.848  10.669  0.00  0.00    +0.000 A 
ATOM      6  C   UNL     1      44.836   3.549  10.168  0.00  0.00    +0.000 A 
ATOM      7  C   UNL     1      45.206   4.691  10.899  0.00  0.00    +0.000 A 
BRANCH   6   8
ATOM      8  C   UNL     1      45.545   3.118   8.941  0.00  0.00    +0.000 A 
ATOM      9  C   UNL     1      45.977   4.053   7.974  0.00  0.00    +0.000 A 
ATOM     10  C   UNL     1      46.696   3.659   6.839  0.00  0.00    +0.000 A 
ATOM     11  C   UNL     1      46.980   2.315   6.642  0.00  0.00    +0.000 A 
ATOM     12  F   UNL     1      47.673   1.939   5.559  0.00  0.00    +0.000 F 
ATOM     13  C   UNL     1      46.549   1.374   7.563  0.00  0.00    +0.000 A 
ATOM     14  F   UNL     1      46.816   0.074   7.373  0.00  0.00    +0.000 F 
ATOM     15  C   UNL     1      45.841   1.763   8.701  0.00  0.00    +0.000 A 
ENDBRANCH   6   8
ENDBRANCH   1   2
BRANCH   1  16
ATOM     16  C   UNL     1      46.406   6.483  12.834  0.00  0.00    +0.000 C 
BRANCH  16  17
ATOM     17  N   UNL     1      47.095   5.272  13.266  0.00  0.00    +0.000 N 
ATOM     18  H   UNL     1      46.725   4.402  12.885  0.00  0.00    +0.000 HD
BRANCH  17  22
ATOM     19  C   UNL     1      48.319   4.671  17.266  0.00  0.00    +0.000 A 
ATOM     20  C   UNL     1      48.682   5.846  16.604  0.00  0.00    +0.000 A 
ATOM     21  C   UNL     1      48.275   6.062  15.284  0.00  0.00    +0.000 A 
ATOM     22  C   UNL     1      47.473   5.136  14.607  0.00  0.00    +0.000 A 
ATOM     23  C   UNL     1      47.142   3.947  15.276  0.00  0.00    +0.000 A 
ATOM     24  C   UNL     1      47.562   3.712  16.592  0.00  0.00    +0.000 A 
BRANCH  19  26
ATOM     25  N   UNL     1      48.278   3.263  19.250  0.00  0.00    +0.000 N 
ATOM     26  C   UNL     1      48.752   4.402  18.659  0.00  0.00    +0.000 C 
ATOM     27  O   UNL     1      49.525   5.145  19.250  0.00  0.00    +0.000 OA
ATOM     28  H   UNL     1      48.662   3.036  20.158  0.00  0.00    +0.000 HD
ATOM     29  H   UNL     1      47.852   2.516  18.719  0.00  0.00    +0.000 HD
ENDBRANCH  19  26
ENDBRANCH  17  22
ENDBRANCH  16  17
ENDBRANCH   1  16
TORSDOF 6
ENDMDL
MODEL 8
REMARK VINA RESULT:    -7.486      4.266      7.240
REMARK INTER + INTRA:         -11.055
REMARK INTER:                 -10.197
REMARK INTRA:                  -0.857
REMARK UNBOUND:                -0.943
REMARK  Name = 
REMARK  6 active torsions:
REMARK  status: ('A' for Active; 'I' for Inactive)
REMARK    1  A    between atoms: C_2  and  C_4
REMARK    2  A    between atoms: C_7  and  N_8
REMARK    3  A    between atoms: N_8  and  C_9
REMARK    4  A    between atoms: C_9  and  C_10
REMARK    5  A    between atoms: C_10  and  C_11
REMARK    6  A    between atoms: C_15  and  C_16
REMARK                            x       y       z     vdW  Elec       q    Type
REMARK                         _______ _______ _______ _____ _____    ______ ____
ROOT
ATOM      1  C   UNL     1      44.621   7.283  12.073  0.00  0.00    +0.000 C 
ENDROOT
BRANCH   1   2
ATOM      2  C   UNL     1      44.332   5.891  11.578  0.00  0.00    +0.000 A 
ATOM      3  C   UNL     1      43.363   5.109  12.194  0.00  0.00    +0.000 A 
ATOM      4  N   UNL     1      43.073   3.848  11.825  0.00  0.00    +0.000 NA
ATOM      5  C   UNL     1      43.780   3.338  10.787  0.00  0.00    +0.000 A 
ATOM      6  C   UNL     1      44.793   4.006  10.090  0.00  0.00    +0.000 A 
ATOM      7  C   UNL     1      45.059   5.315  10.525  0.00  0.00    +0.000 A 
BRANCH   6   8
ATOM      8  C   UNL     1      45.515   3.371   8.965  0.00  0.00    +0.000 A 
ATOM      9  C   UNL     1      46.084   4.143   7.927  0.00  0.00    +0.000 A 
ATOM     10  C   UNL     1      46.816   3.555   6.888  0.00  0.00    +0.000 A 
ATOM     11  C   UNL     1      46.977   2.177   6.860  0.00  0.00    +0.000 A 
ATOM     12  F   UNL     1      47.683   1.616   5.870  0.00  0.00    +0.000 F 
ATOM     13  C   UNL     1      46.411   1.393   7.853  0.00  0.00    +0.000 A 
ATOM     14  F   UNL     1      46.560   0.061   7.826  0.00  0.00    +0.000 F 
ATOM     15  C   UNL     1      45.690   1.976   8.896  0.00  0.00    +0.000 A 
ENDBRANCH   6   8
ENDBRANCH   1   2
BRANCH   1  16
ATOM     16  C   UNL     1      45.811   7.287  13.036  0.00  0.00    +0.000 C 
BRANCH  16  17
ATOM     17  N   UNL     1      46.545   8.545  12.955  0.00  0.00    +0.000 N 
ATOM     18  H   UNL     1      46.009   9.340  12.610  0.00  0.00    +0.000 HD
BRANCH  17  22
ATOM     19  C   UNL     1      50.454   8.380  11.357  0.00  0.00    +0.000 A 
ATOM     20  C   UNL     1      49.728   9.570  11.279  0.00  0.00    +0.000 A 
ATOM     21  C   UNL     1      48.437   9.642  11.813  0.00  0.00    +0.000 A 
ATOM     22  C   UNL     1      47.856   8.548  12.464  0.00  0.00    +0.000 A 
ATOM     23  C   UNL     1      48.587   7.350  12.508  0.00  0.00    +0.000 A 
ATOM     24  C   UNL     1      49.873   7.262  11.957  0.00  0.00    +0.000 A 
BRANCH  19  26
ATOM     25  N   UNL     1      52.388   7.022  10.779  0.00  0.00    +0.000 N 
ATOM     26  C   UNL     1      51.817   8.265  10.782  0.00  0.00    +0.000 C 
ATOM     27  O   UNL     1      52.397   9.228  10.300  0.00  0.00    +0.000 OA
ATOM     28  H   UNL     1      53.270   6.936  10.291  0.00  0.00    +0.000 HD
ATOM     29  H   UNL     1      51.852   6.180  10.934  0.00  0.00    +0.000 HD
ENDBRANCH  19  26
ENDBRANCH  17  22
ENDBRANCH  16  17
ENDBRANCH   1  16
TORSDOF 6
ENDMDL
MODEL 9
REMARK VINA RESULT:    -7.355      4.457      7.688
REMARK INTER + INTRA:         -10.878
REMARK INTER:                  -9.746
REMARK INTRA:                  -1.132
REMARK UNBOUND:                -0.943
REMARK  Name = 
REMARK  6 active torsions:
REMARK  status: ('A' for Active; 'I' for Inactive)
REMARK    1  A    between atoms: C_2  and  C_4
REMARK    2  A    between atoms: C_7  and  N_8
REMARK    3  A    between atoms: N_8  and  C_9
REMARK    4  A    between atoms: C_9  and  C_10
REMARK    5  A    between atoms: C_10  and  C_11
REMARK    6  A    between atoms: C_15  and  C_16
REMARK                            x       y       z     vdW  Elec       q    Type
REMARK                         _______ _______ _______ _____ _____    ______ ____
ROOT
ATOM      1  C   UNL     1      49.036   8.552  12.163  0.00  0.00    +0.000 C 
ENDROOT
BRANCH   1   2
ATOM      2  C   UNL     1      47.584   8.159  12.085  0.00  0.00    +0.000 A 
ATOM      3  C   UNL     1      46.611   8.920  12.720  0.00  0.00    +0.000 A 
ATOM      4  N   UNL     1      45.301   8.611  12.718  0.00  0.00    +0.000 NA
ATOM      5  C   UNL     1      44.939   7.491  12.047  0.00  0.00    +0.000 A 
ATOM      6  C   UNL     1      45.814   6.626  11.381  0.00  0.00    +0.000 A 
ATOM      7  C   UNL     1      47.170   6.992  11.424  0.00  0.00    +0.000 A 
BRANCH   6   8
ATOM      8  C   UNL     1      45.330   5.420  10.671  0.00  0.00    +0.000 A 
ATOM      9  C   UNL     1      45.658   5.182   9.318  0.00  0.00    +0.000 A 
ATOM     10  C   UNL     1      45.250   4.018   8.655  0.00  0.00    +0.000 A 
ATOM     11  C   UNL     1      44.490   3.076   9.332  0.00  0.00    +0.000 A 
ATOM     12  F   UNL     1      44.106   1.960   8.700  0.00  0.00    +0.000 F 
ATOM     13  C   UNL     1      44.134   3.294  10.654  0.00  0.00    +0.000 A 
ATOM     14  F   UNL     1      43.394   2.389  11.310  0.00  0.00    +0.000 F 
ATOM     15  C   UNL     1      44.547   4.448  11.321  0.00  0.00    +0.000 A 
ENDBRANCH   6   8
ENDBRANCH   1   2
BRANCH   1  16
ATOM     16  C   UNL     1      49.808   7.619  13.098  0.00  0.00    +0.000 C 
BRANCH  16  17
ATOM     17  N   UNL     1      49.366   7.782  14.480  0.00  0.00    +0.000 N 
ATOM     18  H   UNL     1      49.947   8.392  15.053  0.00  0.00    +0.000 HD
BRANCH  17  22
ATOM     19  C   UNL     1      47.967   4.540  16.802  0.00  0.00    +0.000 A 
ATOM     20  C   UNL     1      47.460   4.735  15.515  0.00  0.00    +0.000 A 
ATOM     21  C   UNL     1      47.923   5.797  14.732  0.00  0.00    +0.000 A 
ATOM     22  C   UNL     1      48.918   6.665  15.195  0.00  0.00    +0.000 A 
ATOM     23  C   UNL     1      49.395   6.474  16.502  0.00  0.00    +0.000 A 
ATOM     24  C   UNL     1      48.924   5.424  17.302  0.00  0.00    +0.000 A 
BRANCH  19  26
ATOM     25  N   UNL     1      48.277   3.075  18.720  0.00  0.00    +0.000 N 
ATOM     26  C   UNL     1      47.483   3.435  17.665  0.00  0.00    +0.000 C 
ATOM     27  O   UNL     1      46.407   2.886  17.470  0.00  0.00    +0.000 OA
ATOM     28  H   UNL     1      47.890   2.395  19.360  0.00  0.00    +0.000 HD
ATOM     29  H   UNL     1      49.031   3.660  19.053  0.00  0.00    +0.000 HD
ENDBRANCH  19  26
ENDBRANCH  17  22
ENDBRANCH  16  17
ENDBRANCH   1  16
TORSDOF 6
ENDMDL
