MODEL 1
REMARK VINA RESULT:    -7.523      0.000      0.000
REMARK INTER + INTRA:         -10.962
REMARK INTER:                 -10.162
REMARK INTRA:                  -0.800
REMARK UNBOUND:                -0.800
REMARK  Name = 
REMARK  6 active torsions:
REMARK  status: ('A' for Active; 'I' for Inactive)
REMARK    1  A    between atoms: C_2  and  C_19
REMARK    2  A    between atoms: N_3  and  C_4
REMARK    3  A    between atoms: C_4  and  C_5
REMARK    4  A    between atoms: C_8  and  C_9
REMARK    5  A    between atoms: C_9  and  N_10
REMARK    6  A    between atoms: N_10  and  C_11
REMARK                            x       y       z     vdW  Elec       q    Type
REMARK                         _______ _______ _______ _____ _____    ______ ____
ROOT
ATOM      1  C   UNL     1      45.989   4.560  14.721  0.00  0.00    +0.000 C 
ENDROOT
BRANCH   1   2
ATOM      2  C   UNL     1      46.212   4.625  13.205  0.00  0.00    +0.000 C 
ATOM      3  C   UNL     1      46.064   6.053  12.654  0.00  0.00    +0.000 C 
ATOM      4  C   UNL     1      46.194   6.091  11.129  0.00  0.00    +0.000 C 
ATOM      5  C   UNL     1      45.196   5.143  10.446  0.00  0.00    +0.000 C 
ATOM      6  C   UNL     1      45.348   3.718  11.005  0.00  0.00    +0.000 C 
ATOM      7  C   UNL     1      45.215   3.683  12.522  0.00  0.00    +0.000 C 
BRANCH   5   8
ATOM      8  C   UNL     1      45.382   5.169   8.911  0.00  0.00    +0.000 C 
BRANCH   8   9
ATOM      9  N   UNL     1      46.228   4.050   8.495  0.00  0.00    +0.000 NA
ATOM     10  H   UNL     1      46.310   3.397   9.276  0.00  0.00    +0.000 HD
BRANCH   9  11
ATOM     11  C   UNL     1      45.769   3.315   7.310  0.00  0.00    +0.000 C 
ATOM     12  C   UNL     1      45.493   1.861   7.739  0.00  0.00    +0.000 C 
ATOM     13  C   UNL     1      46.781   1.060   7.930  0.00  0.00    +0.000 C 
ATOM     14  N   UNL     1      47.581   1.039   6.704  0.00  0.00    +0.000 NA
ATOM     15  C   UNL     1      47.960   2.407   6.334  0.00  0.00    +0.000 C 
ATOM     16  C   UNL     1      46.742   3.306   6.118  0.00  0.00    +0.000 C 
ATOM     17  H   UNL     1      47.028   0.628   5.951  0.00  0.00    +0.000 HD
ENDBRANCH   9  11
ENDBRANCH   8   9
ENDBRANCH   5   8
ENDBRANCH   1   2
BRANCH   1  20
ATOM     18  O   UNL     1      46.504   3.343  17.245  0.00  0.00    +0.000 OA
ATOM     19  C   UNL     1      47.373   4.018  16.705  0.00  0.00    +0.000 C 
ATOM     20  N   UNL     1      47.225   4.575  15.462  0.00  0.00    +0.000 N 
ATOM     21  H   UNL     1      47.946   5.187  15.105  0.00  0.00    +0.000 HD
BRANCH  19  22
ATOM     22  C   UNL     1      48.680   4.246  17.330  0.00  0.00    +0.000 A 
ATOM     23  C   UNL     1      48.947   5.437  17.986  0.00  0.00    +0.000 A 
ATOM     24  S   UNL     1      50.501   5.487  18.691  0.00  0.00    +0.000 S 
ATOM     25  C   UNL     1      50.883   3.936  18.100  0.00  0.00    +0.000 A 
ATOM     26  N   UNL     1      52.092   3.365  18.349  0.00  0.00    +0.000 NA
ATOM     27  C   UNL     1      52.258   2.206  17.805  0.00  0.00    +0.000 A 
ATOM     28  N   UNL     1      51.326   1.564  17.035  0.00  0.00    +0.000 N 
ATOM     29  C   UNL     1      50.076   2.078  16.794  0.00  0.00    +0.000 A 
ATOM     30  O   UNL     1      49.238   1.431  16.173  0.00  0.00    +0.000 OA
ATOM     31  C   UNL     1      49.840   3.388  17.376  0.00  0.00    +0.000 A 
ATOM     32  H   UNL     1      51.511   0.648  16.651  0.00  0.00    +0.000 HD
ENDBRANCH  19  22
ENDBRANCH   1  20
TORSDOF 6
ENDMDL
MODEL 2
REMARK VINA RESULT:    -7.413      2.484      3.255
REMARK INTER + INTRA:         -10.813
REMARK INTER:                  -9.888
REMARK INTRA:                  -0.925
REMARK UNBOUND:                -0.800
REMARK  Name = 
REMARK  6 active torsions:
REMARK  status: ('A' for Active; 'I' for Inactive)
REMARK    1  A    between atoms: C_2  and  C_19
REMARK    2  A    between atoms: N_3  and  C_4
REMARK    3  A    between atoms: C_4  and  C_5
REMARK    4  A    between atoms: C_8  and  C_9
REMARK    5  A    between atoms: C_9  and  N_10
REMARK    6  A    between atoms: N_10  and  C_11
REMARK                            x       y       z     vdW  Elec       q    Type
REMARK                         _______ _______ _______ _____ _____    ______ ____
ROOT
ATOM      1  C   UNL     1      48.382   7.319  13.684  0.00  0.00    +0.000 C 
ENDROOT
BRANCH   1   2
ATOM      2  C   UNL     1      47.629   6.187  12.976  0.00  0.00    +0.000 C 
ATOM      3  C   UNL     1      46.428   6.702  12.165  0.00  0.00    +0.000 C 
ATOM      4  C   UNL     1      45.628   5.556  11.541  0.00  0.00    +0.000 C 
ATOM      5  C   UNL     1      45.170   4.536  12.596  0.00  0.00    +0.000 C 
ATOM      6  C   UNL     1      46.377   4.029  13.404  0.00  0.00    +0.000 C 
ATOM      7  C   UNL     1      47.168   5.171  14.026  0.00  0.00    +0.000 C 
BRANCH   5   8
ATOM      8  C   UNL     1      44.406   3.369  11.930  0.00  0.00    +0.000 C 
BRANCH   8   9
ATOM      9  N   UNL     1      45.167   2.866  10.787  0.00  0.00    +0.000 NA
ATOM     10  H   UNL     1      45.530   1.940  11.021  0.00  0.00    +0.000 HD
BRANCH   9  11
ATOM     11  C   UNL     1      44.428   2.779   9.521  0.00  0.00    +0.000 C 
ATOM     12  C   UNL     1      44.887   1.499   8.799  0.00  0.00    +0.000 C 
ATOM     13  C   UNL     1      46.268   1.656   8.162  0.00  0.00    +0.000 C 
ATOM     14  N   UNL     1      46.288   2.763   7.204  0.00  0.00    +0.000 NA
ATOM     15  C   UNL     1      45.969   4.020   7.889  0.00  0.00    +0.000 C 
ATOM     16  C   UNL     1      44.601   3.977   8.569  0.00  0.00    +0.000 C 
ATOM     17  H   UNL     1      45.592   2.590   6.478  0.00  0.00    +0.000 HD
ENDBRANCH   9  11
ENDBRANCH   8   9
ENDBRANCH   5   8
ENDBRANCH   1   2
BRANCH   1  20
ATOM     18  O   UNL     1      50.330   7.748  15.719  0.00  0.00    +0.000 OA
ATOM     19  C   UNL     1      49.178   7.466  16.028  0.00  0.00    +0.000 C 
ATOM     20  N   UNL     1      48.172   7.315  15.110  0.00  0.00    +0.000 N 
ATOM     21  H   UNL     1      47.261   7.005  15.421  0.00  0.00    +0.000 HD
BRANCH  19  22
ATOM     22  C   UNL     1      48.763   7.317  17.426  0.00  0.00    +0.000 A 
ATOM     23  C   UNL     1      48.207   8.386  18.112  0.00  0.00    +0.000 A 
ATOM     24  S   UNL     1      47.743   7.996  19.708  0.00  0.00    +0.000 S 
ATOM     25  C   UNL     1      48.315   6.400  19.548  0.00  0.00    +0.000 A 
ATOM     26  N   UNL     1      48.223   5.512  20.575  0.00  0.00    +0.000 NA
ATOM     27  C   UNL     1      48.735   4.353  20.326  0.00  0.00    +0.000 A 
ATOM     28  N   UNL     1      49.330   3.999  19.144  0.00  0.00    +0.000 N 
ATOM     29  C   UNL     1      49.405   4.844  18.065  0.00  0.00    +0.000 A 
ATOM     30  O   UNL     1      49.867   4.459  16.994  0.00  0.00    +0.000 OA
ATOM     31  C   UNL     1      48.852   6.168  18.295  0.00  0.00    +0.000 A 
ATOM     32  H   UNL     1      49.697   3.068  19.006  0.00  0.00    +0.000 HD
ENDBRANCH  19  22
ENDBRANCH   1  20
TORSDOF 6
ENDMDL
MODEL 3
REMARK VINA RESULT:    -7.326      2.786      4.008
REMARK INTER + INTRA:         -10.696
REMARK INTER:                  -9.677
REMARK INTRA:                  -1.020
REMARK UNBOUND:                -0.800
REMARK  Name = 
REMARK  6 active torsions:
REMARK  status: ('A' for Active; 'I' for Inactive)
REMARK    1  A    between atoms: C_2  and  C_19
REMARK    2  A    between atoms: N_3  and  C_4
REMARK    3  A    between atoms: C_4  and  C_5
REMARK    4  A    between atoms: C_8  and  C_9
REMARK    5  A    between atoms: C_9  and  N_10
REMARK    6  A    between atoms: N_10  and  C_11
REMARK                            x       y       z     vdW  Elec       q    Type
REMARK                         _______ _______ _______ _____ _____    ______ ____
ROOT
ATOM      1  C   UNL     1      48.212   7.089  13.790  0.00  0.00    +0.000 C 
ENDROOT
BRANCH   1   2
ATOM      2  C   UNL     1      47.498   6.002  12.979  0.00  0.00    +0.000 C 
ATOM      3  C   UNL     1      46.382   6.575  12.090  0.00  0.00    +0.000 C 
ATOM      4  C   UNL     1      45.613   5.472  11.359  0.00  0.00    +0.000 C 
ATOM      5  C   UNL     1      45.044   4.428  12.332  0.00  0.00    +0.000 C 
ATOM      6  C   UNL     1      46.167   3.862  13.220  0.00  0.00    +0.000 C 
ATOM      7  C   UNL     1      46.927   4.961  13.949  0.00  0.00    +0.000 C 
BRANCH   5   8
ATOM      8  C   UNL     1      44.314   3.304  11.561  0.00  0.00    +0.000 C 
BRANCH   8   9
ATOM      9  N   UNL     1      45.180   2.786  10.502  0.00  0.00    +0.000 NA
ATOM     10  H   UNL     1      45.534   1.872  10.790  0.00  0.00    +0.000 HD
BRANCH   9  11
ATOM     11  C   UNL     1      44.556   2.657   9.179  0.00  0.00    +0.000 C 
ATOM     12  C   UNL     1      45.056   1.342   8.553  0.00  0.00    +0.000 C 
ATOM     13  C   UNL     1      46.491   1.454   8.038  0.00  0.00    +0.000 C 
ATOM     14  N   UNL     1      46.616   2.521   7.042  0.00  0.00    +0.000 NA
ATOM     15  C   UNL     1      46.259   3.809   7.645  0.00  0.00    +0.000 C 
ATOM     16  C   UNL     1      44.834   3.812   8.200  0.00  0.00    +0.000 C 
ATOM     17  H   UNL     1      45.985   2.327   6.264  0.00  0.00    +0.000 HD
ENDBRANCH   9  11
ENDBRANCH   8   9
ENDBRANCH   5   8
ENDBRANCH   1   2
BRANCH   1  20
ATOM     18  O   UNL     1      50.420   6.660  15.539  0.00  0.00    +0.000 OA
ATOM     19  C   UNL     1      49.276   6.578  15.971  0.00  0.00    +0.000 C 
ATOM     20  N   UNL     1      48.168   6.839  15.209  0.00  0.00    +0.000 N 
ATOM     21  H   UNL     1      47.250   6.677  15.600  0.00  0.00    +0.000 HD
BRANCH  19  22
ATOM     22  C   UNL     1      48.997   6.238  17.370  0.00  0.00    +0.000 A 
ATOM     23  C   UNL     1      49.273   4.969  17.854  0.00  0.00    +0.000 A 
ATOM     24  S   UNL     1      48.927   4.790  19.516  0.00  0.00    +0.000 S 
ATOM     25  C   UNL     1      48.352   6.388  19.629  0.00  0.00    +0.000 A 
ATOM     26  N   UNL     1      47.890   6.889  20.806  0.00  0.00    +0.000 NA
ATOM     27  C   UNL     1      47.447   8.101  20.735  0.00  0.00    +0.000 A 
ATOM     28  N   UNL     1      47.424   8.858  19.594  0.00  0.00    +0.000 N 
ATOM     29  C   UNL     1      47.921   8.413  18.394  0.00  0.00    +0.000 A 
ATOM     30  O   UNL     1      47.963   9.154  17.416  0.00  0.00    +0.000 OA
ATOM     31  C   UNL     1      48.423   7.050  18.417  0.00  0.00    +0.000 A 
ATOM     32  H   UNL     1      47.079   9.807  19.608  0.00  0.00    +0.000 HD
ENDBRANCH  19  22
ENDBRANCH   1  20
TORSDOF 6
ENDMDL
MODEL 4
REMARK VINA RESULT:    -7.269      3.315      4.543
REMARK INTER + INTRA:         -10.619
REMARK INTER:                  -9.210
REMARK INTRA:                  -1.408
REMARK UNBOUND:                -0.800
REMARK  Name = 
REMARK  6 active torsions:
REMARK  status: ('A' for Active; 'I' for Inactive)
REMARK    1  A    between atoms: C_2  and  C_19
REMARK    2  A    between atoms: N_3  and  C_4
REMARK    3  A    between atoms: C_4  and  C_5
REMARK    4  A    between atoms: C_8  and  C_9
REMARK    5  A    between atoms: C_9  and  N_10
REMARK    6  A    between atoms: N_10  and  C_11
REMARK                            x       y       z     vdW  Elec       q    Type
REMARK                         _______ _______ _______ _____ _____    ______ ____
ROOT
ATOM      1  C   UNL     1      49.048   9.139  14.464  0.00  0.00    +0.000 C 
ENDROOT
BRANCH   1   2
ATOM      2  C   UNL     1      48.171   8.726  13.276  0.00  0.00    +0.000 C 
ATOM      3  C   UNL     1      46.761   8.295  13.713  0.00  0.00    +0.000 C 
ATOM      4  C   UNL     1      45.927   7.794  12.532  0.00  0.00    +0.000 C 
ATOM      5  C   UNL     1      46.630   6.655  11.776  0.00  0.00    +0.000 C 
ATOM      6  C   UNL     1      48.040   7.093  11.346  0.00  0.00    +0.000 C 
ATOM      7  C   UNL     1      48.869   7.587  12.524  0.00  0.00    +0.000 C 
BRANCH   5   8
ATOM      8  C   UNL     1      45.785   6.202  10.563  0.00  0.00    +0.000 C 
BRANCH   8   9
ATOM      9  N   UNL     1      44.364   6.398  10.849  0.00  0.00    +0.000 NA
ATOM     10  H   UNL     1      44.006   7.128  10.230  0.00  0.00    +0.000 HD
BRANCH   9  11
ATOM     11  C   UNL     1      43.519   5.205  10.711  0.00  0.00    +0.000 C 
ATOM     12  C   UNL     1      42.444   5.263  11.813  0.00  0.00    +0.000 C 
ATOM     13  C   UNL     1      43.004   4.899  13.189  0.00  0.00    +0.000 C 
ATOM     14  N   UNL     1      43.594   3.559  13.184  0.00  0.00    +0.000 NA
ATOM     15  C   UNL     1      44.703   3.506  12.225  0.00  0.00    +0.000 C 
ATOM     16  C   UNL     1      44.256   3.857  10.806  0.00  0.00    +0.000 C 
ATOM     17  H   UNL     1      42.882   2.881  12.912  0.00  0.00    +0.000 HD
ENDBRANCH   9  11
ENDBRANCH   8   9
ENDBRANCH   5   8
ENDBRANCH   1   2
BRANCH   1  20
ATOM     18  O   UNL     1      51.136   7.367  15.249  0.00  0.00    +0.000 OA
ATOM     19  C   UNL     1      50.046   7.310  15.808  0.00  0.00    +0.000 C 
ATOM     20  N   UNL     1      49.019   8.174  15.534  0.00  0.00    +0.000 N 
ATOM     21  H   UNL     1      48.119   8.026  15.971  0.00  0.00    +0.000 HD
BRANCH  19  22
ATOM     22  C   UNL     1      49.766   6.334  16.866  0.00  0.00    +0.000 A 
ATOM     23  C   UNL     1      50.446   6.390  18.073  0.00  0.00    +0.000 A 
ATOM     24  S   UNL     1      49.939   5.203  19.190  0.00  0.00    +0.000 S 
ATOM     25  C   UNL     1      48.830   4.545  18.078  0.00  0.00    +0.000 A 
ATOM     26  N   UNL     1      48.053   3.478  18.405  0.00  0.00    +0.000 NA
ATOM     27  C   UNL     1      47.289   3.060  17.450  0.00  0.00    +0.000 A 
ATOM     28  N   UNL     1      47.230   3.612  16.199  0.00  0.00    +0.000 N 
ATOM     29  C   UNL     1      47.960   4.717  15.836  0.00  0.00    +0.000 A 
ATOM     30  O   UNL     1      47.812   5.235  14.733  0.00  0.00    +0.000 OA
ATOM     31  C   UNL     1      48.845   5.222  16.871  0.00  0.00    +0.000 A 
ATOM     32  H   UNL     1      46.598   3.248  15.500  0.00  0.00    +0.000 HD
ENDBRANCH  19  22
ENDBRANCH   1  20
TORSDOF 6
ENDMDL
MODEL 5
REMARK VINA RESULT:    -7.179      3.778      9.158
REMARK INTER + INTRA:         -10.497
REMARK INTER:                  -9.270
REMARK INTRA:                  -1.227
REMARK UNBOUND:                -0.800
REMARK  Name = 
REMARK  6 active torsions:
REMARK  status: ('A' for Active; 'I' for Inactive)
REMARK    1  A    between atoms: C_2  and  C_19
REMARK    2  A    between atoms: N_3  and  C_4
REMARK    3  A    between atoms: C_4  and  C_5
REMARK    4  A    between atoms: C_8  and  C_9
REMARK    5  A    between atoms: C_9  and  N_10
REMARK    6  A    between atoms: N_10  and  C_11
REMARK                            x       y       z     vdW  Elec       q    Type
REMARK                         _______ _______ _______ _____ _____    ______ ____
ROOT
ATOM      1  C   UNL     1      47.678   8.241  11.713  0.00  0.00    +0.000 C 
ENDROOT
BRANCH   1   2
ATOM      2  C   UNL     1      48.457   8.338  13.030  0.00  0.00    +0.000 C 
ATOM      3  C   UNL     1      49.041   6.983  13.464  0.00  0.00    +0.000 C 
ATOM      4  C   UNL     1      49.734   7.071  14.826  0.00  0.00    +0.000 C 
ATOM      5  C   UNL     1      48.798   7.628  15.910  0.00  0.00    +0.000 C 
ATOM      6  C   UNL     1      48.216   8.981  15.467  0.00  0.00    +0.000 C 
ATOM      7  C   UNL     1      47.524   8.889  14.114  0.00  0.00    +0.000 C 
BRANCH   5   8
ATOM      8  C   UNL     1      49.539   7.748  17.261  0.00  0.00    +0.000 C 
BRANCH   8   9
ATOM      9  N   UNL     1      49.533   6.456  17.947  0.00  0.00    +0.000 NA
ATOM     10  H   UNL     1      49.931   6.581  18.879  0.00  0.00    +0.000 HD
BRANCH   9  11
ATOM     11  C   UNL     1      48.219   5.813  18.075  0.00  0.00    +0.000 C 
ATOM     12  C   UNL     1      47.888   5.721  19.577  0.00  0.00    +0.000 C 
ATOM     13  C   UNL     1      48.674   4.610  20.276  0.00  0.00    +0.000 C 
ATOM     14  N   UNL     1      48.413   3.307  19.661  0.00  0.00    +0.000 NA
ATOM     15  C   UNL     1      48.829   3.328  18.255  0.00  0.00    +0.000 C 
ATOM     16  C   UNL     1      48.104   4.409  17.453  0.00  0.00    +0.000 C 
ATOM     17  H   UNL     1      47.414   3.107  19.713  0.00  0.00    +0.000 HD
ENDBRANCH   9  11
ENDBRANCH   8   9
ENDBRANCH   5   8
ENDBRANCH   1   2
BRANCH   1  20
ATOM     18  O   UNL     1      44.847   8.050  11.452  0.00  0.00    +0.000 OA
ATOM     19  C   UNL     1      45.519   7.031  11.567  0.00  0.00    +0.000 C 
ATOM     20  N   UNL     1      46.888   7.039  11.626  0.00  0.00    +0.000 N 
ATOM     21  H   UNL     1      47.380   6.173  11.801  0.00  0.00    +0.000 HD
BRANCH  19  22
ATOM     22  C   UNL     1      44.908   5.698  11.599  0.00  0.00    +0.000 A 
ATOM     23  C   UNL     1      44.233   5.261  12.728  0.00  0.00    +0.000 A 
ATOM     24  S   UNL     1      43.550   3.707  12.547  0.00  0.00    +0.000 S 
ATOM     25  C   UNL     1      44.178   3.549  10.972  0.00  0.00    +0.000 A 
ATOM     26  N   UNL     1      43.958   2.427  10.235  0.00  0.00    +0.000 NA
ATOM     27  C   UNL     1      44.529   2.429   9.076  0.00  0.00    +0.000 A 
ATOM     28  N   UNL     1      45.298   3.450   8.586  0.00  0.00    +0.000 N 
ATOM     29  C   UNL     1      45.509   4.620   9.272  0.00  0.00    +0.000 A 
ATOM     30  O   UNL     1      46.131   5.547   8.760  0.00  0.00    +0.000 OA
ATOM     31  C   UNL     1      44.897   4.666  10.589  0.00  0.00    +0.000 A 
ATOM     32  H   UNL     1      45.703   3.397   7.662  0.00  0.00    +0.000 HD
ENDBRANCH  19  22
ENDBRANCH   1  20
TORSDOF 6
ENDMDL
MODEL 6
REMARK VINA RESULT:    -7.141      2.845      3.648
REMARK INTER + INTRA:         -10.445
REMARK INTER:                  -9.950
REMARK INTRA:                  -0.496
REMARK UNBOUND:                -0.800
REMARK  Name = 
REMARK  6 active torsions:
REMARK  status: ('A' for Active; 'I' for Inactive)
REMARK    1  A    between atoms: C_2  and  C_19
REMARK    2  A    between atoms: N_3  and  C_4
REMARK    3  A    between atoms: C_4  and  C_5
REMARK    4  A    between atoms: C_8  and  C_9
REMARK    5  A    between atoms: C_9  and  N_10
REMARK    6  A    between atoms: N_10  and  C_11
REMARK                            x       y       z     vdW  Elec       q    Type
REMARK                         _______ _______ _______ _____ _____    ______ ____
ROOT
ATOM      1  C   UNL     1      49.080   7.144  15.827  0.00  0.00    +0.000 C 
ENDROOT
BRANCH   1   2
ATOM      2  C   UNL     1      48.588   6.734  14.433  0.00  0.00    +0.000 C 
ATOM      3  C   UNL     1      47.986   7.916  13.655  0.00  0.00    +0.000 C 
ATOM      4  C   UNL     1      47.413   7.478  12.306  0.00  0.00    +0.000 C 
ATOM      5  C   UNL     1      46.378   6.352  12.462  0.00  0.00    +0.000 C 
ATOM      6  C   UNL     1      46.987   5.175  13.244  0.00  0.00    +0.000 C 
ATOM      7  C   UNL     1      47.554   5.614  14.587  0.00  0.00    +0.000 C 
BRANCH   5   8
ATOM      8  C   UNL     1      45.852   5.899  11.081  0.00  0.00    +0.000 C 
BRANCH   8   9
ATOM      9  N   UNL     1      44.436   6.243  10.954  0.00  0.00    +0.000 NA
ATOM     10  H   UNL     1      44.340   6.963  10.236  0.00  0.00    +0.000 HD
BRANCH   9  11
ATOM     11  C   UNL     1      43.539   5.126  10.628  0.00  0.00    +0.000 C 
ATOM     12  C   UNL     1      42.638   4.877  11.852  0.00  0.00    +0.000 C 
ATOM     13  C   UNL     1      43.379   4.158  12.980  0.00  0.00    +0.000 C 
ATOM     14  N   UNL     1      43.916   2.872  12.528  0.00  0.00    +0.000 NA
ATOM     15  C   UNL     1      44.870   3.088  11.435  0.00  0.00    +0.000 C 
ATOM     16  C   UNL     1      44.235   3.807  10.246  0.00  0.00    +0.000 C 
ATOM     17  H   UNL     1      43.148   2.289  12.193  0.00  0.00    +0.000 HD
ENDBRANCH   9  11
ENDBRANCH   8   9
ENDBRANCH   5   8
ENDBRANCH   1   2
BRANCH   1  20
ATOM     18  O   UNL     1      48.794   5.448  18.098  0.00  0.00    +0.000 OA
ATOM     19  C   UNL     1      49.863   5.491  17.500  0.00  0.00    +0.000 C 
ATOM     20  N   UNL     1      50.055   6.227  16.360  0.00  0.00    +0.000 N 
ATOM     21  H   UNL     1      50.982   6.284  15.959  0.00  0.00    +0.000 HD
BRANCH  19  22
ATOM     22  C   UNL     1      51.026   4.707  17.930  0.00  0.00    +0.000 A 
ATOM     23  C   UNL     1      52.080   5.319  18.590  0.00  0.00    +0.000 A 
ATOM     24  S   UNL     1      53.310   4.230  19.054  0.00  0.00    +0.000 S 
ATOM     25  C   UNL     1      52.495   2.914  18.344  0.00  0.00    +0.000 A 
ATOM     26  N   UNL     1      53.016   1.659  18.382  0.00  0.00    +0.000 NA
ATOM     27  C   UNL     1      52.310   0.768  17.768  0.00  0.00    +0.000 A 
ATOM     28  N   UNL     1      51.130   1.018  17.119  0.00  0.00    +0.000 N 
ATOM     29  C   UNL     1      50.542   2.258  17.093  0.00  0.00    +0.000 A 
ATOM     30  O   UNL     1      49.440   2.421  16.577  0.00  0.00    +0.000 OA
ATOM     31  C   UNL     1      51.301   3.300  17.762  0.00  0.00    +0.000 A 
ATOM     32  H   UNL     1      50.617   0.272  16.671  0.00  0.00    +0.000 HD
ENDBRANCH  19  22
ENDBRANCH   1  20
TORSDOF 6
ENDMDL
MODEL 7
REMARK VINA RESULT:    -6.862      3.740      8.903
REMARK INTER + INTRA:         -10.069
REMARK INTER:                  -9.031
REMARK INTRA:                  -1.038
REMARK UNBOUND:                -0.800
REMARK  Name = 
REMARK  6 active torsions:
REMARK  status: ('A' for Active; 'I' for Inactive)
REMARK    1  A    between atoms: C_2  and  C_19
REMARK    2  A    between atoms: N_3  and  C_4
REMARK    3  A    between atoms: C_4  and  C_5
REMARK    4  A    between atoms: C_8  and  C_9
REMARK    5  A    between atoms: C_9  and  N_10
REMARK    6  A    between atoms: N_10  and  C_11
REMARK                            x       y       z     vdW  Elec       q    Type
REMARK                         _______ _______ _______ _____ _____    ______ ____
ROOT
ATOM      1  C   UNL     1      48.366   7.942  11.939  0.00  0.00    +0.000 C 
ENDROOT
BRANCH   1   2
ATOM      2  C   UNL     1      49.018   7.455  13.239  0.00  0.00    +0.000 C 
ATOM      3  C   UNL     1      48.084   6.546  14.055  0.00  0.00    +0.000 C 
ATOM      4  C   UNL     1      48.708   6.143  15.394  0.00  0.00    +0.000 C 
ATOM      5  C   UNL     1      49.129   7.369  16.221  0.00  0.00    +0.000 C 
ATOM      6  C   UNL     1      50.059   8.273  15.396  0.00  0.00    +0.000 C 
ATOM      7  C   UNL     1      49.435   8.675  14.067  0.00  0.00    +0.000 C 
BRANCH   5   8
ATOM      8  C   UNL     1      49.796   6.930  17.545  0.00  0.00    +0.000 C 
BRANCH   8   9
ATOM      9  N   UNL     1      50.100   5.500  17.496  0.00  0.00    +0.000 NA
ATOM     10  H   UNL     1      51.114   5.384  17.463  0.00  0.00    +0.000 HD
BRANCH   9  11
ATOM     11  C   UNL     1      49.569   4.701  18.608  0.00  0.00    +0.000 C 
ATOM     12  C   UNL     1      49.333   3.271  18.084  0.00  0.00    +0.000 C 
ATOM     13  C   UNL     1      48.081   3.174  17.210  0.00  0.00    +0.000 C 
ATOM     14  N   UNL     1      46.888   3.605  17.942  0.00  0.00    +0.000 NA
ATOM     15  C   UNL     1      47.035   5.005  18.353  0.00  0.00    +0.000 C 
ATOM     16  C   UNL     1      48.264   5.223  19.235  0.00  0.00    +0.000 C 
ATOM     17  H   UNL     1      46.775   3.021  18.771  0.00  0.00    +0.000 HD
ENDBRANCH   9  11
ENDBRANCH   8   9
ENDBRANCH   5   8
ENDBRANCH   1   2
BRANCH   1  20
ATOM     18  O   UNL     1      45.523   7.826  11.800  0.00  0.00    +0.000 OA
ATOM     19  C   UNL     1      46.193   6.908  11.342  0.00  0.00    +0.000 C 
ATOM     20  N   UNL     1      47.563   6.925  11.309  0.00  0.00    +0.000 N 
ATOM     21  H   UNL     1      48.060   6.103  10.991  0.00  0.00    +0.000 HD
BRANCH  19  22
ATOM     22  C   UNL     1      45.577   5.723  10.736  0.00  0.00    +0.000 A 
ATOM     23  C   UNL     1      45.704   5.482   9.377  0.00  0.00    +0.000 A 
ATOM     24  S   UNL     1      44.962   4.028   8.877  0.00  0.00    +0.000 S 
ATOM     25  C   UNL     1      44.406   3.700  10.452  0.00  0.00    +0.000 A 
ATOM     26  N   UNL     1      43.682   2.582  10.725  0.00  0.00    +0.000 NA
ATOM     27  C   UNL     1      43.292   2.484  11.953  0.00  0.00    +0.000 A 
ATOM     28  N   UNL     1      43.560   3.402  12.933  0.00  0.00    +0.000 N 
ATOM     29  C   UNL     1      44.325   4.521  12.717  0.00  0.00    +0.000 A 
ATOM     30  O   UNL     1      44.616   5.273  13.643  0.00  0.00    +0.000 OA
ATOM     31  C   UNL     1      44.781   4.685  11.348  0.00  0.00    +0.000 A 
ATOM     32  H   UNL     1      43.239   3.259  13.880  0.00  0.00    +0.000 HD
ENDBRANCH  19  22
ENDBRANCH   1  20
TORSDOF 6
ENDMDL
MODEL 8
REMARK VINA RESULT:    -6.675      5.559      8.197
REMARK INTER + INTRA:          -9.816
REMARK INTER:                  -8.826
REMARK INTRA:                  -0.991
REMARK UNBOUND:                -0.800
REMARK  Name = 
REMARK  6 active torsions:
REMARK  status: ('A' for Active; 'I' for Inactive)
REMARK    1  A    between atoms: C_2  and  C_19
REMARK    2  A    between atoms: N_3  and  C_4
REMARK    3  A    between atoms: C_4  and  C_5
REMARK    4  A    between atoms: C_8  and  C_9
REMARK    5  A    between atoms: C_9  and  N_10
REMARK    6  A    between atoms: N_10  and  C_11
REMARK                            x       y       z     vdW  Elec       q    Type
REMARK                         _______ _______ _______ _____ _____    ______ ____
ROOT
ATOM      1  C   UNL     1      47.064   7.973  12.640  0.00  0.00    +0.000 C 
ENDROOT
BRANCH   1   2
ATOM      2  C   UNL     1      48.296   8.293  11.786  0.00  0.00    +0.000 C 
ATOM      3  C   UNL     1      49.446   7.300  12.027  0.00  0.00    +0.000 C 
ATOM      4  C   UNL     1      50.703   7.683  11.242  0.00  0.00    +0.000 C 
ATOM      5  C   UNL     1      51.156   9.119  11.551  0.00  0.00    +0.000 C 
ATOM      6  C   UNL     1      49.999  10.104  11.312  0.00  0.00    +0.000 C 
ATOM      7  C   UNL     1      48.752   9.723  12.096  0.00  0.00    +0.000 C 
BRANCH   5   8
ATOM      8  C   UNL     1      52.398   9.492  10.711  0.00  0.00    +0.000 C 
BRANCH   8   9
ATOM      9  N   UNL     1      52.469   8.639   9.525  0.00  0.00    +0.000 NA
ATOM     10  H   UNL     1      52.120   9.168   8.723  0.00  0.00    +0.000 HD
BRANCH   9  11
ATOM     11  C   UNL     1      53.800   8.112   9.201  0.00  0.00    +0.000 C 
ATOM     12  C   UNL     1      53.745   7.547   7.769  0.00  0.00    +0.000 C 
ATOM     13  C   UNL     1      53.023   6.200   7.705  0.00  0.00    +0.000 C 
ATOM     14  N   UNL     1      53.669   5.211   8.570  0.00  0.00    +0.000 NA
ATOM     15  C   UNL     1      53.633   5.669   9.964  0.00  0.00    +0.000 C 
ATOM     16  C   UNL     1      54.328   7.018  10.147  0.00  0.00    +0.000 C 
ATOM     17  H   UNL     1      54.640   5.096   8.280  0.00  0.00    +0.000 HD
ENDBRANCH   9  11
ENDBRANCH   8   9
ENDBRANCH   5   8
ENDBRANCH   1   2
BRANCH   1  20
ATOM     18  O   UNL     1      44.554   7.618  11.341  0.00  0.00    +0.000 OA
ATOM     19  C   UNL     1      45.197   6.639  11.701  0.00  0.00    +0.000 C 
ATOM     20  N   UNL     1      46.441   6.728  12.268  0.00  0.00    +0.000 N 
ATOM     21  H   UNL     1      46.886   5.890  12.617  0.00  0.00    +0.000 HD
BRANCH  19  22
ATOM     22  C   UNL     1      44.704   5.272  11.507  0.00  0.00    +0.000 A 
ATOM     23  C   UNL     1      43.983   4.636  12.505  0.00  0.00    +0.000 A 
ATOM     24  S   UNL     1      43.455   3.073  12.067  0.00  0.00    +0.000 S 
ATOM     25  C   UNL     1      44.215   3.178  10.547  0.00  0.00    +0.000 A 
ATOM     26  N   UNL     1      44.153   2.153   9.655  0.00  0.00    +0.000 NA
ATOM     27  C   UNL     1      44.809   2.356   8.561  0.00  0.00    +0.000 A 
ATOM     28  N   UNL     1      45.522   3.489   8.277  0.00  0.00    +0.000 N 
ATOM     29  C   UNL     1      45.577   4.568   9.124  0.00  0.00    +0.000 A 
ATOM     30  O   UNL     1      46.154   5.600   8.793  0.00  0.00    +0.000 OA
ATOM     31  C   UNL     1      44.862   4.389  10.376  0.00  0.00    +0.000 A 
ATOM     32  H   UNL     1      46.002   3.593   7.393  0.00  0.00    +0.000 HD
ENDBRANCH  19  22
ENDBRANCH   1  20
TORSDOF 6
ENDMDL
MODEL 9
REMARK VINA RESULT:    -6.352      3.065      4.189
REMARK INTER + INTRA:          -9.381
REMARK INTER:                  -8.236
REMARK INTRA:                  -1.144
REMARK UNBOUND:                -0.800
REMARK  Name = 
REMARK  6 active torsions:
REMARK  status: ('A' for Active; 'I' for Inactive)
REMARK    1  A    between atoms: C_2  and  C_19
REMARK    2  A    between atoms: N_3  and  C_4
REMARK    3  A    between atoms: C_4  and  C_5
REMARK    4  A    between atoms: C_8  and  C_9
REMARK    5  A    between atoms: C_9  and  N_10
REMARK    6  A    between atoms: N_10  and  C_11
REMARK                            x       y       z     vdW  Elec       q    Type
REMARK                         _______ _______ _______ _____ _____    ______ ____
ROOT
ATOM      1  C   UNL     1      49.724   7.332  14.452  0.00  0.00    +0.000 C 
ENDROOT
BRANCH   1   2
ATOM      2  C   UNL     1      48.630   7.163  13.391  0.00  0.00    +0.000 C 
ATOM      3  C   UNL     1      47.850   8.465  13.144  0.00  0.00    +0.000 C 
ATOM      4  C   UNL     1      46.700   8.261  12.154  0.00  0.00    +0.000 C 
ATOM      5  C   UNL     1      45.750   7.139  12.603  0.00  0.00    +0.000 C 
ATOM      6  C   UNL     1      46.539   5.842  12.851  0.00  0.00    +0.000 C 
ATOM      7  C   UNL     1      47.680   6.047  13.839  0.00  0.00    +0.000 C 
BRANCH   5   8
ATOM      8  C   UNL     1      44.628   6.927  11.562  0.00  0.00    +0.000 C 
BRANCH   8   9
ATOM      9  N   UNL     1      44.970   5.806  10.686  0.00  0.00    +0.000 NA
ATOM     10  H   UNL     1      45.572   5.163  11.202  0.00  0.00    +0.000 HD
BRANCH   9  11
ATOM     11  C   UNL     1      43.831   5.056  10.141  0.00  0.00    +0.000 C 
ATOM     12  C   UNL     1      43.049   4.466  11.330  0.00  0.00    +0.000 C 
ATOM     13  C   UNL     1      43.754   3.255  11.943  0.00  0.00    +0.000 C 
ATOM     14  N   UNL     1      43.957   2.199  10.949  0.00  0.00    +0.000 NA
ATOM     15  C   UNL     1      44.800   2.699   9.858  0.00  0.00    +0.000 C 
ATOM     16  C   UNL     1      44.191   3.919   9.168  0.00  0.00    +0.000 C 
ATOM     17  H   UNL     1      43.052   1.917  10.572  0.00  0.00    +0.000 HD
ENDBRANCH   9  11
ENDBRANCH   8   9
ENDBRANCH   5   8
ENDBRANCH   1   2
BRANCH   1  20
ATOM     18  O   UNL     1      50.540   8.885  16.697  0.00  0.00    +0.000 OA
ATOM     19  C   UNL     1      49.698   8.006  16.838  0.00  0.00    +0.000 C 
ATOM     20  N   UNL     1      49.205   7.266  15.795  0.00  0.00    +0.000 N 
ATOM     21  H   UNL     1      48.572   6.502  15.987  0.00  0.00    +0.000 HD
BRANCH  19  22
ATOM     22  C   UNL     1      49.103   7.703  18.144  0.00  0.00    +0.000 A 
ATOM     23  C   UNL     1      48.423   8.682  18.851  0.00  0.00    +0.000 A 
ATOM     24  S   UNL     1      47.761   8.119  20.320  0.00  0.00    +0.000 S 
ATOM     25  C   UNL     1      48.404   6.561  20.080  0.00  0.00    +0.000 A 
ATOM     26  N   UNL     1      48.204   5.569  20.989  0.00  0.00    +0.000 NA
ATOM     27  C   UNL     1      48.784   4.452  20.698  0.00  0.00    +0.000 A 
ATOM     28  N   UNL     1      49.545   4.236  19.580  0.00  0.00    +0.000 N 
ATOM     29  C   UNL     1      49.737   5.190  18.612  0.00  0.00    +0.000 A 
ATOM     30  O   UNL     1      50.353   4.928  17.583  0.00  0.00    +0.000 OA
ATOM     31  C   UNL     1      49.113   6.471  18.896  0.00  0.00    +0.000 A 
ATOM     32  H   UNL     1      49.959   3.332  19.402  0.00  0.00    +0.000 HD
ENDBRANCH  19  22
ENDBRANCH   1  20
TORSDOF 6
ENDMDL
