MODEL 1
REMARK VINA RESULT:    -6.254      0.000      0.000
REMARK INTER + INTRA:          -9.811
REMARK INTER:                  -8.448
REMARK INTRA:                  -1.363
REMARK UNBOUND:                -1.363
REMARK  Name = 
REMARK  9 active torsions:
REMARK  status: ('A' for Active; 'I' for Inactive)
REMARK    1  A    between atoms: C_1  and  C_2
REMARK    2  A    between atoms: C_2  and  C_3
REMARK    3  A    between atoms: C_2  and  C_4
REMARK    4  A    between atoms: C_2  and  C_5
REMARK    5  A    between atoms: C_9  and  C_10
REMARK    6  A    between atoms: N_17  and  C_18
REMARK    7  A    between atoms: C_18  and  C_19
REMARK    8  A    between atoms: C_22  and  O_23
REMARK    9  A    between atoms: O_23  and  C_24
REMARK                            x       y       z     vdW  Elec       q    Type
REMARK                         _______ _______ _______ _____ _____    ______ ____
ROOT
ATOM      1  C   UNL     1      46.901   6.549  13.262  0.00  0.00    +0.000 A 
ATOM      2  N   UNL     1      48.059   6.629  13.904  0.00  0.00    +0.000 NA
ATOM      3  C   UNL     1      48.027   5.710  14.892  0.00  0.00    +0.000 A 
ATOM      4  C   UNL     1      48.984   5.412  15.859  0.00  0.00    +0.000 A 
ATOM      5  C   UNL     1      48.659   4.429  16.798  0.00  0.00    +0.000 A 
ATOM      6  C   UNL     1      47.418   3.791  16.692  0.00  0.00    +0.000 A 
ATOM      7 CL   UNL     1      46.856   2.594  17.802  0.00  0.00    +0.000 Cl
ATOM      8  N   UNL     1      46.465   4.047  15.744  0.00  0.00    +0.000 NA
ATOM      9  C   UNL     1      46.836   5.014  14.882  0.00  0.00    +0.000 A 
ATOM     10  N   UNL     1      46.129   5.521  13.805  0.00  0.00    +0.000 N 
ENDROOT
BRANCH   5  11
ATOM     11  C   UNL     1      49.655   4.097  17.836  0.00  0.00    +0.000 C 
ATOM     12  N   UNL     1      50.326   2.909  17.712  0.00  0.00    +0.000 N 
ATOM     13  O   UNL     1      49.872   4.816  18.794  0.00  0.00    +0.000 OA
ATOM     14  H   UNL     1      50.257   2.292  16.916  0.00  0.00    +0.000 HD
ATOM     15  H   UNL     1      51.010   2.690  18.426  0.00  0.00    +0.000 HD
ENDBRANCH   5  11
BRANCH   1  17
ATOM     16  C   UNL     1      46.798   6.890  10.797  0.00  0.00    +0.000 C 
ATOM     17  C   UNL     1      46.583   7.575  12.177  0.00  0.00    +0.000 C 
ATOM     18  C   UNL     1      47.580   8.743  12.282  0.00  0.00    +0.000 C 
ATOM     19  C   UNL     1      45.155   8.108  12.172  0.00  0.00    +0.000 C 
ENDBRANCH   1  17
BRANCH  10  20
ATOM     20  C   UNL     1      44.799   5.030  13.450  0.00  0.00    +0.000 C 
BRANCH  20  21
ATOM     21  C   UNL     1      44.768   4.405  12.068  0.00  0.00    +0.000 A 
ATOM     22  C   UNL     1      45.478   3.231  11.771  0.00  0.00    +0.000 A 
ATOM     23  C   UNL     1      45.576   2.750  10.453  0.00  0.00    +0.000 A 
ATOM     24  C   UNL     1      44.932   3.417   9.416  0.00  0.00    +0.000 A 
ATOM     25  C   UNL     1      44.140   4.526   9.726  0.00  0.00    +0.000 A 
ATOM     26  C   UNL     1      44.035   4.997  11.035  0.00  0.00    +0.000 A 
BRANCH  24  27
ATOM     27  O   UNL     1      44.939   3.114   8.090  0.00  0.00    +0.000 OA
BRANCH  27  28
ATOM     28  C   UNL     1      46.141   3.141   7.343  0.00  0.00    +0.000 C 
ATOM     29  F   UNL     1      46.958   2.111   7.640  0.00  0.00    +0.000 F 
ATOM     30  F   UNL     1      45.820   3.041   6.033  0.00  0.00    +0.000 F 
ATOM     31  F   UNL     1      46.795   4.306   7.527  0.00  0.00    +0.000 F 
ENDBRANCH  27  28
ENDBRANCH  24  27
ENDBRANCH  20  21
ENDBRANCH  10  20
TORSDOF 6
ENDMDL
MODEL 2
REMARK VINA RESULT:    -5.975      3.106      4.270
REMARK INTER + INTRA:          -9.434
REMARK INTER:                  -8.381
REMARK INTRA:                  -1.053
REMARK UNBOUND:                -1.363
REMARK  Name = 
REMARK  9 active torsions:
REMARK  status: ('A' for Active; 'I' for Inactive)
REMARK    1  A    between atoms: C_1  and  C_2
REMARK    2  A    between atoms: C_2  and  C_3
REMARK    3  A    between atoms: C_2  and  C_4
REMARK    4  A    between atoms: C_2  and  C_5
REMARK    5  A    between atoms: C_9  and  C_10
REMARK    6  A    between atoms: N_17  and  C_18
REMARK    7  A    between atoms: C_18  and  C_19
REMARK    8  A    between atoms: C_22  and  O_23
REMARK    9  A    between atoms: O_23  and  C_24
REMARK                            x       y       z     vdW  Elec       q    Type
REMARK                         _______ _______ _______ _____ _____    ______ ____
ROOT
ATOM      1  C   UNL     1      49.660   8.516  14.999  0.00  0.00    +0.000 A 
ATOM      2  N   UNL     1      49.740   8.570  16.322  0.00  0.00    +0.000 NA
ATOM      3  C   UNL     1      49.269   7.397  16.795  0.00  0.00    +0.000 A 
ATOM      4  C   UNL     1      49.120   6.965  18.110  0.00  0.00    +0.000 A 
ATOM      5  C   UNL     1      48.555   5.702  18.308  0.00  0.00    +0.000 A 
ATOM      6  C   UNL     1      48.205   4.946  17.184  0.00  0.00    +0.000 A 
ATOM      7 CL   UNL     1      47.457   3.392  17.267  0.00  0.00    +0.000 Cl
ATOM      8  N   UNL     1      48.355   5.333  15.880  0.00  0.00    +0.000 NA
ATOM      9  C   UNL     1      48.890   6.564  15.762  0.00  0.00    +0.000 A 
ATOM     10  N   UNL     1      49.184   7.265  14.605  0.00  0.00    +0.000 N 
ENDROOT
BRANCH   5  11
ATOM     11  C   UNL     1      48.383   5.221  19.693  0.00  0.00    +0.000 C 
ATOM     12  N   UNL     1      47.178   5.462  20.301  0.00  0.00    +0.000 N 
ATOM     13  O   UNL     1      49.267   4.656  20.309  0.00  0.00    +0.000 OA
ATOM     14  H   UNL     1      46.373   5.859  19.840  0.00  0.00    +0.000 HD
ATOM     15  H   UNL     1      47.066   5.127  21.250  0.00  0.00    +0.000 HD
ENDBRANCH   5  11
BRANCH   1  17
ATOM     16  C   UNL     1      50.567  10.830  15.162  0.00  0.00    +0.000 C 
ATOM     17  C   UNL     1      49.987   9.766  14.186  0.00  0.00    +0.000 C 
ATOM     18  C   UNL     1      48.686  10.335  13.591  0.00  0.00    +0.000 C 
ATOM     19  C   UNL     1      51.027   9.584  13.086  0.00  0.00    +0.000 C 
ENDBRANCH   1  17
BRANCH  10  20
ATOM     20  C   UNL     1      48.932   6.711  13.277  0.00  0.00    +0.000 C 
BRANCH  20  21
ATOM     21  C   UNL     1      47.459   6.432  13.042  0.00  0.00    +0.000 A 
ATOM     22  C   UNL     1      46.530   7.467  12.862  0.00  0.00    +0.000 A 
ATOM     23  C   UNL     1      45.149   7.208  12.807  0.00  0.00    +0.000 A 
ATOM     24  C   UNL     1      44.679   5.902  12.894  0.00  0.00    +0.000 A 
ATOM     25  C   UNL     1      45.609   4.861  12.970  0.00  0.00    +0.000 A 
ATOM     26  C   UNL     1      46.980   5.119  13.013  0.00  0.00    +0.000 A 
BRANCH  24  27
ATOM     27  O   UNL     1      43.389   5.470  12.887  0.00  0.00    +0.000 OA
BRANCH  27  28
ATOM     28  C   UNL     1      42.736   5.145  11.674  0.00  0.00    +0.000 C 
ATOM     29  F   UNL     1      43.409   5.581  10.590  0.00  0.00    +0.000 F 
ATOM     30  F   UNL     1      42.658   3.797  11.591  0.00  0.00    +0.000 F 
ATOM     31  F   UNL     1      41.480   5.640  11.656  0.00  0.00    +0.000 F 
ENDBRANCH  27  28
ENDBRANCH  24  27
ENDBRANCH  20  21
ENDBRANCH  10  20
TORSDOF 6
ENDMDL
MODEL 3
REMARK VINA RESULT:    -5.858      4.390      6.879
REMARK INTER + INTRA:          -9.275
REMARK INTER:                  -7.919
REMARK INTRA:                  -1.356
REMARK UNBOUND:                -1.363
REMARK  Name = 
REMARK  9 active torsions:
REMARK  status: ('A' for Active; 'I' for Inactive)
REMARK    1  A    between atoms: C_1  and  C_2
REMARK    2  A    between atoms: C_2  and  C_3
REMARK    3  A    between atoms: C_2  and  C_4
REMARK    4  A    between atoms: C_2  and  C_5
REMARK    5  A    between atoms: C_9  and  C_10
REMARK    6  A    between atoms: N_17  and  C_18
REMARK    7  A    between atoms: C_18  and  C_19
REMARK    8  A    between atoms: C_22  and  O_23
REMARK    9  A    between atoms: O_23  and  C_24
REMARK                            x       y       z     vdW  Elec       q    Type
REMARK                         _______ _______ _______ _____ _____    ______ ____
ROOT
ATOM      1  C   UNL     1      48.293   6.557  14.656  0.00  0.00    +0.000 A 
ATOM      2  N   UNL     1      47.857   5.307  14.735  0.00  0.00    +0.000 NA
ATOM      3  C   UNL     1      46.888   5.166  13.806  0.00  0.00    +0.000 A 
ATOM      4  C   UNL     1      46.102   4.058  13.503  0.00  0.00    +0.000 A 
ATOM      5  C   UNL     1      45.132   4.214  12.509  0.00  0.00    +0.000 A 
ATOM      6  C   UNL     1      45.032   5.453  11.866  0.00  0.00    +0.000 A 
ATOM      7 CL   UNL     1      43.856   5.813  10.654  0.00  0.00    +0.000 Cl
ATOM      8  N   UNL     1      45.800   6.555  12.126  0.00  0.00    +0.000 NA
ATOM      9  C   UNL     1      46.702   6.339  13.104  0.00  0.00    +0.000 A 
ATOM     10  N   UNL     1      47.637   7.221  13.619  0.00  0.00    +0.000 N 
ENDROOT
BRANCH   5  11
ATOM     11  C   UNL     1      44.283   3.054  12.171  0.00  0.00    +0.000 C 
ATOM     12  N   UNL     1      44.470   2.469  10.946  0.00  0.00    +0.000 N 
ATOM     13  O   UNL     1      43.421   2.630  12.918  0.00  0.00    +0.000 OA
ATOM     14  H   UNL     1      45.206   2.713  10.301  0.00  0.00    +0.000 HD
ATOM     15  H   UNL     1      43.886   1.672  10.723  0.00  0.00    +0.000 HD
ENDBRANCH   5  11
BRANCH   1  17
ATOM     16  C   UNL     1      49.491   5.934  16.749  0.00  0.00    +0.000 C 
ATOM     17  C   UNL     1      49.296   7.058  15.691  0.00  0.00    +0.000 C 
ATOM     18  C   UNL     1      48.707   8.283  16.412  0.00  0.00    +0.000 C 
ATOM     19  C   UNL     1      50.686   7.387  15.157  0.00  0.00    +0.000 C 
ENDBRANCH   1  17
BRANCH  10  20
ATOM     20  C   UNL     1      47.766   8.591  13.125  0.00  0.00    +0.000 C 
BRANCH  20  21
ATOM     21  C   UNL     1      49.033   8.793  12.316  0.00  0.00    +0.000 A 
ATOM     22  C   UNL     1      49.634   7.741  11.607  0.00  0.00    +0.000 A 
ATOM     23  C   UNL     1      50.891   7.896  10.996  0.00  0.00    +0.000 A 
ATOM     24  C   UNL     1      51.549   9.120  11.053  0.00  0.00    +0.000 A 
ATOM     25  C   UNL     1      50.905  10.196  11.669  0.00  0.00    +0.000 A 
ATOM     26  C   UNL     1      49.653  10.045  12.267  0.00  0.00    +0.000 A 
BRANCH  24  27
ATOM     27  O   UNL     1      52.771   9.442  10.547  0.00  0.00    +0.000 OA
BRANCH  27  28
ATOM     28  C   UNL     1      52.955   9.640   9.158  0.00  0.00    +0.000 C 
ATOM     29  F   UNL     1      54.186  10.098   8.858  0.00  0.00    +0.000 F 
ATOM     30  F   UNL     1      52.804   8.444   8.543  0.00  0.00    +0.000 F 
ATOM     31  F   UNL     1      52.024  10.485   8.666  0.00  0.00    +0.000 F 
ENDBRANCH  27  28
ENDBRANCH  24  27
ENDBRANCH  20  21
ENDBRANCH  10  20
TORSDOF 6
ENDMDL
MODEL 4
REMARK VINA RESULT:    -5.707      2.754      3.657
REMARK INTER + INTRA:          -9.072
REMARK INTER:                  -7.796
REMARK INTRA:                  -1.275
REMARK UNBOUND:                -1.363
REMARK  Name = 
REMARK  9 active torsions:
REMARK  status: ('A' for Active; 'I' for Inactive)
REMARK    1  A    between atoms: C_1  and  C_2
REMARK    2  A    between atoms: C_2  and  C_3
REMARK    3  A    between atoms: C_2  and  C_4
REMARK    4  A    between atoms: C_2  and  C_5
REMARK    5  A    between atoms: C_9  and  C_10
REMARK    6  A    between atoms: N_17  and  C_18
REMARK    7  A    between atoms: C_18  and  C_19
REMARK    8  A    between atoms: C_22  and  O_23
REMARK    9  A    between atoms: O_23  and  C_24
REMARK                            x       y       z     vdW  Elec       q    Type
REMARK                         _______ _______ _______ _____ _____    ______ ____
ROOT
ATOM      1  C   UNL     1      48.708   9.122  14.042  0.00  0.00    +0.000 A 
ATOM      2  N   UNL     1      48.747   9.623  15.270  0.00  0.00    +0.000 NA
ATOM      3  C   UNL     1      48.933   8.587  16.115  0.00  0.00    +0.000 A 
ATOM      4  C   UNL     1      49.019   8.578  17.504  0.00  0.00    +0.000 A 
ATOM      5  C   UNL     1      49.170   7.336  18.127  0.00  0.00    +0.000 A 
ATOM      6  C   UNL     1      49.253   6.194  17.324  0.00  0.00    +0.000 A 
ATOM      7 CL   UNL     1      49.392   4.589  17.947  0.00  0.00    +0.000 Cl
ATOM      8  N   UNL     1      49.190   6.170  15.957  0.00  0.00    +0.000 NA
ATOM      9  C   UNL     1      49.029   7.397  15.423  0.00  0.00    +0.000 A 
ATOM     10  N   UNL     1      48.931   7.745  14.087  0.00  0.00    +0.000 N 
ENDROOT
BRANCH   5  11
ATOM     11  C   UNL     1      49.261   7.299  19.601  0.00  0.00    +0.000 C 
ATOM     12  N   UNL     1      50.471   6.968  20.151  0.00  0.00    +0.000 N 
ATOM     13  O   UNL     1      48.308   7.520  20.325  0.00  0.00    +0.000 OA
ATOM     14  H   UNL     1      51.324   6.840  19.627  0.00  0.00    +0.000 HD
ATOM     15  H   UNL     1      50.527   6.948  21.162  0.00  0.00    +0.000 HD
ENDBRANCH   5  11
BRANCH   1  17
ATOM     16  C   UNL     1      48.616  11.509  13.336  0.00  0.00    +0.000 C 
ATOM     17  C   UNL     1      48.360  10.044  12.877  0.00  0.00    +0.000 C 
ATOM     18  C   UNL     1      46.861   9.908  12.557  0.00  0.00    +0.000 C 
ATOM     19  C   UNL     1      49.183   9.844  11.609  0.00  0.00    +0.000 C 
ENDBRANCH   1  17
BRANCH  10  20
ATOM     20  C   UNL     1      48.997   6.750  13.019  0.00  0.00    +0.000 C 
BRANCH  20  21
ATOM     21  C   UNL     1      47.626   6.214  12.649  0.00  0.00    +0.000 A 
ATOM     22  C   UNL     1      46.930   5.324  13.482  0.00  0.00    +0.000 A 
ATOM     23  C   UNL     1      45.740   4.707  13.059  0.00  0.00    +0.000 A 
ATOM     24  C   UNL     1      45.207   5.001  11.808  0.00  0.00    +0.000 A 
ATOM     25  C   UNL     1      45.844   5.964  11.020  0.00  0.00    +0.000 A 
ATOM     26  C   UNL     1      47.020   6.583  11.445  0.00  0.00    +0.000 A 
BRANCH  24  27
ATOM     27  O   UNL     1      44.090   4.484  11.228  0.00  0.00    +0.000 OA
BRANCH  27  28
ATOM     28  C   UNL     1      44.086   3.171  10.699  0.00  0.00    +0.000 C 
ATOM     29  F   UNL     1      43.152   2.385  11.270  0.00  0.00    +0.000 F 
ATOM     30  F   UNL     1      43.796   3.254   9.379  0.00  0.00    +0.000 F 
ATOM     31  F   UNL     1      45.301   2.598  10.826  0.00  0.00    +0.000 F 
ENDBRANCH  27  28
ENDBRANCH  24  27
ENDBRANCH  20  21
ENDBRANCH  10  20
TORSDOF 6
ENDMDL
MODEL 5
REMARK VINA RESULT:    -5.505      3.052      4.049
REMARK INTER + INTRA:          -8.799
REMARK INTER:                  -7.509
REMARK INTRA:                  -1.290
REMARK UNBOUND:                -1.363
REMARK  Name = 
REMARK  9 active torsions:
REMARK  status: ('A' for Active; 'I' for Inactive)
REMARK    1  A    between atoms: C_1  and  C_2
REMARK    2  A    between atoms: C_2  and  C_3
REMARK    3  A    between atoms: C_2  and  C_4
REMARK    4  A    between atoms: C_2  and  C_5
REMARK    5  A    between atoms: C_9  and  C_10
REMARK    6  A    between atoms: N_17  and  C_18
REMARK    7  A    between atoms: C_18  and  C_19
REMARK    8  A    between atoms: C_22  and  O_23
REMARK    9  A    between atoms: O_23  and  C_24
REMARK                            x       y       z     vdW  Elec       q    Type
REMARK                         _______ _______ _______ _____ _____    ______ ____
ROOT
ATOM      1  C   UNL     1      50.172   7.995  13.867  0.00  0.00    +0.000 A 
ATOM      2  N   UNL     1      51.126   7.517  14.655  0.00  0.00    +0.000 NA
ATOM      3  C   UNL     1      50.533   7.136  15.807  0.00  0.00    +0.000 A 
ATOM      4  C   UNL     1      51.096   6.595  16.959  0.00  0.00    +0.000 A 
ATOM      5  C   UNL     1      50.236   6.334  18.029  0.00  0.00    +0.000 A 
ATOM      6  C   UNL     1      48.872   6.601  17.868  0.00  0.00    +0.000 A 
ATOM      7 CL   UNL     1      47.696   6.376  19.111  0.00  0.00    +0.000 Cl
ATOM      8  N   UNL     1      48.285   7.115  16.743  0.00  0.00    +0.000 NA
ATOM      9  C   UNL     1      49.172   7.357  15.758  0.00  0.00    +0.000 A 
ATOM     10  N   UNL     1      48.932   7.867  14.494  0.00  0.00    +0.000 N 
ENDROOT
BRANCH   5  11
ATOM     11  C   UNL     1      50.809   5.763  19.264  0.00  0.00    +0.000 C 
ATOM     12  N   UNL     1      50.744   4.404  19.423  0.00  0.00    +0.000 N 
ATOM     13  O   UNL     1      51.301   6.450  20.140  0.00  0.00    +0.000 OA
ATOM     14  H   UNL     1      50.419   3.759  18.718  0.00  0.00    +0.000 HD
ATOM     15  H   UNL     1      51.142   4.019  20.271  0.00  0.00    +0.000 HD
ENDBRANCH   5  11
BRANCH   1  17
ATOM     16  C   UNL     1      50.075   7.715  11.394  0.00  0.00    +0.000 C 
ATOM     17  C   UNL     1      50.564   8.644  12.542  0.00  0.00    +0.000 C 
ATOM     18  C   UNL     1      52.098   8.730  12.456  0.00  0.00    +0.000 C 
ATOM     19  C   UNL     1      49.950  10.014  12.272  0.00  0.00    +0.000 C 
ENDBRANCH   1  17
BRANCH  10  20
ATOM     20  C   UNL     1      47.589   8.228  14.045  0.00  0.00    +0.000 C 
BRANCH  20  21
ATOM     21  C   UNL     1      46.927   7.112  13.259  0.00  0.00    +0.000 A 
ATOM     22  C   UNL     1      46.103   7.374  12.153  0.00  0.00    +0.000 A 
ATOM     23  C   UNL     1      45.366   6.350  11.533  0.00  0.00    +0.000 A 
ATOM     24  C   UNL     1      45.471   5.040  11.988  0.00  0.00    +0.000 A 
ATOM     25  C   UNL     1      46.369   4.762  13.021  0.00  0.00    +0.000 A 
ATOM     26  C   UNL     1      47.109   5.777  13.630  0.00  0.00    +0.000 A 
BRANCH  24  27
ATOM     27  O   UNL     1      44.818   3.937  11.531  0.00  0.00    +0.000 OA
BRANCH  27  28
ATOM     28  C   UNL     1      43.462   3.703  11.865  0.00  0.00    +0.000 C 
ATOM     29  F   UNL     1      43.100   2.416  11.692  0.00  0.00    +0.000 F 
ATOM     30  F   UNL     1      43.299   4.000  13.175  0.00  0.00    +0.000 F 
ATOM     31  F   UNL     1      42.646   4.504  11.148  0.00  0.00    +0.000 F 
ENDBRANCH  27  28
ENDBRANCH  24  27
ENDBRANCH  20  21
ENDBRANCH  10  20
TORSDOF 6
ENDMDL
MODEL 6
REMARK VINA RESULT:    -5.419      4.499      7.743
REMARK INTER + INTRA:          -8.683
REMARK INTER:                  -7.604
REMARK INTRA:                  -1.079
REMARK UNBOUND:                -1.363
REMARK  Name = 
REMARK  9 active torsions:
REMARK  status: ('A' for Active; 'I' for Inactive)
REMARK    1  A    between atoms: C_1  and  C_2
REMARK    2  A    between atoms: C_2  and  C_3
REMARK    3  A    between atoms: C_2  and  C_4
REMARK    4  A    between atoms: C_2  and  C_5
REMARK    5  A    between atoms: C_9  and  C_10
REMARK    6  A    between atoms: N_17  and  C_18
REMARK    7  A    between atoms: C_18  and  C_19
REMARK    8  A    between atoms: C_22  and  O_23
REMARK    9  A    between atoms: O_23  and  C_24
REMARK                            x       y       z     vdW  Elec       q    Type
REMARK                         _______ _______ _______ _____ _____    ______ ____
ROOT
ATOM      1  C   UNL     1      48.385   6.449  15.292  0.00  0.00    +0.000 A 
ATOM      2  N   UNL     1      48.250   6.889  14.048  0.00  0.00    +0.000 NA
ATOM      3  C   UNL     1      47.283   6.146  13.468  0.00  0.00    +0.000 A 
ATOM      4  C   UNL     1      46.785   6.195  12.169  0.00  0.00    +0.000 A 
ATOM      5  C   UNL     1      45.802   5.262  11.826  0.00  0.00    +0.000 A 
ATOM      6  C   UNL     1      45.364   4.366  12.807  0.00  0.00    +0.000 A 
ATOM      7 CL   UNL     1      44.194   3.129  12.523  0.00  0.00    +0.000 Cl
ATOM      8  N   UNL     1      45.819   4.304  14.096  0.00  0.00    +0.000 NA
ATOM      9  C   UNL     1      46.775   5.219  14.354  0.00  0.00    +0.000 A 
ATOM     10  N   UNL     1      47.450   5.444  15.541  0.00  0.00    +0.000 N 
ENDROOT
BRANCH   5  11
ATOM     11  C   UNL     1      45.259   5.290  10.453  0.00  0.00    +0.000 C 
ATOM     12  N   UNL     1      43.907   5.459  10.312  0.00  0.00    +0.000 N 
ATOM     13  O   UNL     1      45.956   5.142   9.467  0.00  0.00    +0.000 OA
ATOM     14  H   UNL     1      43.272   5.659  11.070  0.00  0.00    +0.000 HD
ATOM     15  H   UNL     1      43.542   5.481   9.367  0.00  0.00    +0.000 HD
ENDBRANCH   5  11
BRANCH   1  17
ATOM     16  C   UNL     1      48.913   7.388  17.538  0.00  0.00    +0.000 C 
ATOM     17  C   UNL     1      49.515   7.004  16.155  0.00  0.00    +0.000 C 
ATOM     18  C   UNL     1      50.059   8.289  15.507  0.00  0.00    +0.000 C 
ATOM     19  C   UNL     1      50.660   6.039  16.441  0.00  0.00    +0.000 C 
ENDBRANCH   1  17
BRANCH  10  20
ATOM     20  C   UNL     1      47.186   4.657  16.744  0.00  0.00    +0.000 C 
BRANCH  20  21
ATOM     21  C   UNL     1      48.281   3.643  17.019  0.00  0.00    +0.000 A 
ATOM     22  C   UNL     1      49.078   3.709  18.173  0.00  0.00    +0.000 A 
ATOM     23  C   UNL     1      50.191   2.867  18.340  0.00  0.00    +0.000 A 
ATOM     24  C   UNL     1      50.502   1.919  17.371  0.00  0.00    +0.000 A 
ATOM     25  C   UNL     1      49.650   1.783  16.272  0.00  0.00    +0.000 A 
ATOM     26  C   UNL     1      48.539   2.612  16.111  0.00  0.00    +0.000 A 
BRANCH  24  27
ATOM     27  O   UNL     1      51.547   1.047  17.352  0.00  0.00    +0.000 OA
BRANCH  27  28
ATOM     28  C   UNL     1      52.874   1.497  17.560  0.00  0.00    +0.000 C 
ATOM     29  F   UNL     1      53.320   1.236  18.805  0.00  0.00    +0.000 F 
ATOM     30  F   UNL     1      53.677   0.838  16.693  0.00  0.00    +0.000 F 
ATOM     31  F   UNL     1      52.979   2.818  17.307  0.00  0.00    +0.000 F 
ENDBRANCH  27  28
ENDBRANCH  24  27
ENDBRANCH  20  21
ENDBRANCH  10  20
TORSDOF 6
ENDMDL
MODEL 7
REMARK VINA RESULT:    -5.367      2.993      3.907
REMARK INTER + INTRA:          -8.613
REMARK INTER:                  -7.879
REMARK INTRA:                  -0.734
REMARK UNBOUND:                -1.363
REMARK  Name = 
REMARK  9 active torsions:
REMARK  status: ('A' for Active; 'I' for Inactive)
REMARK    1  A    between atoms: C_1  and  C_2
REMARK    2  A    between atoms: C_2  and  C_3
REMARK    3  A    between atoms: C_2  and  C_4
REMARK    4  A    between atoms: C_2  and  C_5
REMARK    5  A    between atoms: C_9  and  C_10
REMARK    6  A    between atoms: N_17  and  C_18
REMARK    7  A    between atoms: C_18  and  C_19
REMARK    8  A    between atoms: C_22  and  O_23
REMARK    9  A    between atoms: O_23  and  C_24
REMARK                            x       y       z     vdW  Elec       q    Type
REMARK                         _______ _______ _______ _____ _____    ______ ____
ROOT
ATOM      1  C   UNL     1      45.011   9.345  11.657  0.00  0.00    +0.000 A 
ATOM      2  N   UNL     1      46.032  10.168  11.856  0.00  0.00    +0.000 NA
ATOM      3  C   UNL     1      46.942   9.498  12.595  0.00  0.00    +0.000 A 
ATOM      4  C   UNL     1      48.172   9.924  13.088  0.00  0.00    +0.000 A 
ATOM      5  C   UNL     1      48.893   9.019  13.872  0.00  0.00    +0.000 A 
ATOM      6  C   UNL     1      48.355   7.745  14.086  0.00  0.00    +0.000 A 
ATOM      7 CL   UNL     1      49.103   6.538  15.067  0.00  0.00    +0.000 Cl
ATOM      8  N   UNL     1      47.159   7.291  13.600  0.00  0.00    +0.000 NA
ATOM      9  C   UNL     1      46.510   8.217  12.867  0.00  0.00    +0.000 A 
ATOM     10  N   UNL     1      45.288   8.102  12.226  0.00  0.00    +0.000 N 
ENDROOT
BRANCH   5  11
ATOM     11  C   UNL     1      50.200   9.446  14.411  0.00  0.00    +0.000 C 
ATOM     12  N   UNL     1      51.313   9.183  13.655  0.00  0.00    +0.000 N 
ATOM     13  O   UNL     1      50.320   9.987  15.494  0.00  0.00    +0.000 OA
ATOM     14  H   UNL     1      51.294   8.805  12.720  0.00  0.00    +0.000 HD
ATOM     15  H   UNL     1      52.205   9.482  14.030  0.00  0.00    +0.000 HD
ENDBRANCH   5  11
BRANCH   1  17
ATOM     16  C   UNL     1      44.164  10.406   9.568  0.00  0.00    +0.000 C 
ATOM     17  C   UNL     1      43.754   9.878  10.973  0.00  0.00    +0.000 C 
ATOM     18  C   UNL     1      43.206  11.067  11.780  0.00  0.00    +0.000 C 
ATOM     19  C   UNL     1      42.648   8.854  10.738  0.00  0.00    +0.000 C 
ENDBRANCH   1  17
BRANCH  10  20
ATOM     20  C   UNL     1      44.501   6.871  12.270  0.00  0.00    +0.000 C 
BRANCH  20  21
ATOM     21  C   UNL     1      44.813   5.948  11.107  0.00  0.00    +0.000 A 
ATOM     22  C   UNL     1      45.953   6.125  10.308  0.00  0.00    +0.000 A 
ATOM     23  C   UNL     1      46.149   5.369   9.138  0.00  0.00    +0.000 A 
ATOM     24  C   UNL     1      45.224   4.397   8.771  0.00  0.00    +0.000 A 
ATOM     25  C   UNL     1      44.142   4.150   9.621  0.00  0.00    +0.000 A 
ATOM     26  C   UNL     1      43.954   4.893  10.787  0.00  0.00    +0.000 A 
BRANCH  24  27
ATOM     27  O   UNL     1      45.237   3.598   7.670  0.00  0.00    +0.000 OA
BRANCH  27  28
ATOM     28  C   UNL     1      46.348   2.768   7.385  0.00  0.00    +0.000 C 
ATOM     29  F   UNL     1      46.517   1.795   8.303  0.00  0.00    +0.000 F 
ATOM     30  F   UNL     1      46.126   2.169   6.193  0.00  0.00    +0.000 F 
ATOM     31  F   UNL     1      47.479   3.498   7.284  0.00  0.00    +0.000 F 
ENDBRANCH  27  28
ENDBRANCH  24  27
ENDBRANCH  20  21
ENDBRANCH  10  20
TORSDOF 6
ENDMDL
MODEL 8
REMARK VINA RESULT:    -5.359      3.907      6.908
REMARK INTER + INTRA:          -8.601
REMARK INTER:                  -7.843
REMARK INTRA:                  -0.758
REMARK UNBOUND:                -1.363
REMARK  Name = 
REMARK  9 active torsions:
REMARK  status: ('A' for Active; 'I' for Inactive)
REMARK    1  A    between atoms: C_1  and  C_2
REMARK    2  A    between atoms: C_2  and  C_3
REMARK    3  A    between atoms: C_2  and  C_4
REMARK    4  A    between atoms: C_2  and  C_5
REMARK    5  A    between atoms: C_9  and  C_10
REMARK    6  A    between atoms: N_17  and  C_18
REMARK    7  A    between atoms: C_18  and  C_19
REMARK    8  A    between atoms: C_22  and  O_23
REMARK    9  A    between atoms: O_23  and  C_24
REMARK                            x       y       z     vdW  Elec       q    Type
REMARK                         _______ _______ _______ _____ _____    ______ ____
ROOT
ATOM      1  C   UNL     1      47.966   4.696  15.584  0.00  0.00    +0.000 A 
ATOM      2  N   UNL     1      47.457   3.611  15.015  0.00  0.00    +0.000 NA
ATOM      3  C   UNL     1      46.754   4.023  13.938  0.00  0.00    +0.000 A 
ATOM      4  C   UNL     1      46.014   3.280  13.024  0.00  0.00    +0.000 A 
ATOM      5  C   UNL     1      45.343   3.985  12.021  0.00  0.00    +0.000 A 
ATOM      6  C   UNL     1      45.480   5.376  11.980  0.00  0.00    +0.000 A 
ATOM      7 CL   UNL     1      44.678   6.387  10.832  0.00  0.00    +0.000 Cl
ATOM      8  N   UNL     1      46.214   6.135  12.851  0.00  0.00    +0.000 NA
ATOM      9  C   UNL     1      46.820   5.394  13.800  0.00  0.00    +0.000 A 
ATOM     10  N   UNL     1      47.638   5.824  14.832  0.00  0.00    +0.000 N 
ENDROOT
BRANCH   5  11
ATOM     11  C   UNL     1      44.547   3.220  11.040  0.00  0.00    +0.000 C 
ATOM     12  N   UNL     1      45.230   2.497  10.097  0.00  0.00    +0.000 N 
ATOM     13  O   UNL     1      43.330   3.234  11.025  0.00  0.00    +0.000 OA
ATOM     14  H   UNL     1      46.232   2.376  10.082  0.00  0.00    +0.000 HD
ATOM     15  H   UNL     1      44.678   1.973   9.430  0.00  0.00    +0.000 HD
ENDBRANCH   5  11
BRANCH   1  17
ATOM     16  C   UNL     1      47.799   5.198  18.018  0.00  0.00    +0.000 C 
ATOM     17  C   UNL     1      48.695   4.558  16.919  0.00  0.00    +0.000 C 
ATOM     18  C   UNL     1      50.009   5.356  16.861  0.00  0.00    +0.000 C 
ATOM     19  C   UNL     1      48.973   3.129  17.373  0.00  0.00    +0.000 C 
ENDBRANCH   1  17
BRANCH  10  20
ATOM     20  C   UNL     1      47.964   7.235  15.027  0.00  0.00    +0.000 C 
BRANCH  20  21
ATOM     21  C   UNL     1      49.084   7.696  14.113  0.00  0.00    +0.000 A 
ATOM     22  C   UNL     1      48.863   7.982  12.757  0.00  0.00    +0.000 A 
ATOM     23  C   UNL     1      49.931   8.251  11.883  0.00  0.00    +0.000 A 
ATOM     24  C   UNL     1      51.237   8.275  12.363  0.00  0.00    +0.000 A 
ATOM     25  C   UNL     1      51.449   8.092  13.732  0.00  0.00    +0.000 A 
ATOM     26  C   UNL     1      50.387   7.836  14.601  0.00  0.00    +0.000 A 
BRANCH  24  27
ATOM     27  O   UNL     1      52.385   8.488  11.664  0.00  0.00    +0.000 OA
BRANCH  27  28
ATOM     28  C   UNL     1      52.643   7.792  10.459  0.00  0.00    +0.000 C 
ATOM     29  F   UNL     1      52.007   6.606  10.398  0.00  0.00    +0.000 F 
ATOM     30  F   UNL     1      52.190   8.551   9.435  0.00  0.00    +0.000 F 
ATOM     31  F   UNL     1      53.969   7.605  10.287  0.00  0.00    +0.000 F 
ENDBRANCH  27  28
ENDBRANCH  24  27
ENDBRANCH  20  21
ENDBRANCH  10  20
TORSDOF 6
ENDMDL
MODEL 9
REMARK VINA RESULT:    -5.063      4.990      6.993
REMARK INTER + INTRA:          -8.202
REMARK INTER:                  -6.557
REMARK INTRA:                  -1.645
REMARK UNBOUND:                -1.363
REMARK  Name = 
REMARK  9 active torsions:
REMARK  status: ('A' for Active; 'I' for Inactive)
REMARK    1  A    between atoms: C_1  and  C_2
REMARK    2  A    between atoms: C_2  and  C_3
REMARK    3  A    between atoms: C_2  and  C_4
REMARK    4  A    between atoms: C_2  and  C_5
REMARK    5  A    between atoms: C_9  and  C_10
REMARK    6  A    between atoms: N_17  and  C_18
REMARK    7  A    between atoms: C_18  and  C_19
REMARK    8  A    between atoms: C_22  and  O_23
REMARK    9  A    between atoms: O_23  and  C_24
REMARK                            x       y       z     vdW  Elec       q    Type
REMARK                         _______ _______ _______ _____ _____    ______ ____
ROOT
ATOM      1  C   UNL     1      49.162   3.816  17.580  0.00  0.00    +0.000 A 
ATOM      2  N   UNL     1      49.531   2.555  17.397  0.00  0.00    +0.000 NA
ATOM      3  C   UNL     1      50.869   2.505  17.568  0.00  0.00    +0.000 A 
ATOM      4  C   UNL     1      51.737   1.423  17.462  0.00  0.00    +0.000 A 
ATOM      5  C   UNL     1      53.099   1.675  17.651  0.00  0.00    +0.000 A 
ATOM      6  C   UNL     1      53.498   2.980  17.960  0.00  0.00    +0.000 A 
ATOM      7 CL   UNL     1      55.143   3.456  18.175  0.00  0.00    +0.000 Cl
ATOM      8  N   UNL     1      52.668   4.061  18.090  0.00  0.00    +0.000 NA
ATOM      9  C   UNL     1      51.374   3.750  17.880  0.00  0.00    +0.000 A 
ATOM     10  N   UNL     1      50.271   4.586  17.934  0.00  0.00    +0.000 N 
ENDROOT
BRANCH   5  11
ATOM     11  C   UNL     1      54.043   0.545  17.540  0.00  0.00    +0.000 C 
ATOM     12  N   UNL     1      54.320  -0.162  18.681  0.00  0.00    +0.000 N 
ATOM     13  O   UNL     1      54.593   0.246  16.496  0.00  0.00    +0.000 OA
ATOM     14  H   UNL     1      53.856  -0.026  19.567  0.00  0.00    +0.000 HD
ATOM     15  H   UNL     1      54.965  -0.938  18.596  0.00  0.00    +0.000 HD
ENDBRANCH   5  11
BRANCH   1  17
ATOM     16  C   UNL     1      46.839   2.931  17.429  0.00  0.00    +0.000 C 
ATOM     17  C   UNL     1      47.714   4.211  17.304  0.00  0.00    +0.000 C 
ATOM     18  C   UNL     1      47.597   4.721  15.857  0.00  0.00    +0.000 C 
ATOM     19  C   UNL     1      47.115   5.233  18.266  0.00  0.00    +0.000 C 
ENDBRANCH   1  17
BRANCH  10  20
ATOM     20  C   UNL     1      50.390   6.008  18.248  0.00  0.00    +0.000 C 
BRANCH  20  21
ATOM     21  C   UNL     1      50.093   6.888  17.048  0.00  0.00    +0.000 A 
ATOM     22  C   UNL     1      49.045   7.821  17.056  0.00  0.00    +0.000 A 
ATOM     23  C   UNL     1      48.675   8.514  15.890  0.00  0.00    +0.000 A 
ATOM     24  C   UNL     1      49.373   8.310  14.705  0.00  0.00    +0.000 A 
ATOM     25  C   UNL     1      50.481   7.459  14.720  0.00  0.00    +0.000 A 
ATOM     26  C   UNL     1      50.855   6.779  15.881  0.00  0.00    +0.000 A 
BRANCH  24  27
ATOM     27  O   UNL     1      49.140   8.867  13.485  0.00  0.00    +0.000 OA
BRANCH  27  28
ATOM     28  C   UNL     1      48.352   8.198  12.518  0.00  0.00    +0.000 C 
ATOM     29  F   UNL     1      47.428   9.003  11.956  0.00  0.00    +0.000 F 
ATOM     30  F   UNL     1      49.175   7.772  11.532  0.00  0.00    +0.000 F 
ATOM     31  F   UNL     1      47.746   7.119  13.055  0.00  0.00    +0.000 F 
ENDBRANCH  27  28
ENDBRANCH  24  27
ENDBRANCH  20  21
ENDBRANCH  10  20
TORSDOF 6
ENDMDL
