MODEL 1
REMARK VINA RESULT:    -8.060      0.000      0.000
REMARK INTER + INTRA:         -11.871
REMARK INTER:                 -10.887
REMARK INTRA:                  -0.984
REMARK UNBOUND:                -0.984
REMARK  Name = 
REMARK  8 active torsions:
REMARK  status: ('A' for Active; 'I' for Inactive)
REMARK    1  A    between atoms: C_1  and  C_2
REMARK    2  A    between atoms: C_2  and  N_3
REMARK    3  A    between atoms: C_2  and  C_18
REMARK    4  A    between atoms: N_3  and  C_4
REMARK    5  A    between atoms: C_7  and  C_8
REMARK    6  A    between atoms: C_8  and  N_9
REMARK    7  A    between atoms: N_9  and  C_10
REMARK    8  A    between atoms: N_13  and  C_14
REMARK                            x       y       z     vdW  Elec       q    Type
REMARK                         _______ _______ _______ _____ _____    ______ ____
ROOT
ATOM      1  N   UNL     1      46.971   7.143  13.959  0.00  0.00    +0.000 N 
ATOM      2  H   UNL     1      46.626   7.891  14.556  0.00  0.00    +0.000 HD
ENDROOT
BRANCH   1   3
ATOM      3  C   UNL     1      46.183   6.652  12.938  0.00  0.00    +0.000 A 
ATOM      4  C   UNL     1      44.954   6.032  13.185  0.00  0.00    +0.000 A 
ATOM      5  C   UNL     1      44.255   5.369  12.176  0.00  0.00    +0.000 A 
ATOM      6  C   UNL     1      44.785   5.289  10.888  0.00  0.00    +0.000 A 
ATOM      7  C   UNL     1      45.981   5.968  10.612  0.00  0.00    +0.000 A 
ATOM      8  C   UNL     1      46.666   6.648  11.626  0.00  0.00    +0.000 A 
BRANCH   6   9
ATOM      9  C   UNL     1      44.127   4.410   9.850  0.00  0.00    +0.000 C 
BRANCH   9  10
ATOM     10  N   UNL     1      44.755   4.531   8.537  0.00  0.00    +0.000 NA
ATOM     11  H   UNL     1      45.700   4.901   8.646  0.00  0.00    +0.000 HD
BRANCH  10  12
ATOM     12  C   UNL     1      44.832   3.238   7.836  0.00  0.00    +0.000 C 
ATOM     13  C   UNL     1      45.204   2.065   8.758  0.00  0.00    +0.000 C 
ATOM     14  C   UNL     1      46.398   1.392   8.102  0.00  0.00    +0.000 C 
ATOM     15  N   UNL     1      47.043   2.501   7.405  0.00  0.00    +0.000 NA
ATOM     16  C   UNL     1      48.050   2.051   6.457  0.00  0.00    +0.000 C 
ATOM     17  C   UNL     1      45.944   3.232   6.764  0.00  0.00    +0.000 C 
ENDBRANCH  10  12
ENDBRANCH   9  10
ENDBRANCH   6   9
ENDBRANCH   1   3
BRANCH   1  19
ATOM     18  C   UNL     1      49.347   7.558  13.624  0.00  0.00    +0.000 C 
ATOM     19  C   UNL     1      48.302   6.617  14.229  0.00  0.00    +0.000 C 
BRANCH  19  20
ATOM     20  C   UNL     1      48.614   6.292  15.672  0.00  0.00    +0.000 A 
ATOM     21  C   UNL     1      49.333   7.144  16.496  0.00  0.00    +0.000 A 
ATOM     22  S   UNL     1      49.636   6.489  18.042  0.00  0.00    +0.000 S 
ATOM     23  C   UNL     1      48.753   5.078  17.681  0.00  0.00    +0.000 A 
ATOM     24  N   UNL     1      48.599   4.092  18.604  0.00  0.00    +0.000 NA
ATOM     25  C   UNL     1      47.872   3.102  18.204  0.00  0.00    +0.000 A 
ATOM     26  N   UNL     1      47.290   3.006  16.966  0.00  0.00    +0.000 N 
ATOM     27  C   UNL     1      47.412   3.979  16.001  0.00  0.00    +0.000 A 
ATOM     28  O   UNL     1      46.819   3.885  14.927  0.00  0.00    +0.000 OA
ATOM     29  C   UNL     1      48.235   5.107  16.398  0.00  0.00    +0.000 A 
ATOM     30  H   UNL     1      46.707   2.218  16.729  0.00  0.00    +0.000 HD
ENDBRANCH  19  20
ENDBRANCH   1  19
TORSDOF 6
ENDMDL
MODEL 2
REMARK VINA RESULT:    -7.281      2.187      2.788
REMARK INTER + INTRA:         -10.819
REMARK INTER:                 -10.043
REMARK INTRA:                  -0.777
REMARK UNBOUND:                -0.984
REMARK  Name = 
REMARK  8 active torsions:
REMARK  status: ('A' for Active; 'I' for Inactive)
REMARK    1  A    between atoms: C_1  and  C_2
REMARK    2  A    between atoms: C_2  and  N_3
REMARK    3  A    between atoms: C_2  and  C_18
REMARK    4  A    between atoms: N_3  and  C_4
REMARK    5  A    between atoms: C_7  and  C_8
REMARK    6  A    between atoms: C_8  and  N_9
REMARK    7  A    between atoms: N_9  and  C_10
REMARK    8  A    between atoms: N_13  and  C_14
REMARK                            x       y       z     vdW  Elec       q    Type
REMARK                         _______ _______ _______ _____ _____    ______ ____
ROOT
ATOM      1  N   UNL     1      47.956   4.001  15.135  0.00  0.00    +0.000 N 
ATOM      2  H   UNL     1      48.686   3.332  14.902  0.00  0.00    +0.000 HD
ENDROOT
BRANCH   1   3
ATOM      3  C   UNL     1      47.062   4.417  14.170  0.00  0.00    +0.000 A 
ATOM      4  C   UNL     1      46.140   3.539  13.590  0.00  0.00    +0.000 A 
ATOM      5  C   UNL     1      45.373   3.911  12.486  0.00  0.00    +0.000 A 
ATOM      6  C   UNL     1      45.530   5.174  11.913  0.00  0.00    +0.000 A 
ATOM      7  C   UNL     1      46.398   6.085  12.529  0.00  0.00    +0.000 A 
ATOM      8  C   UNL     1      47.149   5.711  13.650  0.00  0.00    +0.000 A 
BRANCH   6   9
ATOM      9  C   UNL     1      44.846   5.504  10.607  0.00  0.00    +0.000 C 
BRANCH   9  10
ATOM     10  N   UNL     1      45.663   5.159   9.446  0.00  0.00    +0.000 NA
ATOM     11  H   UNL     1      46.573   4.819   9.762  0.00  0.00    +0.000 HD
BRANCH  10  12
ATOM     12  C   UNL     1      45.035   4.120   8.612  0.00  0.00    +0.000 C 
ATOM     13  C   UNL     1      44.551   2.902   9.417  0.00  0.00    +0.000 C 
ATOM     14  C   UNL     1      45.179   1.693   8.744  0.00  0.00    +0.000 C 
ATOM     15  N   UNL     1      46.419   2.241   8.201  0.00  0.00    +0.000 NA
ATOM     16  C   UNL     1      47.057   1.339   7.254  0.00  0.00    +0.000 C 
ATOM     17  C   UNL     1      46.031   3.520   7.596  0.00  0.00    +0.000 C 
ENDBRANCH  10  12
ENDBRANCH   9  10
ENDBRANCH   6   9
ENDBRANCH   1   3
BRANCH   1  19
ATOM     18  C   UNL     1      46.807   3.743  17.267  0.00  0.00    +0.000 C 
ATOM     19  C   UNL     1      47.900   4.496  16.504  0.00  0.00    +0.000 C 
BRANCH  19  20
ATOM     20  C   UNL     1      49.206   4.506  17.266  0.00  0.00    +0.000 A 
ATOM     21  C   UNL     1      49.630   5.591  18.017  0.00  0.00    +0.000 A 
ATOM     22  S   UNL     1      51.187   5.382  18.684  0.00  0.00    +0.000 S 
ATOM     23  C   UNL     1      51.310   3.806  18.049  0.00  0.00    +0.000 A 
ATOM     24  N   UNL     1      52.412   3.043  18.276  0.00  0.00    +0.000 NA
ATOM     25  C   UNL     1      52.348   1.857  17.767  0.00  0.00    +0.000 A 
ATOM     26  N   UNL     1      51.286   1.367  17.051  0.00  0.00    +0.000 N 
ATOM     27  C   UNL     1      50.148   2.098  16.800  0.00  0.00    +0.000 A 
ATOM     28  O   UNL     1      49.191   1.599  16.210  0.00  0.00    +0.000 OA
ATOM     29  C   UNL     1      50.179   3.446  17.338  0.00  0.00    +0.000 A 
ATOM     30  H   UNL     1      51.288   0.419  16.708  0.00  0.00    +0.000 HD
ENDBRANCH  19  20
ENDBRANCH   1  19
TORSDOF 6
ENDMDL
MODEL 3
REMARK VINA RESULT:    -6.869      2.360      3.021
REMARK INTER + INTRA:         -10.263
REMARK INTER:                  -9.273
REMARK INTRA:                  -0.990
REMARK UNBOUND:                -0.984
REMARK  Name = 
REMARK  8 active torsions:
REMARK  status: ('A' for Active; 'I' for Inactive)
REMARK    1  A    between atoms: C_1  and  C_2
REMARK    2  A    between atoms: C_2  and  N_3
REMARK    3  A    between atoms: C_2  and  C_18
REMARK    4  A    between atoms: N_3  and  C_4
REMARK    5  A    between atoms: C_7  and  C_8
REMARK    6  A    between atoms: C_8  and  N_9
REMARK    7  A    between atoms: N_9  and  C_10
REMARK    8  A    between atoms: N_13  and  C_14
REMARK                            x       y       z     vdW  Elec       q    Type
REMARK                         _______ _______ _______ _____ _____    ______ ____
ROOT
ATOM      1  N   UNL     1      48.189   6.696  14.760  0.00  0.00    +0.000 N 
ATOM      2  H   UNL     1      48.162   6.162  15.626  0.00  0.00    +0.000 HD
ENDROOT
BRANCH   1   3
ATOM      3  C   UNL     1      47.518   6.241  13.643  0.00  0.00    +0.000 A 
ATOM      4  C   UNL     1      47.505   6.963  12.445  0.00  0.00    +0.000 A 
ATOM      5  C   UNL     1      46.673   6.602  11.385  0.00  0.00    +0.000 A 
ATOM      6  C   UNL     1      45.807   5.514  11.508  0.00  0.00    +0.000 A 
ATOM      7  C   UNL     1      45.863   4.742  12.677  0.00  0.00    +0.000 A 
ATOM      8  C   UNL     1      46.716   5.100  13.728  0.00  0.00    +0.000 A 
BRANCH   6   9
ATOM      9  C   UNL     1      44.772   5.244  10.441  0.00  0.00    +0.000 C 
BRANCH   9  10
ATOM     10  N   UNL     1      45.361   5.130   9.109  0.00  0.00    +0.000 NA
ATOM     11  H   UNL     1      46.376   5.058   9.192  0.00  0.00    +0.000 HD
BRANCH  10  12
ATOM     12  C   UNL     1      44.863   3.952   8.379  0.00  0.00    +0.000 C 
ATOM     13  C   UNL     1      44.568   2.749   9.292  0.00  0.00    +0.000 C 
ATOM     14  C   UNL     1      45.341   1.584   8.694  0.00  0.00    +0.000 C 
ATOM     15  N   UNL     1      46.482   2.248   8.070  0.00  0.00    +0.000 NA
ATOM     16  C   UNL     1      47.216   1.367   7.177  0.00  0.00    +0.000 C 
ATOM     17  C   UNL     1      45.909   3.410   7.380  0.00  0.00    +0.000 C 
ENDBRANCH  10  12
ENDBRANCH   9  10
ENDBRANCH   6   9
ENDBRANCH   1   3
BRANCH   1  19
ATOM     18  C   UNL     1      48.328   8.927  15.726  0.00  0.00    +0.000 C 
ATOM     19  C   UNL     1      48.959   7.933  14.748  0.00  0.00    +0.000 C 
BRANCH  19  20
ATOM     20  C   UNL     1      50.448   7.796  14.975  0.00  0.00    +0.000 A 
ATOM     21  C   UNL     1      51.386   8.537  14.272  0.00  0.00    +0.000 A 
ATOM     22  S   UNL     1      52.995   8.111  14.643  0.00  0.00    +0.000 S 
ATOM     23  C   UNL     1      52.487   6.976  15.807  0.00  0.00    +0.000 A 
ATOM     24  N   UNL     1      53.390   6.259  16.528  0.00  0.00    +0.000 NA
ATOM     25  C   UNL     1      52.861   5.467  17.401  0.00  0.00    +0.000 A 
ATOM     26  N   UNL     1      51.514   5.323  17.615  0.00  0.00    +0.000 N 
ATOM     27  C   UNL     1      50.563   6.029  16.915  0.00  0.00    +0.000 A 
ATOM     28  O   UNL     1      49.367   5.920  17.184  0.00  0.00    +0.000 OA
ATOM     29  C   UNL     1      51.109   6.922  15.910  0.00  0.00    +0.000 A 
ATOM     30  H   UNL     1      51.168   4.709  18.335  0.00  0.00    +0.000 HD
ENDBRANCH  19  20
ENDBRANCH   1  19
TORSDOF 6
ENDMDL
MODEL 4
REMARK VINA RESULT:    -6.581      2.188      3.287
REMARK INTER + INTRA:          -9.873
REMARK INTER:                  -8.616
REMARK INTRA:                  -1.258
REMARK UNBOUND:                -0.984
REMARK  Name = 
REMARK  8 active torsions:
REMARK  status: ('A' for Active; 'I' for Inactive)
REMARK    1  A    between atoms: C_1  and  C_2
REMARK    2  A    between atoms: C_2  and  N_3
REMARK    3  A    between atoms: C_2  and  C_18
REMARK    4  A    between atoms: N_3  and  C_4
REMARK    5  A    between atoms: C_7  and  C_8
REMARK    6  A    between atoms: C_8  and  N_9
REMARK    7  A    between atoms: N_9  and  C_10
REMARK    8  A    between atoms: N_13  and  C_14
REMARK                            x       y       z     vdW  Elec       q    Type
REMARK                         _______ _______ _______ _____ _____    ______ ____
ROOT
ATOM      1  N   UNL     1      49.797   8.602  14.186  0.00  0.00    +0.000 N 
ATOM      2  H   UNL     1      50.243   9.516  14.154  0.00  0.00    +0.000 HD
ENDROOT
BRANCH   1   3
ATOM      3  C   UNL     1      48.645   8.367  13.464  0.00  0.00    +0.000 A 
ATOM      4  C   UNL     1      47.405   8.876  13.866  0.00  0.00    +0.000 A 
ATOM      5  C   UNL     1      46.219   8.480  13.248  0.00  0.00    +0.000 A 
ATOM      6  C   UNL     1      46.241   7.537  12.219  0.00  0.00    +0.000 A 
ATOM      7  C   UNL     1      47.483   7.074  11.762  0.00  0.00    +0.000 A 
ATOM      8  C   UNL     1      48.671   7.493  12.374  0.00  0.00    +0.000 A 
BRANCH   6   9
ATOM      9  C   UNL     1      44.948   6.966  11.686  0.00  0.00    +0.000 C 
BRANCH   9  10
ATOM     10  N   UNL     1      44.129   6.363  12.734  0.00  0.00    +0.000 NA
ATOM     11  H   UNL     1      43.574   7.090  13.189  0.00  0.00    +0.000 HD
BRANCH  10  12
ATOM     12  C   UNL     1      43.218   5.334  12.207  0.00  0.00    +0.000 C 
ATOM     13  C   UNL     1      43.268   4.013  12.993  0.00  0.00    +0.000 C 
ATOM     14  C   UNL     1      43.528   2.931  11.958  0.00  0.00    +0.000 C 
ATOM     15  N   UNL     1      44.294   3.644  10.940  0.00  0.00    +0.000 NA
ATOM     16  C   UNL     1      44.409   2.891   9.701  0.00  0.00    +0.000 C 
ATOM     17  C   UNL     1      43.591   4.921  10.766  0.00  0.00    +0.000 C 
ENDBRANCH  10  12
ENDBRANCH   9  10
ENDBRANCH   6   9
ENDBRANCH   1   3
BRANCH   1  19
ATOM     18  C   UNL     1      51.928   7.788  15.039  0.00  0.00    +0.000 C 
ATOM     19  C   UNL     1      50.412   7.574  15.015  0.00  0.00    +0.000 C 
BRANCH  19  20
ATOM     20  C   UNL     1      49.850   7.415  16.409  0.00  0.00    +0.000 A 
ATOM     21  C   UNL     1      50.236   8.216  17.472  0.00  0.00    +0.000 A 
ATOM     22  S   UNL     1      49.531   7.755  18.955  0.00  0.00    +0.000 S 
ATOM     23  C   UNL     1      48.632   6.516  18.208  0.00  0.00    +0.000 A 
ATOM     24  N   UNL     1      47.785   5.733  18.928  0.00  0.00    +0.000 NA
ATOM     25  C   UNL     1      47.141   4.863  18.223  0.00  0.00    +0.000 A 
ATOM     26  N   UNL     1      47.269   4.703  16.867  0.00  0.00    +0.000 N 
ATOM     27  C   UNL     1      48.108   5.473  16.095  0.00  0.00    +0.000 A 
ATOM     28  O   UNL     1      48.145   5.341  14.873  0.00  0.00    +0.000 OA
ATOM     29  C   UNL     1      48.868   6.456  16.847  0.00  0.00    +0.000 A 
ATOM     30  H   UNL     1      46.712   4.023  16.372  0.00  0.00    +0.000 HD
ENDBRANCH  19  20
ENDBRANCH   1  19
TORSDOF 6
ENDMDL
MODEL 5
REMARK VINA RESULT:    -6.454      1.892      2.290
REMARK INTER + INTRA:          -9.702
REMARK INTER:                  -8.824
REMARK INTRA:                  -0.878
REMARK UNBOUND:                -0.984
REMARK  Name = 
REMARK  8 active torsions:
REMARK  status: ('A' for Active; 'I' for Inactive)
REMARK    1  A    between atoms: C_1  and  C_2
REMARK    2  A    between atoms: C_2  and  N_3
REMARK    3  A    between atoms: C_2  and  C_18
REMARK    4  A    between atoms: N_3  and  C_4
REMARK    5  A    between atoms: C_7  and  C_8
REMARK    6  A    between atoms: C_8  and  N_9
REMARK    7  A    between atoms: N_9  and  C_10
REMARK    8  A    between atoms: N_13  and  C_14
REMARK                            x       y       z     vdW  Elec       q    Type
REMARK                         _______ _______ _______ _____ _____    ______ ____
ROOT
ATOM      1  N   UNL     1      47.128   8.869  13.677  0.00  0.00    +0.000 N 
ATOM      2  H   UNL     1      46.699   9.791  13.643  0.00  0.00    +0.000 HD
ENDROOT
BRANCH   1   3
ATOM      3  C   UNL     1      46.487   7.784  13.115  0.00  0.00    +0.000 A 
ATOM      4  C   UNL     1      46.914   6.472  13.347  0.00  0.00    +0.000 A 
ATOM      5  C   UNL     1      46.389   5.396  12.631  0.00  0.00    +0.000 A 
ATOM      6  C   UNL     1      45.433   5.611  11.637  0.00  0.00    +0.000 A 
ATOM      7  C   UNL     1      44.946   6.912  11.446  0.00  0.00    +0.000 A 
ATOM      8  C   UNL     1      45.464   7.983  12.184  0.00  0.00    +0.000 A 
BRANCH   6   9
ATOM      9  C   UNL     1      45.011   4.477  10.733  0.00  0.00    +0.000 C 
BRANCH   9  10
ATOM     10  N   UNL     1      44.938   4.879   9.330  0.00  0.00    +0.000 NA
ATOM     11  H   UNL     1      45.817   5.322   9.059  0.00  0.00    +0.000 HD
BRANCH  10  12
ATOM     12  C   UNL     1      44.690   3.736   8.436  0.00  0.00    +0.000 C 
ATOM     13  C   UNL     1      44.611   2.389   9.174  0.00  0.00    +0.000 C 
ATOM     14  C   UNL     1      45.605   1.480   8.470  0.00  0.00    +0.000 C 
ATOM     15  N   UNL     1      46.610   2.422   7.988  0.00  0.00    +0.000 NA
ATOM     16  C   UNL     1      47.518   1.821   7.024  0.00  0.00    +0.000 C 
ATOM     17  C   UNL     1      45.840   3.537   7.425  0.00  0.00    +0.000 C 
ENDBRANCH  10  12
ENDBRANCH   9  10
ENDBRANCH   6   9
ENDBRANCH   1   3
BRANCH   1  19
ATOM     18  C   UNL     1      49.395   9.756  13.730  0.00  0.00    +0.000 C 
ATOM     19  C   UNL     1      48.420   8.745  14.339  0.00  0.00    +0.000 C 
BRANCH  19  20
ATOM     20  C   UNL     1      48.408   8.820  15.849  0.00  0.00    +0.000 A 
ATOM     21  C   UNL     1      47.983   9.943  16.542  0.00  0.00    +0.000 A 
ATOM     22  S   UNL     1      48.175   9.804  18.232  0.00  0.00    +0.000 S 
ATOM     23  C   UNL     1      48.762   8.212  18.092  0.00  0.00    +0.000 A 
ATOM     24  N   UNL     1      49.101   7.490  19.194  0.00  0.00    +0.000 NA
ATOM     25  C   UNL     1      49.492   6.286  18.938  0.00  0.00    +0.000 A 
ATOM     26  N   UNL     1      49.579   5.739  17.683  0.00  0.00    +0.000 N 
ATOM     27  C   UNL     1      49.243   6.427  16.539  0.00  0.00    +0.000 A 
ATOM     28  O   UNL     1      49.272   5.878  15.438  0.00  0.00    +0.000 OA
ATOM     29  C   UNL     1      48.812   7.793  16.775  0.00  0.00    +0.000 A 
ATOM     30  H   UNL     1      49.863   4.780  17.555  0.00  0.00    +0.000 HD
ENDBRANCH  19  20
ENDBRANCH   1  19
TORSDOF 6
ENDMDL
MODEL 6
REMARK VINA RESULT:    -6.324      2.786      7.977
REMARK INTER + INTRA:          -9.526
REMARK INTER:                  -8.607
REMARK INTRA:                  -0.919
REMARK UNBOUND:                -0.984
REMARK  Name = 
REMARK  8 active torsions:
REMARK  status: ('A' for Active; 'I' for Inactive)
REMARK    1  A    between atoms: C_1  and  C_2
REMARK    2  A    between atoms: C_2  and  N_3
REMARK    3  A    between atoms: C_2  and  C_18
REMARK    4  A    between atoms: N_3  and  C_4
REMARK    5  A    between atoms: C_7  and  C_8
REMARK    6  A    between atoms: C_8  and  N_9
REMARK    7  A    between atoms: N_9  and  C_10
REMARK    8  A    between atoms: N_13  and  C_14
REMARK                            x       y       z     vdW  Elec       q    Type
REMARK                         _______ _______ _______ _____ _____    ______ ____
ROOT
ATOM      1  N   UNL     1      46.332   6.926  11.230  0.00  0.00    +0.000 N 
ATOM      2  H   UNL     1      46.517   6.807  10.237  0.00  0.00    +0.000 HD
ENDROOT
BRANCH   1   3
ATOM      3  C   UNL     1      47.330   7.370  12.074  0.00  0.00    +0.000 A 
ATOM      4  C   UNL     1      48.682   7.287  11.726  0.00  0.00    +0.000 A 
ATOM      5  C   UNL     1      49.692   7.555  12.651  0.00  0.00    +0.000 A 
ATOM      6  C   UNL     1      49.370   7.890  13.967  0.00  0.00    +0.000 A 
ATOM      7  C   UNL     1      48.019   8.044  14.308  0.00  0.00    +0.000 A 
ATOM      8  C   UNL     1      47.012   7.794  13.367  0.00  0.00    +0.000 A 
BRANCH   6   9
ATOM      9  C   UNL     1      50.457   7.987  15.012  0.00  0.00    +0.000 C 
BRANCH   9  10
ATOM     10  N   UNL     1      50.868   6.678  15.513  0.00  0.00    +0.000 NA
ATOM     11  H   UNL     1      51.882   6.667  15.635  0.00  0.00    +0.000 HD
BRANCH  10  12
ATOM     12  C   UNL     1      50.234   6.350  16.800  0.00  0.00    +0.000 C 
ATOM     13  C   UNL     1      51.137   5.526  17.733  0.00  0.00    +0.000 C 
ATOM     14  C   UNL     1      50.318   4.307  18.123  0.00  0.00    +0.000 C 
ATOM     15  N   UNL     1      49.460   4.115  16.957  0.00  0.00    +0.000 NA
ATOM     16  C   UNL     1      48.375   3.182  17.213  0.00  0.00    +0.000 C 
ATOM     17  C   UNL     1      48.985   5.461  16.615  0.00  0.00    +0.000 C 
ENDBRANCH  10  12
ENDBRANCH   9  10
ENDBRANCH   6   9
ENDBRANCH   1   3
BRANCH   1  19
ATOM     18  C   UNL     1      43.995   7.604  11.118  0.00  0.00    +0.000 C 
ATOM     19  C   UNL     1      44.995   6.610  11.715  0.00  0.00    +0.000 C 
BRANCH  19  20
ATOM     20  C   UNL     1      44.538   5.180  11.531  0.00  0.00    +0.000 A 
ATOM     21  C   UNL     1      43.773   4.509  12.471  0.00  0.00    +0.000 A 
ATOM     22  S   UNL     1      43.488   2.876  12.066  0.00  0.00    +0.000 S 
ATOM     23  C   UNL     1      44.317   3.038  10.588  0.00  0.00    +0.000 A 
ATOM     24  N   UNL     1      44.426   1.991   9.727  0.00  0.00    +0.000 NA
ATOM     25  C   UNL     1      45.046   2.272   8.628  0.00  0.00    +0.000 A 
ATOM     26  N   UNL     1      45.569   3.501   8.315  0.00  0.00    +0.000 N 
ATOM     27  C   UNL     1      45.479   4.591   9.150  0.00  0.00    +0.000 A 
ATOM     28  O   UNL     1      45.903   5.692   8.803  0.00  0.00    +0.000 OA
ATOM     29  C   UNL     1      44.804   4.320  10.406  0.00  0.00    +0.000 A 
ATOM     30  H   UNL     1      46.014   3.661   7.425  0.00  0.00    +0.000 HD
ENDBRANCH  19  20
ENDBRANCH   1  19
TORSDOF 6
ENDMDL
MODEL 7
REMARK VINA RESULT:    -6.263      3.407      8.447
REMARK INTER + INTRA:          -9.444
REMARK INTER:                  -9.227
REMARK INTRA:                  -0.218
REMARK UNBOUND:                -0.984
REMARK  Name = 
REMARK  8 active torsions:
REMARK  status: ('A' for Active; 'I' for Inactive)
REMARK    1  A    between atoms: C_1  and  C_2
REMARK    2  A    between atoms: C_2  and  N_3
REMARK    3  A    between atoms: C_2  and  C_18
REMARK    4  A    between atoms: N_3  and  C_4
REMARK    5  A    between atoms: C_7  and  C_8
REMARK    6  A    between atoms: C_8  and  N_9
REMARK    7  A    between atoms: N_9  and  C_10
REMARK    8  A    between atoms: N_13  and  C_14
REMARK                            x       y       z     vdW  Elec       q    Type
REMARK                         _______ _______ _______ _____ _____    ______ ____
ROOT
ATOM      1  N   UNL     1      47.079   5.112  14.729  0.00  0.00    +0.000 N 
ATOM      2  H   UNL     1      46.569   4.240  14.610  0.00  0.00    +0.000 HD
ENDROOT
BRANCH   1   3
ATOM      3  C   UNL     1      47.885   5.298  15.833  0.00  0.00    +0.000 A 
ATOM      4  C   UNL     1      48.967   6.185  15.816  0.00  0.00    +0.000 A 
ATOM      5  C   UNL     1      49.891   6.230  16.861  0.00  0.00    +0.000 A 
ATOM      6  C   UNL     1      49.767   5.362  17.947  0.00  0.00    +0.000 A 
ATOM      7  C   UNL     1      48.649   4.520  18.008  0.00  0.00    +0.000 A 
ATOM      8  C   UNL     1      47.715   4.496  16.965  0.00  0.00    +0.000 A 
BRANCH   6   9
ATOM      9  C   UNL     1      50.869   5.275  18.977  0.00  0.00    +0.000 C 
BRANCH   9  10
ATOM     10  N   UNL     1      51.298   3.900  19.221  0.00  0.00    +0.000 NA
ATOM     11  H   UNL     1      50.479   3.318  19.406  0.00  0.00    +0.000 HD
BRANCH  10  12
ATOM     12  C   UNL     1      52.031   3.334  18.077  0.00  0.00    +0.000 C 
ATOM     13  C   UNL     1      51.356   2.088  17.477  0.00  0.00    +0.000 C 
ATOM     14  C   UNL     1      52.431   1.014  17.453  0.00  0.00    +0.000 C 
ATOM     15  N   UNL     1      53.270   1.380  18.591  0.00  0.00    +0.000 NA
ATOM     16  C   UNL     1      54.538   0.668  18.598  0.00  0.00    +0.000 C 
ATOM     17  C   UNL     1      53.434   2.834  18.483  0.00  0.00    +0.000 C 
ENDBRANCH  10  12
ENDBRANCH   9  10
ENDBRANCH   6   9
ENDBRANCH   1   3
BRANCH   1  19
ATOM     18  C   UNL     1      48.205   6.227  12.880  0.00  0.00    +0.000 C 
ATOM     19  C   UNL     1      46.920   6.138  13.707  0.00  0.00    +0.000 C 
BRANCH  19  20
ATOM     20  C   UNL     1      45.697   6.020  12.826  0.00  0.00    +0.000 A 
ATOM     21  C   UNL     1      45.071   7.119  12.259  0.00  0.00    +0.000 A 
ATOM     22  S   UNL     1      43.651   6.718  11.402  0.00  0.00    +0.000 S 
ATOM     23  C   UNL     1      43.872   5.056  11.701  0.00  0.00    +0.000 A 
ATOM     24  N   UNL     1      43.000   4.134  11.212  0.00  0.00    +0.000 NA
ATOM     25  C   UNL     1      43.315   2.912  11.484  0.00  0.00    +0.000 A 
ATOM     26  N   UNL     1      44.420   2.527  12.201  0.00  0.00    +0.000 N 
ATOM     27  C   UNL     1      45.333   3.421  12.710  0.00  0.00    +0.000 A 
ATOM     28  O   UNL     1      46.345   3.032  13.291  0.00  0.00    +0.000 OA
ATOM     29  C   UNL     1      45.012   4.812  12.445  0.00  0.00    +0.000 A 
ATOM     30  H   UNL     1      44.625   1.552  12.351  0.00  0.00    +0.000 HD
ENDBRANCH  19  20
ENDBRANCH   1  19
TORSDOF 6
ENDMDL
MODEL 8
REMARK VINA RESULT:    -6.110      2.000      2.795
REMARK INTER + INTRA:          -9.237
REMARK INTER:                  -8.160
REMARK INTRA:                  -1.078
REMARK UNBOUND:                -0.984
REMARK  Name = 
REMARK  8 active torsions:
REMARK  status: ('A' for Active; 'I' for Inactive)
REMARK    1  A    between atoms: C_1  and  C_2
REMARK    2  A    between atoms: C_2  and  N_3
REMARK    3  A    between atoms: C_2  and  C_18
REMARK    4  A    between atoms: N_3  and  C_4
REMARK    5  A    between atoms: C_7  and  C_8
REMARK    6  A    between atoms: C_8  and  N_9
REMARK    7  A    between atoms: N_9  and  C_10
REMARK    8  A    between atoms: N_13  and  C_14
REMARK                            x       y       z     vdW  Elec       q    Type
REMARK                         _______ _______ _______ _____ _____    ______ ____
ROOT
ATOM      1  N   UNL     1      50.260   7.277  14.648  0.00  0.00    +0.000 N 
ATOM      2  H   UNL     1      51.088   6.722  14.444  0.00  0.00    +0.000 HD
ENDROOT
BRANCH   1   3
ATOM      3  C   UNL     1      49.131   7.151  13.864  0.00  0.00    +0.000 A 
ATOM      4  C   UNL     1      48.076   6.304  14.219  0.00  0.00    +0.000 A 
ATOM      5  C   UNL     1      47.029   6.033  13.337  0.00  0.00    +0.000 A 
ATOM      6  C   UNL     1      47.025   6.590  12.057  0.00  0.00    +0.000 A 
ATOM      7  C   UNL     1      48.039   7.495  11.717  0.00  0.00    +0.000 A 
ATOM      8  C   UNL     1      49.075   7.778  12.616  0.00  0.00    +0.000 A 
BRANCH   6   9
ATOM      9  C   UNL     1      46.001   6.144  11.040  0.00  0.00    +0.000 C 
BRANCH   9  10
ATOM     10  N   UNL     1      45.377   4.872  11.396  0.00  0.00    +0.000 NA
ATOM     11  H   UNL     1      44.799   5.000  12.228  0.00  0.00    +0.000 HD
BRANCH  10  12
ATOM     12  C   UNL     1      44.532   4.345  10.312  0.00  0.00    +0.000 C 
ATOM     13  C   UNL     1      44.347   2.819  10.369  0.00  0.00    +0.000 C 
ATOM     14  C   UNL     1      44.746   2.307   8.995  0.00  0.00    +0.000 C 
ATOM     15  N   UNL     1      45.740   3.288   8.568  0.00  0.00    +0.000 NA
ATOM     16  C   UNL     1      46.056   3.178   7.153  0.00  0.00    +0.000 C 
ATOM     17  C   UNL     1      45.160   4.589   8.922  0.00  0.00    +0.000 C 
ENDBRANCH  10  12
ENDBRANCH   9  10
ENDBRANCH   6   9
ENDBRANCH   1   3
BRANCH   1  19
ATOM     18  C   UNL     1      50.169   9.631  15.266  0.00  0.00    +0.000 C 
ATOM     19  C   UNL     1      50.317   8.196  15.777  0.00  0.00    +0.000 C 
BRANCH  19  20
ATOM     20  C   UNL     1      49.370   7.910  16.921  0.00  0.00    +0.000 A 
ATOM     21  C   UNL     1      48.414   8.818  17.349  0.00  0.00    +0.000 A 
ATOM     22  S   UNL     1      47.552   8.291  18.724  0.00  0.00    +0.000 S 
ATOM     23  C   UNL     1      48.381   6.803  18.744  0.00  0.00    +0.000 A 
ATOM     24  N   UNL     1      48.099   5.856  19.677  0.00  0.00    +0.000 NA
ATOM     25  C   UNL     1      48.777   4.764  19.545  0.00  0.00    +0.000 A 
ATOM     26  N   UNL     1      49.712   4.535  18.568  0.00  0.00    +0.000 N 
ATOM     27  C   UNL     1      50.028   5.459  17.599  0.00  0.00    +0.000 A 
ATOM     28  O   UNL     1      50.824   5.189  16.701  0.00  0.00    +0.000 OA
ATOM     29  C   UNL     1      49.302   6.711  17.716  0.00  0.00    +0.000 A 
ATOM     30  H   UNL     1      50.184   3.646  18.503  0.00  0.00    +0.000 HD
ENDBRANCH  19  20
ENDBRANCH   1  19
TORSDOF 6
ENDMDL
MODEL 9
REMARK VINA RESULT:    -6.067      3.026      5.251
REMARK INTER + INTRA:          -9.179
REMARK INTER:                  -7.549
REMARK INTRA:                  -1.629
REMARK UNBOUND:                -0.984
REMARK  Name = 
REMARK  8 active torsions:
REMARK  status: ('A' for Active; 'I' for Inactive)
REMARK    1  A    between atoms: C_1  and  C_2
REMARK    2  A    between atoms: C_2  and  N_3
REMARK    3  A    between atoms: C_2  and  C_18
REMARK    4  A    between atoms: N_3  and  C_4
REMARK    5  A    between atoms: C_7  and  C_8
REMARK    6  A    between atoms: C_8  and  N_9
REMARK    7  A    between atoms: N_9  and  C_10
REMARK    8  A    between atoms: N_13  and  C_14
REMARK                            x       y       z     vdW  Elec       q    Type
REMARK                         _______ _______ _______ _____ _____    ______ ____
ROOT
ATOM      1  N   UNL     1      49.722   7.298  18.527  0.00  0.00    +0.000 N 
ATOM      2  H   UNL     1      50.418   7.748  19.117  0.00  0.00    +0.000 HD
ENDROOT
BRANCH   1   3
ATOM      3  C   UNL     1      49.571   7.687  17.211  0.00  0.00    +0.000 A 
ATOM      4  C   UNL     1      48.577   8.589  16.817  0.00  0.00    +0.000 A 
ATOM      5  C   UNL     1      48.304   8.832  15.471  0.00  0.00    +0.000 A 
ATOM      6  C   UNL     1      49.009   8.152  14.476  0.00  0.00    +0.000 A 
ATOM      7  C   UNL     1      50.055   7.300  14.858  0.00  0.00    +0.000 A 
ATOM      8  C   UNL     1      50.336   7.078  16.212  0.00  0.00    +0.000 A 
BRANCH   6   9
ATOM      9  C   UNL     1      48.583   8.267  13.031  0.00  0.00    +0.000 C 
BRANCH   9  10
ATOM     10  N   UNL     1      48.102   6.999  12.488  0.00  0.00    +0.000 NA
ATOM     11  H   UNL     1      48.741   6.251  12.760  0.00  0.00    +0.000 HD
BRANCH  10  12
ATOM     12  C   UNL     1      46.751   6.665  12.970  0.00  0.00    +0.000 C 
ATOM     13  C   UNL     1      46.676   5.301  13.678  0.00  0.00    +0.000 C 
ATOM     14  C   UNL     1      45.563   4.539  12.979  0.00  0.00    +0.000 C 
ATOM     15  N   UNL     1      45.607   5.083  11.625  0.00  0.00    +0.000 NA
ATOM     16  C   UNL     1      44.437   4.720  10.841  0.00  0.00    +0.000 C 
ATOM     17  C   UNL     1      45.743   6.533  11.807  0.00  0.00    +0.000 C 
ENDBRANCH  10  12
ENDBRANCH   9  10
ENDBRANCH   6   9
ENDBRANCH   1   3
BRANCH   1  19
ATOM     18  C   UNL     1      47.582   6.860  19.605  0.00  0.00    +0.000 C 
ATOM     19  C   UNL     1      48.901   6.251  19.121  0.00  0.00    +0.000 C 
BRANCH  19  20
ATOM     20  C   UNL     1      48.670   5.021  18.273  0.00  0.00    +0.000 A 
ATOM     21  C   UNL     1      47.448   4.732  17.685  0.00  0.00    +0.000 A 
ATOM     22  S   UNL     1      47.429   3.232  16.874  0.00  0.00    +0.000 S 
ATOM     23  C   UNL     1      49.074   2.958  17.221  0.00  0.00    +0.000 A 
ATOM     24  N   UNL     1      49.705   1.836  16.783  0.00  0.00    +0.000 NA
ATOM     25  C   UNL     1      50.960   1.783  17.087  0.00  0.00    +0.000 A 
ATOM     26  N   UNL     1      51.638   2.745  17.790  0.00  0.00    +0.000 N 
ATOM     27  C   UNL     1      51.045   3.898  18.249  0.00  0.00    +0.000 A 
ATOM     28  O   UNL     1      51.704   4.767  18.819  0.00  0.00    +0.000 OA
ATOM     29  C   UNL     1      49.629   3.996  17.946  0.00  0.00    +0.000 A 
ATOM     30  H   UNL     1      52.627   2.656  17.966  0.00  0.00    +0.000 HD
ENDBRANCH  19  20
ENDBRANCH   1  19
TORSDOF 6
ENDMDL
