MODEL 1
REMARK VINA RESULT:    -7.048      0.000      0.000
REMARK INTER + INTRA:          -9.449
REMARK INTER:                  -8.902
REMARK INTRA:                  -0.547
REMARK UNBOUND:                -0.547
REMARK  Name = 
REMARK  5 active torsions:
REMARK  status: ('A' for Active; 'I' for Inactive)
REMARK    1  A    between atoms: N_1  and  C_2
REMARK    2  A    between atoms: C_2  and  C_3
REMARK    3  A    between atoms: C_6  and  O_7
REMARK    4  A    between atoms: O_7  and  C_8
REMARK    5  A    between atoms: C_8  and  C_9
REMARK                            x       y       z     vdW  Elec       q    Type
REMARK                         _______ _______ _______ _____ _____    ______ ____
ROOT
ATOM      1  C   UNL     1      46.627   2.327   7.499  0.00  0.00    +0.000 A 
ATOM      2  C   UNL     1      45.887   1.566   8.417  0.00  0.00    +0.000 A 
ATOM      3  C   UNL     1      45.012   2.186   9.313  0.00  0.00    +0.000 A 
ATOM      4  C   UNL     1      44.873   3.574   9.312  0.00  0.00    +0.000 A 
ATOM      5  C   UNL     1      45.566   4.332   8.365  0.00  0.00    +0.000 A 
ATOM      6  C   UNL     1      46.445   3.714   7.474  0.00  0.00    +0.000 A 
ENDROOT
BRANCH   1   7
ATOM      7  C   UNL     1      47.612   1.672   6.567  0.00  0.00    +0.000 C 
BRANCH   7   8
ATOM      8  N   UNL     1      48.718   2.561   6.244  0.00  0.00    +0.000 NA
ATOM      9  H   UNL     1      48.364   3.509   6.146  0.00  0.00    +0.000 HD
ATOM     10  H   UNL     1      49.094   2.298   5.333  0.00  0.00    +0.000 HD
ENDBRANCH   7   8
ENDBRANCH   1   7
BRANCH   4  11
ATOM     11  O   UNL     1      44.043   4.092  10.270  0.00  0.00    +0.000 OA
BRANCH  11  12
ATOM     12  C   UNL     1      44.438   5.372  10.773  0.00  0.00    +0.000 C 
BRANCH  12  13
ATOM     13  C   UNL     1      45.492   5.249  11.843  0.00  0.00    +0.000 A 
ATOM     14  C   UNL     1      45.540   4.158  12.716  0.00  0.00    +0.000 A 
ATOM     15  C   UNL     1      46.588   4.075  13.619  0.00  0.00    +0.000 A 
ATOM     16  N   UNL     1      47.582   4.983  13.705  0.00  0.00    +0.000 NA
ATOM     17  C   UNL     1      47.526   6.024  12.847  0.00  0.00    +0.000 A 
ATOM     18  C   UNL     1      46.519   6.196  11.911  0.00  0.00    +0.000 A 
ENDBRANCH  12  13
ENDBRANCH  11  12
ENDBRANCH   4  11
TORSDOF 5
ENDMDL
MODEL 2
REMARK VINA RESULT:    -6.995      0.660      1.766
REMARK INTER + INTRA:          -9.382
REMARK INTER:                  -8.755
REMARK INTRA:                  -0.627
REMARK UNBOUND:                -0.547
REMARK  Name = 
REMARK  5 active torsions:
REMARK  status: ('A' for Active; 'I' for Inactive)
REMARK    1  A    between atoms: N_1  and  C_2
REMARK    2  A    between atoms: C_2  and  C_3
REMARK    3  A    between atoms: C_6  and  O_7
REMARK    4  A    between atoms: O_7  and  C_8
REMARK    5  A    between atoms: C_8  and  C_9
REMARK                            x       y       z     vdW  Elec       q    Type
REMARK                         _______ _______ _______ _____ _____    ______ ____
ROOT
ATOM      1  C   UNL     1      46.567   2.364   7.550  0.00  0.00    +0.000 A 
ATOM      2  C   UNL     1      46.416   3.758   7.542  0.00  0.00    +0.000 A 
ATOM      3  C   UNL     1      45.472   4.375   8.368  0.00  0.00    +0.000 A 
ATOM      4  C   UNL     1      44.659   3.607   9.201  0.00  0.00    +0.000 A 
ATOM      5  C   UNL     1      44.841   2.223   9.252  0.00  0.00    +0.000 A 
ATOM      6  C   UNL     1      45.781   1.605   8.424  0.00  0.00    +0.000 A 
ENDROOT
BRANCH   1   7
ATOM      7  C   UNL     1      47.545   1.686   6.625  0.00  0.00    +0.000 C 
BRANCH   7   8
ATOM      8  N   UNL     1      48.649   2.567   6.273  0.00  0.00    +0.000 NA
ATOM      9  H   UNL     1      48.899   3.127   7.084  0.00  0.00    +0.000 HD
ATOM     10  H   UNL     1      48.331   3.221   5.558  0.00  0.00    +0.000 HD
ENDBRANCH   7   8
ENDBRANCH   1   7
BRANCH   4  11
ATOM     11  O   UNL     1      43.720   4.297   9.922  0.00  0.00    +0.000 OA
BRANCH  11  12
ATOM     12  C   UNL     1      43.671   3.962  11.312  0.00  0.00    +0.000 C 
BRANCH  12  13
ATOM     13  C   UNL     1      44.877   4.481  12.053  0.00  0.00    +0.000 A 
ATOM     14  C   UNL     1      45.188   5.843  12.103  0.00  0.00    +0.000 A 
ATOM     15  C   UNL     1      46.266   6.250  12.873  0.00  0.00    +0.000 A 
ATOM     16  N   UNL     1      47.037   5.410  13.595  0.00  0.00    +0.000 NA
ATOM     17  C   UNL     1      46.714   4.100  13.543  0.00  0.00    +0.000 A 
ATOM     18  C   UNL     1      45.659   3.595  12.802  0.00  0.00    +0.000 A 
ENDBRANCH  12  13
ENDBRANCH  11  12
ENDBRANCH   4  11
TORSDOF 5
ENDMDL
MODEL 3
REMARK VINA RESULT:    -6.917      1.051      5.711
REMARK INTER + INTRA:          -9.284
REMARK INTER:                  -8.749
REMARK INTRA:                  -0.535
REMARK UNBOUND:                -0.547
REMARK  Name = 
REMARK  5 active torsions:
REMARK  status: ('A' for Active; 'I' for Inactive)
REMARK    1  A    between atoms: N_1  and  C_2
REMARK    2  A    between atoms: C_2  and  C_3
REMARK    3  A    between atoms: C_6  and  O_7
REMARK    4  A    between atoms: O_7  and  C_8
REMARK    5  A    between atoms: C_8  and  C_9
REMARK                            x       y       z     vdW  Elec       q    Type
REMARK                         _______ _______ _______ _____ _____    ______ ____
ROOT
ATOM      1  C   UNL     1      46.380   5.387  12.680  0.00  0.00    +0.000 A 
ATOM      2  C   UNL     1      46.037   5.994  11.463  0.00  0.00    +0.000 A 
ATOM      3  C   UNL     1      45.297   5.296  10.504  0.00  0.00    +0.000 A 
ATOM      4  C   UNL     1      44.902   3.981  10.744  0.00  0.00    +0.000 A 
ATOM      5  C   UNL     1      45.194   3.389  11.975  0.00  0.00    +0.000 A 
ATOM      6  C   UNL     1      45.938   4.083  12.931  0.00  0.00    +0.000 A 
ENDROOT
BRANCH   1   7
ATOM      7  C   UNL     1      47.223   6.113  13.697  0.00  0.00    +0.000 C 
BRANCH   7   8
ATOM      8  N   UNL     1      47.484   5.286  14.866  0.00  0.00    +0.000 NA
ATOM      9  H   UNL     1      47.710   4.342  14.561  0.00  0.00    +0.000 HD
ATOM     10  H   UNL     1      46.628   5.215  15.415  0.00  0.00    +0.000 HD
ENDBRANCH   7   8
ENDBRANCH   1   7
BRANCH   4  11
ATOM     11  O   UNL     1      44.239   3.360   9.718  0.00  0.00    +0.000 OA
BRANCH  11  12
ATOM     12  C   UNL     1      44.681   3.735   8.410  0.00  0.00    +0.000 C 
BRANCH  12  13
ATOM     13  C   UNL     1      45.827   2.875   7.941  0.00  0.00    +0.000 A 
ATOM     14  C   UNL     1      45.880   1.503   8.202  0.00  0.00    +0.000 A 
ATOM     15  C   UNL     1      46.924   0.765   7.668  0.00  0.00    +0.000 A 
ATOM     16  N   UNL     1      47.898   1.288   6.894  0.00  0.00    +0.000 NA
ATOM     17  C   UNL     1      47.825   2.613   6.644  0.00  0.00    +0.000 A 
ATOM     18  C   UNL     1      46.823   3.435   7.134  0.00  0.00    +0.000 A 
ENDBRANCH  12  13
ENDBRANCH  11  12
ENDBRANCH   4  11
TORSDOF 5
ENDMDL
MODEL 4
REMARK VINA RESULT:    -6.412      1.019      5.624
REMARK INTER + INTRA:          -8.646
REMARK INTER:                  -8.107
REMARK INTRA:                  -0.538
REMARK UNBOUND:                -0.547
REMARK  Name = 
REMARK  5 active torsions:
REMARK  status: ('A' for Active; 'I' for Inactive)
REMARK    1  A    between atoms: N_1  and  C_2
REMARK    2  A    between atoms: C_2  and  C_3
REMARK    3  A    between atoms: C_6  and  O_7
REMARK    4  A    between atoms: O_7  and  C_8
REMARK    5  A    between atoms: C_8  and  C_9
REMARK                            x       y       z     vdW  Elec       q    Type
REMARK                         _______ _______ _______ _____ _____    ______ ____
ROOT
ATOM      1  C   UNL     1      46.851   5.493  13.173  0.00  0.00    +0.000 A 
ATOM      2  C   UNL     1      46.345   4.195  13.337  0.00  0.00    +0.000 A 
ATOM      3  C   UNL     1      45.475   3.647  12.390  0.00  0.00    +0.000 A 
ATOM      4  C   UNL     1      45.090   4.391  11.276  0.00  0.00    +0.000 A 
ATOM      5  C   UNL     1      45.631   5.664  11.080  0.00  0.00    +0.000 A 
ATOM      6  C   UNL     1      46.496   6.215  12.028  0.00  0.00    +0.000 A 
ENDROOT
BRANCH   1   7
ATOM      7  C   UNL     1      47.746   6.112  14.215  0.00  0.00    +0.000 C 
BRANCH   7   8
ATOM      8  N   UNL     1      47.794   5.308  15.428  0.00  0.00    +0.000 NA
ATOM      9  H   UNL     1      48.444   4.538  15.290  0.00  0.00    +0.000 HD
ATOM     10  H   UNL     1      46.877   4.890  15.579  0.00  0.00    +0.000 HD
ENDBRANCH   7   8
ENDBRANCH   1   7
BRANCH   4  11
ATOM     11  O   UNL     1      44.183   3.792  10.442  0.00  0.00    +0.000 OA
BRANCH  11  12
ATOM     12  C   UNL     1      44.349   4.108   9.056  0.00  0.00    +0.000 C 
BRANCH  12  13
ATOM     13  C   UNL     1      45.412   3.254   8.413  0.00  0.00    +0.000 A 
ATOM     14  C   UNL     1      45.517   1.884   8.668  0.00  0.00    +0.000 A 
ATOM     15  C   UNL     1      46.467   1.150   7.976  0.00  0.00    +0.000 A 
ATOM     16  N   UNL     1      47.300   1.676   7.054  0.00  0.00    +0.000 NA
ATOM     17  C   UNL     1      47.177   2.998   6.813  0.00  0.00    +0.000 A 
ATOM     18  C   UNL     1      46.260   3.816   7.454  0.00  0.00    +0.000 A 
ENDBRANCH  12  13
ENDBRANCH  11  12
ENDBRANCH   4  11
TORSDOF 5
ENDMDL
MODEL 5
REMARK VINA RESULT:    -5.424      1.649      5.960
REMARK INTER + INTRA:          -7.398
REMARK INTER:                  -7.115
REMARK INTRA:                  -0.283
REMARK UNBOUND:                -0.547
REMARK  Name = 
REMARK  5 active torsions:
REMARK  status: ('A' for Active; 'I' for Inactive)
REMARK    1  A    between atoms: N_1  and  C_2
REMARK    2  A    between atoms: C_2  and  C_3
REMARK    3  A    between atoms: C_6  and  O_7
REMARK    4  A    between atoms: O_7  and  C_8
REMARK    5  A    between atoms: C_8  and  C_9
REMARK                            x       y       z     vdW  Elec       q    Type
REMARK                         _______ _______ _______ _____ _____    ______ ____
ROOT
ATOM      1  C   UNL     1      45.135   5.650  11.975  0.00  0.00    +0.000 A 
ATOM      2  C   UNL     1      44.633   4.386  12.315  0.00  0.00    +0.000 A 
ATOM      3  C   UNL     1      44.401   3.424  11.328  0.00  0.00    +0.000 A 
ATOM      4  C   UNL     1      44.657   3.716   9.989  0.00  0.00    +0.000 A 
ATOM      5  C   UNL     1      45.208   4.954   9.649  0.00  0.00    +0.000 A 
ATOM      6  C   UNL     1      45.434   5.918  10.634  0.00  0.00    +0.000 A 
ENDROOT
BRANCH   1   7
ATOM      7  C   UNL     1      45.338   6.712  13.025  0.00  0.00    +0.000 C 
BRANCH   7   8
ATOM      8  N   UNL     1      44.969   8.031  12.532  0.00  0.00    +0.000 NA
ATOM      9  H   UNL     1      45.757   8.429  12.028  0.00  0.00    +0.000 HD
ATOM     10  H   UNL     1      44.798   8.642  13.331  0.00  0.00    +0.000 HD
ENDBRANCH   7   8
ENDBRANCH   1   7
BRANCH   4  11
ATOM     11  O   UNL     1      44.336   2.732   9.091  0.00  0.00    +0.000 OA
BRANCH  11  12
ATOM     12  C   UNL     1      45.353   1.746   8.898  0.00  0.00    +0.000 C 
BRANCH  12  13
ATOM     13  C   UNL     1      46.169   2.022   7.661  0.00  0.00    +0.000 A 
ATOM     14  C   UNL     1      45.880   3.088   6.804  0.00  0.00    +0.000 A 
ATOM     15  C   UNL     1      46.726   3.328   5.732  0.00  0.00    +0.000 A 
ATOM     16  N   UNL     1      47.828   2.597   5.465  0.00  0.00    +0.000 NA
ATOM     17  C   UNL     1      48.097   1.578   6.308  0.00  0.00    +0.000 A 
ATOM     18  C   UNL     1      47.313   1.258   7.405  0.00  0.00    +0.000 A 
ENDBRANCH  12  13
ENDBRANCH  11  12
ENDBRANCH   4  11
TORSDOF 5
ENDMDL
MODEL 6
REMARK VINA RESULT:    -5.401      4.014      8.000
REMARK INTER + INTRA:          -7.369
REMARK INTER:                  -6.981
REMARK INTRA:                  -0.389
REMARK UNBOUND:                -0.547
REMARK  Name = 
REMARK  5 active torsions:
REMARK  status: ('A' for Active; 'I' for Inactive)
REMARK    1  A    between atoms: N_1  and  C_2
REMARK    2  A    between atoms: C_2  and  C_3
REMARK    3  A    between atoms: C_6  and  O_7
REMARK    4  A    between atoms: O_7  and  C_8
REMARK    5  A    between atoms: C_8  and  C_9
REMARK                            x       y       z     vdW  Elec       q    Type
REMARK                         _______ _______ _______ _____ _____    ______ ____
ROOT
ATOM      1  C   UNL     1      48.595   4.134  18.240  0.00  0.00    +0.000 A 
ATOM      2  C   UNL     1      47.863   5.045  17.466  0.00  0.00    +0.000 A 
ATOM      3  C   UNL     1      47.422   4.697  16.186  0.00  0.00    +0.000 A 
ATOM      4  C   UNL     1      47.716   3.440  15.660  0.00  0.00    +0.000 A 
ATOM      5  C   UNL     1      48.398   2.509  16.447  0.00  0.00    +0.000 A 
ATOM      6  C   UNL     1      48.845   2.858  17.723  0.00  0.00    +0.000 A 
ENDROOT
BRANCH   1   7
ATOM      7  C   UNL     1      49.121   4.519  19.599  0.00  0.00    +0.000 C 
BRANCH   7   8
ATOM      8  N   UNL     1      48.462   3.772  20.661  0.00  0.00    +0.000 NA
ATOM      9  H   UNL     1      47.983   2.972  20.256  0.00  0.00    +0.000 HD
ATOM     10  H   UNL     1      47.741   4.361  21.077  0.00  0.00    +0.000 HD
ENDBRANCH   7   8
ENDBRANCH   1   7
BRANCH   4  11
ATOM     11  O   UNL     1      47.298   3.217  14.374  0.00  0.00    +0.000 OA
BRANCH  11  12
ATOM     12  C   UNL     1      46.947   4.399  13.649  0.00  0.00    +0.000 C 
BRANCH  12  13
ATOM     13  C   UNL     1      45.586   4.279  13.012  0.00  0.00    +0.000 A 
ATOM     14  C   UNL     1      44.607   5.266  13.160  0.00  0.00    +0.000 A 
ATOM     15  C   UNL     1      43.410   5.122  12.477  0.00  0.00    +0.000 A 
ATOM     16  N   UNL     1      43.128   4.085  11.661  0.00  0.00    +0.000 NA
ATOM     17  C   UNL     1      44.089   3.148  11.522  0.00  0.00    +0.000 A 
ATOM     18  C   UNL     1      45.316   3.200  12.163  0.00  0.00    +0.000 A 
ENDBRANCH  12  13
ENDBRANCH  11  12
ENDBRANCH   4  11
TORSDOF 5
ENDMDL
MODEL 7
REMARK VINA RESULT:    -5.049      2.026      2.819
REMARK INTER + INTRA:          -6.924
REMARK INTER:                  -6.664
REMARK INTRA:                  -0.260
REMARK UNBOUND:                -0.547
REMARK  Name = 
REMARK  5 active torsions:
REMARK  status: ('A' for Active; 'I' for Inactive)
REMARK    1  A    between atoms: N_1  and  C_2
REMARK    2  A    between atoms: C_2  and  C_3
REMARK    3  A    between atoms: C_6  and  O_7
REMARK    4  A    between atoms: O_7  and  C_8
REMARK    5  A    between atoms: C_8  and  C_9
REMARK                            x       y       z     vdW  Elec       q    Type
REMARK                         _______ _______ _______ _____ _____    ______ ____
ROOT
ATOM      1  C   UNL     1      45.729   3.222   7.869  0.00  0.00    +0.000 A 
ATOM      2  C   UNL     1      46.007   4.539   8.262  0.00  0.00    +0.000 A 
ATOM      3  C   UNL     1      45.573   5.017   9.502  0.00  0.00    +0.000 A 
ATOM      4  C   UNL     1      44.846   4.190  10.358  0.00  0.00    +0.000 A 
ATOM      5  C   UNL     1      44.612   2.862   9.995  0.00  0.00    +0.000 A 
ATOM      6  C   UNL     1      45.040   2.385   8.754  0.00  0.00    +0.000 A 
ENDROOT
BRANCH   1   7
ATOM      7  C   UNL     1      46.146   2.714   6.513  0.00  0.00    +0.000 C 
BRANCH   7   8
ATOM      8  N   UNL     1      47.413   3.294   6.089  0.00  0.00    +0.000 NA
ATOM      9  H   UNL     1      47.263   3.834   5.240  0.00  0.00    +0.000 HD
ATOM     10  H   UNL     1      48.052   2.539   5.842  0.00  0.00    +0.000 HD
ENDBRANCH   7   8
ENDBRANCH   1   7
BRANCH   4  11
ATOM     11  O   UNL     1      44.409   4.770  11.519  0.00  0.00    +0.000 OA
BRANCH  11  12
ATOM     12  C   UNL     1      43.796   6.052  11.352  0.00  0.00    +0.000 C 
BRANCH  12  13
ATOM     13  C   UNL     1      44.709   7.168  11.795  0.00  0.00    +0.000 A 
ATOM     14  C   UNL     1      44.523   8.489  11.378  0.00  0.00    +0.000 A 
ATOM     15  C   UNL     1      45.352   9.471  11.894  0.00  0.00    +0.000 A 
ATOM     16  N   UNL     1      46.332   9.235  12.791  0.00  0.00    +0.000 NA
ATOM     17  C   UNL     1      46.490   7.955  13.191  0.00  0.00    +0.000 A 
ATOM     18  C   UNL     1      45.714   6.904  12.731  0.00  0.00    +0.000 A 
ENDBRANCH  12  13
ENDBRANCH  11  12
ENDBRANCH   4  11
TORSDOF 5
ENDMDL
MODEL 8
REMARK VINA RESULT:    -5.043      3.104      4.423
REMARK INTER + INTRA:          -6.917
REMARK INTER:                  -6.613
REMARK INTRA:                  -0.304
REMARK UNBOUND:                -0.547
REMARK  Name = 
REMARK  5 active torsions:
REMARK  status: ('A' for Active; 'I' for Inactive)
REMARK    1  A    between atoms: N_1  and  C_2
REMARK    2  A    between atoms: C_2  and  C_3
REMARK    3  A    between atoms: C_6  and  O_7
REMARK    4  A    between atoms: O_7  and  C_8
REMARK    5  A    between atoms: C_8  and  C_9
REMARK                            x       y       z     vdW  Elec       q    Type
REMARK                         _______ _______ _______ _____ _____    ______ ____
ROOT
ATOM      1  C   UNL     1      44.916   4.344  10.324  0.00  0.00    +0.000 A 
ATOM      2  C   UNL     1      44.779   3.198  11.121  0.00  0.00    +0.000 A 
ATOM      3  C   UNL     1      45.144   3.224  12.471  0.00  0.00    +0.000 A 
ATOM      4  C   UNL     1      45.660   4.389  13.036  0.00  0.00    +0.000 A 
ATOM      5  C   UNL     1      45.749   5.548  12.261  0.00  0.00    +0.000 A 
ATOM      6  C   UNL     1      45.390   5.522  10.912  0.00  0.00    +0.000 A 
ENDROOT
BRANCH   1   7
ATOM      7  C   UNL     1      44.576   4.310   8.856  0.00  0.00    +0.000 C 
BRANCH   7   8
ATOM      8  N   UNL     1      45.712   4.697   8.033  0.00  0.00    +0.000 NA
ATOM      9  H   UNL     1      45.496   4.507   7.058  0.00  0.00    +0.000 HD
ATOM     10  H   UNL     1      46.507   4.106   8.274  0.00  0.00    +0.000 HD
ENDBRANCH   7   8
ENDBRANCH   1   7
BRANCH   4  11
ATOM     11  O   UNL     1      46.050   4.296  14.346  0.00  0.00    +0.000 OA
BRANCH  11  12
ATOM     12  C   UNL     1      47.221   5.050  14.676  0.00  0.00    +0.000 C 
BRANCH  12  13
ATOM     13  C   UNL     1      47.779   4.653  16.019  0.00  0.00    +0.000 A 
ATOM     14  C   UNL     1      47.548   3.392  16.576  0.00  0.00    +0.000 A 
ATOM     15  C   UNL     1      48.163   3.072  17.776  0.00  0.00    +0.000 A 
ATOM     16  N   UNL     1      48.988   3.905  18.444  0.00  0.00    +0.000 NA
ATOM     17  C   UNL     1      49.208   5.114  17.886  0.00  0.00    +0.000 A 
ATOM     18  C   UNL     1      48.638   5.527  16.693  0.00  0.00    +0.000 A 
ENDBRANCH  12  13
ENDBRANCH  11  12
ENDBRANCH   4  11
TORSDOF 5
ENDMDL
MODEL 9
REMARK VINA RESULT:    -4.931      2.086      3.026
REMARK INTER + INTRA:          -6.776
REMARK INTER:                  -6.284
REMARK INTRA:                  -0.492
REMARK UNBOUND:                -0.547
REMARK  Name = 
REMARK  5 active torsions:
REMARK  status: ('A' for Active; 'I' for Inactive)
REMARK    1  A    between atoms: N_1  and  C_2
REMARK    2  A    between atoms: C_2  and  C_3
REMARK    3  A    between atoms: C_6  and  O_7
REMARK    4  A    between atoms: O_7  and  C_8
REMARK    5  A    between atoms: C_8  and  C_9
REMARK                            x       y       z     vdW  Elec       q    Type
REMARK                         _______ _______ _______ _____ _____    ______ ____
ROOT
ATOM      1  C   UNL     1      44.730   2.959   9.601  0.00  0.00    +0.000 A 
ATOM      2  C   UNL     1      44.158   2.982  10.881  0.00  0.00    +0.000 A 
ATOM      3  C   UNL     1      44.181   4.151  11.649  0.00  0.00    +0.000 A 
ATOM      4  C   UNL     1      44.785   5.305  11.151  0.00  0.00    +0.000 A 
ATOM      5  C   UNL     1      45.308   5.303   9.857  0.00  0.00    +0.000 A 
ATOM      6  C   UNL     1      45.292   4.135   9.092  0.00  0.00    +0.000 A 
ENDROOT
BRANCH   1   7
ATOM      7  C   UNL     1      44.758   1.690   8.789  0.00  0.00    +0.000 C 
BRANCH   7   8
ATOM      8  N   UNL     1      46.116   1.322   8.414  0.00  0.00    +0.000 NA
ATOM      9  H   UNL     1      46.759   2.031   8.758  0.00  0.00    +0.000 HD
ATOM     10  H   UNL     1      46.189   1.334   7.397  0.00  0.00    +0.000 HD
ENDBRANCH   7   8
ENDBRANCH   1   7
BRANCH   4  11
ATOM     11  O   UNL     1      44.814   6.378  12.004  0.00  0.00    +0.000 OA
BRANCH  11  12
ATOM     12  C   UNL     1      45.755   7.395  11.648  0.00  0.00    +0.000 C 
BRANCH  12  13
ATOM     13  C   UNL     1      47.081   7.192  12.337  0.00  0.00    +0.000 A 
ATOM     14  C   UNL     1      48.291   7.556  11.739  0.00  0.00    +0.000 A 
ATOM     15  C   UNL     1      49.461   7.415  12.468  0.00  0.00    +0.000 A 
ATOM     16  N   UNL     1      49.509   6.953  13.735  0.00  0.00    +0.000 NA
ATOM     17  C   UNL     1      48.330   6.616  14.299  0.00  0.00    +0.000 A 
ATOM     18  C   UNL     1      47.109   6.719  13.653  0.00  0.00    +0.000 A 
ENDBRANCH  12  13
ENDBRANCH  11  12
ENDBRANCH   4  11
TORSDOF 5
ENDMDL
