MODEL 1
REMARK VINA RESULT:    -9.082      0.000      0.000
REMARK INTER + INTRA:         -14.490
REMARK INTER:                 -13.329
REMARK INTRA:                  -1.161
REMARK UNBOUND:                -1.161
REMARK  Name = 
REMARK  10 active torsions:
REMARK  status: ('A' for Active; 'I' for Inactive)
REMARK    1  A    between atoms: C_1  and  C_2
REMARK    2  A    between atoms: C_2  and  C_3
REMARK    3  A    between atoms: C_5  and  N_6
REMARK    4  A    between atoms: N_6  and  C_7
REMARK    5  A    between atoms: C_9  and  C_10
REMARK    6  A    between atoms: C_10  and  C_11
REMARK    7  A    between atoms: C_11  and  N_12
REMARK    8  A    between atoms: N_12  and  C_13
REMARK    9  A    between atoms: C_16  and  C_17
REMARK   10  A    between atoms: C_23  and  C_24
REMARK                            x       y       z     vdW  Elec       q    Type
REMARK                         _______ _______ _______ _____ _____    ______ ____
ROOT
ATOM      1  C   UNL     1      46.660   4.673  14.082  0.00  0.00    +0.000 A 
ATOM      2  C   UNL     1      45.362   4.601  13.564  0.00  0.00    +0.000 A 
ATOM      3  C   UNL     1      44.881   5.554  12.648  0.00  0.00    +0.000 A 
ATOM      4  C   UNL     1      45.751   6.549  12.187  0.00  0.00    +0.000 A 
ATOM      5  C   UNL     1      47.073   6.614  12.651  0.00  0.00    +0.000 A 
ATOM      6  C   UNL     1      47.511   5.676  13.603  0.00  0.00    +0.000 A 
ENDROOT
BRANCH   5   7
ATOM      7  C   UNL     1      48.026   7.670  12.147  0.00  0.00    +0.000 C 
ATOM      8  F   UNL     1      47.455   8.898  12.006  0.00  0.00    +0.000 F 
ATOM      9  F   UNL     1      49.091   7.849  12.978  0.00  0.00    +0.000 F 
ATOM     10  F   UNL     1      48.551   7.361  10.929  0.00  0.00    +0.000 F 
ENDBRANCH   5   7
BRANCH   1  11
ATOM     11  N   UNL     1      47.154   3.727  14.993  0.00  0.00    +0.000 N 
ATOM     12  H   UNL     1      47.108   2.757  14.700  0.00  0.00    +0.000 HD
BRANCH  11  17
ATOM     13  C   UNL     1      49.240   2.071  16.480  0.00  0.00    +0.000 C 
ATOM     14  C   UNL     1      48.619   3.290  17.110  0.00  0.00    +0.000 C 
ATOM     15  C   UNL     1      49.560   4.097  17.968  0.00  0.00    +0.000 C 
ATOM     16  C   UNL     1      47.164   3.213  17.508  0.00  0.00    +0.000 C 
ATOM     17  C   UNL     1      47.572   4.073  16.345  0.00  0.00    +0.000 C 
ENDBRANCH  11  17
ENDBRANCH   1  11
BRANCH   3  18
ATOM     18  C   UNL     1      43.433   5.532  12.207  0.00  0.00    +0.000 C 
BRANCH  18  19
ATOM     19  C   UNL     1      43.199   4.455  11.138  0.00  0.00    +0.000 C 
BRANCH  19  20
ATOM     20  N   UNL     1      43.699   4.880   9.826  0.00  0.00    +0.000 N 
ATOM     21  H   UNL     1      44.111   5.812   9.851  0.00  0.00    +0.000 HD
BRANCH  20  22
ATOM     22  C   UNL     1      44.529   3.970   9.145  0.00  0.00    +0.000 A 
ATOM     23  C   UNL     1      45.509   4.365   8.227  0.00  0.00    +0.000 A 
ATOM     24  C   UNL     1      46.343   3.426   7.626  0.00  0.00    +0.000 A 
ATOM     25  C   UNL     1      46.207   2.099   7.984  0.00  0.00    +0.000 A 
ATOM     26  N   UNL     1      45.306   1.653   8.903  0.00  0.00    +0.000 NA
ATOM     27  C   UNL     1      44.517   2.606   9.467  0.00  0.00    +0.000 A 
BRANCH  25  28
ATOM     28  C   UNL     1      47.092   1.074   7.349  0.00  0.00    +0.000 C 
ATOM     29  N   UNL     1      46.836  -0.225   7.698  0.00  0.00    +0.000 N 
ATOM     30  O   UNL     1      47.993   1.364   6.566  0.00  0.00    +0.000 OA
ATOM     31  H   UNL     1      46.091  -0.422   8.354  0.00  0.00    +0.000 HD
ATOM     32  H   UNL     1      47.405  -0.965   7.317  0.00  0.00    +0.000 HD
ENDBRANCH  25  28
ENDBRANCH  20  22
ENDBRANCH  19  20
ENDBRANCH  18  19
ENDBRANCH   3  18
TORSDOF 8
ENDMDL
MODEL 2
REMARK VINA RESULT:    -8.353      1.218      1.607
REMARK INTER + INTRA:         -13.420
REMARK INTER:                 -12.280
REMARK INTRA:                  -1.139
REMARK UNBOUND:                -1.161
REMARK  Name = 
REMARK  10 active torsions:
REMARK  status: ('A' for Active; 'I' for Inactive)
REMARK    1  A    between atoms: C_1  and  C_2
REMARK    2  A    between atoms: C_2  and  C_3
REMARK    3  A    between atoms: C_5  and  N_6
REMARK    4  A    between atoms: N_6  and  C_7
REMARK    5  A    between atoms: C_9  and  C_10
REMARK    6  A    between atoms: C_10  and  C_11
REMARK    7  A    between atoms: C_11  and  N_12
REMARK    8  A    between atoms: N_12  and  C_13
REMARK    9  A    between atoms: C_16  and  C_17
REMARK   10  A    between atoms: C_23  and  C_24
REMARK                            x       y       z     vdW  Elec       q    Type
REMARK                         _______ _______ _______ _____ _____    ______ ____
ROOT
ATOM      1  C   UNL     1      46.979   5.443  14.254  0.00  0.00    +0.000 A 
ATOM      2  C   UNL     1      45.860   5.450  13.412  0.00  0.00    +0.000 A 
ATOM      3  C   UNL     1      45.802   6.271  12.272  0.00  0.00    +0.000 A 
ATOM      4  C   UNL     1      46.923   7.037  11.931  0.00  0.00    +0.000 A 
ATOM      5  C   UNL     1      48.077   7.009  12.728  0.00  0.00    +0.000 A 
ATOM      6  C   UNL     1      48.088   6.215  13.888  0.00  0.00    +0.000 A 
ENDROOT
BRANCH   5   7
ATOM      7  C   UNL     1      49.299   7.814  12.359  0.00  0.00    +0.000 C 
ATOM      8  F   UNL     1      49.782   7.536  11.116  0.00  0.00    +0.000 F 
ATOM      9  F   UNL     1      49.062   9.155  12.374  0.00  0.00    +0.000 F 
ATOM     10  F   UNL     1      50.338   7.609  13.216  0.00  0.00    +0.000 F 
ENDBRANCH   5   7
BRANCH   1  11
ATOM     11  N   UNL     1      47.051   4.627  15.392  0.00  0.00    +0.000 N 
ATOM     12  H   UNL     1      46.394   3.856  15.433  0.00  0.00    +0.000 HD
BRANCH  11  17
ATOM     13  C   UNL     1      48.713   2.461  16.753  0.00  0.00    +0.000 C 
ATOM     14  C   UNL     1      48.762   3.891  17.223  0.00  0.00    +0.000 C 
ATOM     15  C   UNL     1      50.120   4.348  17.690  0.00  0.00    +0.000 C 
ATOM     16  C   UNL     1      47.536   4.450  17.907  0.00  0.00    +0.000 C 
ATOM     17  C   UNL     1      47.906   4.931  16.532  0.00  0.00    +0.000 C 
ENDBRANCH  11  17
ENDBRANCH   1  11
BRANCH   3  18
ATOM     18  C   UNL     1      44.530   6.363  11.455  0.00  0.00    +0.000 C 
BRANCH  18  19
ATOM     19  C   UNL     1      43.867   4.985  11.313  0.00  0.00    +0.000 C 
BRANCH  19  20
ATOM     20  N   UNL     1      43.580   4.667   9.909  0.00  0.00    +0.000 N 
ATOM     21  H   UNL     1      43.303   5.489   9.375  0.00  0.00    +0.000 HD
BRANCH  20  22
ATOM     22  C   UNL     1      44.552   3.913   9.225  0.00  0.00    +0.000 A 
ATOM     23  C   UNL     1      44.682   2.526   9.363  0.00  0.00    +0.000 A 
ATOM     24  C   UNL     1      45.623   1.821   8.618  0.00  0.00    +0.000 A 
ATOM     25  C   UNL     1      46.401   2.515   7.711  0.00  0.00    +0.000 A 
ATOM     26  N   UNL     1      46.293   3.856   7.495  0.00  0.00    +0.000 NA
ATOM     27  C   UNL     1      45.359   4.501   8.242  0.00  0.00    +0.000 A 
BRANCH  25  28
ATOM     28  C   UNL     1      47.418   1.777   6.902  0.00  0.00    +0.000 C 
ATOM     29  N   UNL     1      48.507   2.510   6.511  0.00  0.00    +0.000 N 
ATOM     30  O   UNL     1      47.298   0.593   6.598  0.00  0.00    +0.000 OA
ATOM     31  H   UNL     1      48.565   3.486   6.773  0.00  0.00    +0.000 HD
ATOM     32  H   UNL     1      49.224   2.078   5.950  0.00  0.00    +0.000 HD
ENDBRANCH  25  28
ENDBRANCH  20  22
ENDBRANCH  19  20
ENDBRANCH  18  19
ENDBRANCH   3  18
TORSDOF 8
ENDMDL
MODEL 3
REMARK VINA RESULT:    -8.092      2.452      4.335
REMARK INTER + INTRA:         -13.037
REMARK INTER:                 -11.829
REMARK INTRA:                  -1.208
REMARK UNBOUND:                -1.161
REMARK  Name = 
REMARK  10 active torsions:
REMARK  status: ('A' for Active; 'I' for Inactive)
REMARK    1  A    between atoms: C_1  and  C_2
REMARK    2  A    between atoms: C_2  and  C_3
REMARK    3  A    between atoms: C_5  and  N_6
REMARK    4  A    between atoms: N_6  and  C_7
REMARK    5  A    between atoms: C_9  and  C_10
REMARK    6  A    between atoms: C_10  and  C_11
REMARK    7  A    between atoms: C_11  and  N_12
REMARK    8  A    between atoms: N_12  and  C_13
REMARK    9  A    between atoms: C_16  and  C_17
REMARK   10  A    between atoms: C_23  and  C_24
REMARK                            x       y       z     vdW  Elec       q    Type
REMARK                         _______ _______ _______ _____ _____    ______ ____
ROOT
ATOM      1  C   UNL     1      47.173   6.693  12.403  0.00  0.00    +0.000 A 
ATOM      2  C   UNL     1      45.816   6.642  12.067  0.00  0.00    +0.000 A 
ATOM      3  C   UNL     1      44.931   5.758  12.708  0.00  0.00    +0.000 A 
ATOM      4  C   UNL     1      45.408   4.968  13.762  0.00  0.00    +0.000 A 
ATOM      5  C   UNL     1      46.753   5.037  14.154  0.00  0.00    +0.000 A 
ATOM      6  C   UNL     1      47.624   5.896  13.461  0.00  0.00    +0.000 A 
ENDROOT
BRANCH   5   7
ATOM      7  C   UNL     1      47.274   4.206  15.301  0.00  0.00    +0.000 C 
ATOM      8  F   UNL     1      46.389   4.077  16.328  0.00  0.00    +0.000 F 
ATOM      9  F   UNL     1      47.590   2.936  14.922  0.00  0.00    +0.000 F 
ATOM     10  F   UNL     1      48.408   4.725  15.849  0.00  0.00    +0.000 F 
ENDBRANCH   5   7
BRANCH   1  11
ATOM     11  N   UNL     1      48.066   7.573  11.773  0.00  0.00    +0.000 N 
ATOM     12  H   UNL     1      47.718   8.048  10.947  0.00  0.00    +0.000 HD
BRANCH  11  17
ATOM     13  C   UNL     1      49.608  10.165  11.316  0.00  0.00    +0.000 C 
ATOM     14  C   UNL     1      50.257   8.979  11.980  0.00  0.00    +0.000 C 
ATOM     15  C   UNL     1      51.223   9.332  13.081  0.00  0.00    +0.000 C 
ATOM     16  C   UNL     1      50.543   7.765  11.128  0.00  0.00    +0.000 C 
ATOM     17  C   UNL     1      49.461   7.705  12.170  0.00  0.00    +0.000 C 
ENDBRANCH  11  17
ENDBRANCH   1  11
BRANCH   3  18
ATOM     18  C   UNL     1      43.498   5.625  12.235  0.00  0.00    +0.000 C 
BRANCH  18  19
ATOM     19  C   UNL     1      43.343   4.433  11.280  0.00  0.00    +0.000 C 
BRANCH  19  20
ATOM     20  N   UNL     1      43.733   4.786   9.909  0.00  0.00    +0.000 N 
ATOM     21  H   UNL     1      44.028   5.758   9.829  0.00  0.00    +0.000 HD
BRANCH  20  22
ATOM     22  C   UNL     1      44.640   3.920   9.271  0.00  0.00    +0.000 A 
ATOM     23  C   UNL     1      44.632   2.531   9.457  0.00  0.00    +0.000 A 
ATOM     24  C   UNL     1      45.514   1.714   8.755  0.00  0.00    +0.000 A 
ATOM     25  C   UNL     1      46.371   2.299   7.843  0.00  0.00    +0.000 A 
ATOM     26  N   UNL     1      46.398   3.635   7.582  0.00  0.00    +0.000 NA
ATOM     27  C   UNL     1      45.517   4.393   8.287  0.00  0.00    +0.000 A 
BRANCH  25  28
ATOM     28  C   UNL     1      47.328   1.439   7.081  0.00  0.00    +0.000 C 
ATOM     29  N   UNL     1      48.427   2.081   6.578  0.00  0.00    +0.000 N 
ATOM     30  O   UNL     1      47.150   0.236   6.907  0.00  0.00    +0.000 OA
ATOM     31  H   UNL     1      48.533   3.075   6.734  0.00  0.00    +0.000 HD
ATOM     32  H   UNL     1      49.105   1.563   6.040  0.00  0.00    +0.000 HD
ENDBRANCH  25  28
ENDBRANCH  20  22
ENDBRANCH  19  20
ENDBRANCH  18  19
ENDBRANCH   3  18
TORSDOF 8
ENDMDL
MODEL 4
REMARK VINA RESULT:    -7.478      1.796      2.255
REMARK INTER + INTRA:         -12.136
REMARK INTER:                 -10.888
REMARK INTRA:                  -1.248
REMARK UNBOUND:                -1.161
REMARK  Name = 
REMARK  10 active torsions:
REMARK  status: ('A' for Active; 'I' for Inactive)
REMARK    1  A    between atoms: C_1  and  C_2
REMARK    2  A    between atoms: C_2  and  C_3
REMARK    3  A    between atoms: C_5  and  N_6
REMARK    4  A    between atoms: N_6  and  C_7
REMARK    5  A    between atoms: C_9  and  C_10
REMARK    6  A    between atoms: C_10  and  C_11
REMARK    7  A    between atoms: C_11  and  N_12
REMARK    8  A    between atoms: N_12  and  C_13
REMARK    9  A    between atoms: C_16  and  C_17
REMARK   10  A    between atoms: C_23  and  C_24
REMARK                            x       y       z     vdW  Elec       q    Type
REMARK                         _______ _______ _______ _____ _____    ______ ____
ROOT
ATOM      1  C   UNL     1      47.785   5.456  14.998  0.00  0.00    +0.000 A 
ATOM      2  C   UNL     1      46.851   4.581  14.432  0.00  0.00    +0.000 A 
ATOM      3  C   UNL     1      46.270   4.835  13.177  0.00  0.00    +0.000 A 
ATOM      4  C   UNL     1      46.700   5.948  12.444  0.00  0.00    +0.000 A 
ATOM      5  C   UNL     1      47.674   6.813  12.965  0.00  0.00    +0.000 A 
ATOM      6  C   UNL     1      48.201   6.560  14.244  0.00  0.00    +0.000 A 
ENDROOT
BRANCH   5   7
ATOM      7  C   UNL     1      48.160   8.005  12.176  0.00  0.00    +0.000 C 
ATOM      8  F   UNL     1      49.033   8.794  12.862  0.00  0.00    +0.000 F 
ATOM      9  F   UNL     1      48.807   7.643  11.033  0.00  0.00    +0.000 F 
ATOM     10  F   UNL     1      47.144   8.825  11.788  0.00  0.00    +0.000 F 
ENDBRANCH   5   7
BRANCH   1  11
ATOM     11  N   UNL     1      48.374   5.214  16.247  0.00  0.00    +0.000 N 
ATOM     12  H   UNL     1      49.070   4.477  16.279  0.00  0.00    +0.000 HD
BRANCH  11  17
ATOM     13  C   UNL     1      49.895   7.571  17.445  0.00  0.00    +0.000 C 
ATOM     14  C   UNL     1      48.639   7.045  18.089  0.00  0.00    +0.000 C 
ATOM     15  C   UNL     1      47.762   8.106  18.704  0.00  0.00    +0.000 C 
ATOM     16  C   UNL     1      48.702   5.688  18.749  0.00  0.00    +0.000 C 
ATOM     17  C   UNL     1      47.926   5.860  17.473  0.00  0.00    +0.000 C 
ENDBRANCH  11  17
ENDBRANCH   1  11
BRANCH   3  18
ATOM     18  C   UNL     1      45.163   3.946  12.648  0.00  0.00    +0.000 C 
BRANCH  18  19
ATOM     19  C   UNL     1      44.354   4.665  11.559  0.00  0.00    +0.000 C 
BRANCH  19  20
ATOM     20  N   UNL     1      43.854   3.725  10.550  0.00  0.00    +0.000 N 
ATOM     21  H   UNL     1      42.928   3.978  10.209  0.00  0.00    +0.000 HD
BRANCH  20  22
ATOM     22  C   UNL     1      44.726   3.421   9.489  0.00  0.00    +0.000 A 
ATOM     23  C   UNL     1      45.355   4.400   8.709  0.00  0.00    +0.000 A 
ATOM     24  C   UNL     1      46.255   4.045   7.708  0.00  0.00    +0.000 A 
ATOM     25  C   UNL     1      46.545   2.706   7.527  0.00  0.00    +0.000 A 
ATOM     26  N   UNL     1      46.005   1.708   8.280  0.00  0.00    +0.000 NA
ATOM     27  C   UNL     1      45.135   2.102   9.247  0.00  0.00    +0.000 A 
BRANCH  25  28
ATOM     28  C   UNL     1      47.508   2.303   6.457  0.00  0.00    +0.000 C 
ATOM     29  N   UNL     1      47.466   3.052   5.312  0.00  0.00    +0.000 N 
ATOM     30  O   UNL     1      48.289   1.363   6.582  0.00  0.00    +0.000 OA
ATOM     31  H   UNL     1      46.801   3.812   5.243  0.00  0.00    +0.000 HD
ATOM     32  H   UNL     1      48.078   2.825   4.544  0.00  0.00    +0.000 HD
ENDBRANCH  25  28
ENDBRANCH  20  22
ENDBRANCH  19  20
ENDBRANCH  18  19
ENDBRANCH   3  18
TORSDOF 8
ENDMDL
MODEL 5
REMARK VINA RESULT:    -7.248      3.141      4.042
REMARK INTER + INTRA:         -11.798
REMARK INTER:                 -10.617
REMARK INTRA:                  -1.181
REMARK UNBOUND:                -1.161
REMARK  Name = 
REMARK  10 active torsions:
REMARK  status: ('A' for Active; 'I' for Inactive)
REMARK    1  A    between atoms: C_1  and  C_2
REMARK    2  A    between atoms: C_2  and  C_3
REMARK    3  A    between atoms: C_5  and  N_6
REMARK    4  A    between atoms: N_6  and  C_7
REMARK    5  A    between atoms: C_9  and  C_10
REMARK    6  A    between atoms: C_10  and  C_11
REMARK    7  A    between atoms: C_11  and  N_12
REMARK    8  A    between atoms: N_12  and  C_13
REMARK    9  A    between atoms: C_16  and  C_17
REMARK   10  A    between atoms: C_23  and  C_24
REMARK                            x       y       z     vdW  Elec       q    Type
REMARK                         _______ _______ _______ _____ _____    ______ ____
ROOT
ATOM      1  C   UNL     1      47.186   7.243  12.658  0.00  0.00    +0.000 A 
ATOM      2  C   UNL     1      46.339   6.131  12.586  0.00  0.00    +0.000 A 
ATOM      3  C   UNL     1      44.999   6.252  12.177  0.00  0.00    +0.000 A 
ATOM      4  C   UNL     1      44.529   7.502  11.757  0.00  0.00    +0.000 A 
ATOM      5  C   UNL     1      45.372   8.623  11.770  0.00  0.00    +0.000 A 
ATOM      6  C   UNL     1      46.693   8.481  12.230  0.00  0.00    +0.000 A 
ENDROOT
BRANCH   5   7
ATOM      7  C   UNL     1      44.883   9.972  11.301  0.00  0.00    +0.000 C 
ATOM      8  F   UNL     1      44.144   9.917  10.158  0.00  0.00    +0.000 F 
ATOM      9  F   UNL     1      44.093  10.588  12.224  0.00  0.00    +0.000 F 
ATOM     10  F   UNL     1      45.903  10.837  11.044  0.00  0.00    +0.000 F 
ENDBRANCH   5   7
BRANCH   1  11
ATOM     11  N   UNL     1      48.525   7.136  13.061  0.00  0.00    +0.000 N 
ATOM     12  H   UNL     1      48.842   6.208  13.321  0.00  0.00    +0.000 HD
BRANCH  11  17
ATOM     13  C   UNL     1      50.802   7.747  11.125  0.00  0.00    +0.000 C 
ATOM     14  C   UNL     1      50.518   8.643  12.302  0.00  0.00    +0.000 C 
ATOM     15  C   UNL     1      50.732  10.111  12.034  0.00  0.00    +0.000 C 
ATOM     16  C   UNL     1      50.818   8.108  13.682  0.00  0.00    +0.000 C 
ATOM     17  C   UNL     1      49.390   8.292  13.250  0.00  0.00    +0.000 C 
ENDBRANCH  11  17
ENDBRANCH   1  11
BRANCH   3  18
ATOM     18  C   UNL     1      44.066   5.060  12.238  0.00  0.00    +0.000 C 
BRANCH  18  19
ATOM     19  C   UNL     1      43.445   4.777  10.862  0.00  0.00    +0.000 C 
BRANCH  19  20
ATOM     20  N   UNL     1      43.616   3.373  10.472  0.00  0.00    +0.000 N 
ATOM     21  H   UNL     1      42.733   2.931  10.220  0.00  0.00    +0.000 HD
BRANCH  20  22
ATOM     22  C   UNL     1      44.616   3.104   9.519  0.00  0.00    +0.000 A 
ATOM     23  C   UNL     1      45.087   1.814   9.245  0.00  0.00    +0.000 A 
ATOM     24  C   UNL     1      46.036   1.597   8.250  0.00  0.00    +0.000 A 
ATOM     25  C   UNL     1      46.476   2.679   7.512  0.00  0.00    +0.000 A 
ATOM     26  N   UNL     1      46.026   3.951   7.696  0.00  0.00    +0.000 NA
ATOM     27  C   UNL     1      45.097   4.114   8.675  0.00  0.00    +0.000 A 
BRANCH  25  28
ATOM     28  C   UNL     1      47.497   2.468   6.441  0.00  0.00    +0.000 C 
ATOM     29  N   UNL     1      47.310   3.196   5.296  0.00  0.00    +0.000 N 
ATOM     30  O   UNL     1      48.443   1.695   6.564  0.00  0.00    +0.000 OA
ATOM     31  H   UNL     1      46.511   3.814   5.229  0.00  0.00    +0.000 HD
ATOM     32  H   UNL     1      47.953   3.090   4.527  0.00  0.00    +0.000 HD
ENDBRANCH  25  28
ENDBRANCH  20  22
ENDBRANCH  19  20
ENDBRANCH  18  19
ENDBRANCH   3  18
TORSDOF 8
ENDMDL
MODEL 6
REMARK VINA RESULT:    -7.123      3.146      7.717
REMARK INTER + INTRA:         -11.615
REMARK INTER:                 -10.707
REMARK INTRA:                  -0.908
REMARK UNBOUND:                -1.161
REMARK  Name = 
REMARK  10 active torsions:
REMARK  status: ('A' for Active; 'I' for Inactive)
REMARK    1  A    between atoms: C_1  and  C_2
REMARK    2  A    between atoms: C_2  and  C_3
REMARK    3  A    between atoms: C_5  and  N_6
REMARK    4  A    between atoms: N_6  and  C_7
REMARK    5  A    between atoms: C_9  and  C_10
REMARK    6  A    between atoms: C_10  and  C_11
REMARK    7  A    between atoms: C_11  and  N_12
REMARK    8  A    between atoms: N_12  and  C_13
REMARK    9  A    between atoms: C_16  and  C_17
REMARK   10  A    between atoms: C_23  and  C_24
REMARK                            x       y       z     vdW  Elec       q    Type
REMARK                         _______ _______ _______ _____ _____    ______ ____
ROOT
ATOM      1  C   UNL     1      45.637   5.568  10.694  0.00  0.00    +0.000 A 
ATOM      2  C   UNL     1      45.868   4.636  11.713  0.00  0.00    +0.000 A 
ATOM      3  C   UNL     1      46.228   5.039  13.011  0.00  0.00    +0.000 A 
ATOM      4  C   UNL     1      46.278   6.406  13.307  0.00  0.00    +0.000 A 
ATOM      5  C   UNL     1      46.001   7.362  12.318  0.00  0.00    +0.000 A 
ATOM      6  C   UNL     1      45.690   6.929  11.016  0.00  0.00    +0.000 A 
ENDROOT
BRANCH   5   7
ATOM      7  C   UNL     1      46.031   8.838  12.629  0.00  0.00    +0.000 C 
ATOM      8  F   UNL     1      44.796   9.409  12.688  0.00  0.00    +0.000 F 
ATOM      9  F   UNL     1      46.620   9.104  13.828  0.00  0.00    +0.000 F 
ATOM     10  F   UNL     1      46.728   9.554  11.703  0.00  0.00    +0.000 F 
ENDBRANCH   5   7
BRANCH   1  11
ATOM     11  N   UNL     1      45.274   5.180   9.396  0.00  0.00    +0.000 N 
ATOM     12  H   UNL     1      45.097   5.930   8.737  0.00  0.00    +0.000 HD
BRANCH  11  17
ATOM     13  C   UNL     1      46.888   3.786   7.215  0.00  0.00    +0.000 C 
ATOM     14  C   UNL     1      45.802   3.060   7.966  0.00  0.00    +0.000 C 
ATOM     15  C   UNL     1      46.098   1.608   8.241  0.00  0.00    +0.000 C 
ATOM     16  C   UNL     1      44.372   3.470   7.707  0.00  0.00    +0.000 C 
ATOM     17  C   UNL     1      45.012   3.795   9.028  0.00  0.00    +0.000 C 
ENDBRANCH  11  17
ENDBRANCH   1  11
BRANCH   3  18
ATOM     18  C   UNL     1      46.605   4.011  14.058  0.00  0.00    +0.000 C 
BRANCH  18  19
ATOM     19  C   UNL     1      47.063   4.691  15.356  0.00  0.00    +0.000 C 
BRANCH  19  20
ATOM     20  N   UNL     1      47.198   3.724  16.452  0.00  0.00    +0.000 N 
ATOM     21  H   UNL     1      46.568   2.929  16.347  0.00  0.00    +0.000 HD
BRANCH  20  22
ATOM     22  C   UNL     1      48.505   3.306  16.764  0.00  0.00    +0.000 A 
ATOM     23  C   UNL     1      49.369   4.040  17.586  0.00  0.00    +0.000 A 
ATOM     24  C   UNL     1      50.631   3.552  17.910  0.00  0.00    +0.000 A 
ATOM     25  C   UNL     1      51.000   2.309  17.433  0.00  0.00    +0.000 A 
ATOM     26  N   UNL     1      50.192   1.524  16.667  0.00  0.00    +0.000 NA
ATOM     27  C   UNL     1      48.967   2.040  16.380  0.00  0.00    +0.000 A 
BRANCH  25  28
ATOM     28  C   UNL     1      52.353   1.767  17.767  0.00  0.00    +0.000 C 
ATOM     29  N   UNL     1      52.390   0.442  18.110  0.00  0.00    +0.000 N 
ATOM     30  O   UNL     1      53.371   2.454  17.743  0.00  0.00    +0.000 OA
ATOM     31  H   UNL     1      51.527  -0.087  18.128  0.00  0.00    +0.000 HD
ATOM     32  H   UNL     1      53.268   0.017  18.362  0.00  0.00    +0.000 HD
ENDBRANCH  25  28
ENDBRANCH  20  22
ENDBRANCH  19  20
ENDBRANCH  18  19
ENDBRANCH   3  18
TORSDOF 8
ENDMDL
MODEL 7
REMARK VINA RESULT:    -6.632      4.181      6.693
REMARK INTER + INTRA:         -10.895
REMARK INTER:                  -9.292
REMARK INTRA:                  -1.602
REMARK UNBOUND:                -1.161
REMARK  Name = 
REMARK  10 active torsions:
REMARK  status: ('A' for Active; 'I' for Inactive)
REMARK    1  A    between atoms: C_1  and  C_2
REMARK    2  A    between atoms: C_2  and  C_3
REMARK    3  A    between atoms: C_5  and  N_6
REMARK    4  A    between atoms: N_6  and  C_7
REMARK    5  A    between atoms: C_9  and  C_10
REMARK    6  A    between atoms: C_10  and  C_11
REMARK    7  A    between atoms: C_11  and  N_12
REMARK    8  A    between atoms: N_12  and  C_13
REMARK    9  A    between atoms: C_16  and  C_17
REMARK   10  A    between atoms: C_23  and  C_24
REMARK                            x       y       z     vdW  Elec       q    Type
REMARK                         _______ _______ _______ _____ _____    ______ ____
ROOT
ATOM      1  C   UNL     1      46.592   4.085  13.633  0.00  0.00    +0.000 A 
ATOM      2  C   UNL     1      46.840   5.448  13.436  0.00  0.00    +0.000 A 
ATOM      3  C   UNL     1      46.326   6.136  12.322  0.00  0.00    +0.000 A 
ATOM      4  C   UNL     1      45.482   5.455  11.436  0.00  0.00    +0.000 A 
ATOM      5  C   UNL     1      45.176   4.101  11.639  0.00  0.00    +0.000 A 
ATOM      6  C   UNL     1      45.743   3.428  12.735  0.00  0.00    +0.000 A 
ENDROOT
BRANCH   5   7
ATOM      7  C   UNL     1      44.252   3.361  10.702  0.00  0.00    +0.000 C 
ATOM      8  F   UNL     1      43.646   4.166   9.784  0.00  0.00    +0.000 F 
ATOM      9  F   UNL     1      44.898   2.401   9.985  0.00  0.00    +0.000 F 
ATOM     10  F   UNL     1      43.244   2.722  11.359  0.00  0.00    +0.000 F 
ENDBRANCH   5   7
BRANCH   1  11
ATOM     11  N   UNL     1      47.096   3.388  14.742  0.00  0.00    +0.000 N 
ATOM     12  H   UNL     1      47.084   2.376  14.678  0.00  0.00    +0.000 HD
BRANCH  11  17
ATOM     13  C   UNL     1      49.143   2.144  16.631  0.00  0.00    +0.000 C 
ATOM     14  C   UNL     1      48.505   3.474  16.938  0.00  0.00    +0.000 C 
ATOM     15  C   UNL     1      49.423   4.466  17.604  0.00  0.00    +0.000 C 
ATOM     16  C   UNL     1      47.040   3.483  17.306  0.00  0.00    +0.000 C 
ATOM     17  C   UNL     1      47.479   4.046  15.984  0.00  0.00    +0.000 C 
ENDBRANCH  11  17
ENDBRANCH   1  11
BRANCH   3  18
ATOM     18  C   UNL     1      46.719   7.574  12.058  0.00  0.00    +0.000 C 
BRANCH  18  19
ATOM     19  C   UNL     1      46.317   8.478  13.232  0.00  0.00    +0.000 C 
BRANCH  19  20
ATOM     20  N   UNL     1      47.365   9.459  13.540  0.00  0.00    +0.000 N 
ATOM     21  H   UNL     1      47.013  10.243  14.086  0.00  0.00    +0.000 HD
BRANCH  20  22
ATOM     22  C   UNL     1      48.560   8.950  14.083  0.00  0.00    +0.000 A 
ATOM     23  C   UNL     1      48.596   8.102  15.196  0.00  0.00    +0.000 A 
ATOM     24  C   UNL     1      49.802   7.580  15.656  0.00  0.00    +0.000 A 
ATOM     25  C   UNL     1      50.959   7.888  14.966  0.00  0.00    +0.000 A 
ATOM     26  N   UNL     1      50.988   8.668  13.850  0.00  0.00    +0.000 NA
ATOM     27  C   UNL     1      49.787   9.151  13.436  0.00  0.00    +0.000 A 
BRANCH  25  28
ATOM     28  C   UNL     1      52.265   7.339  15.445  0.00  0.00    +0.000 C 
ATOM     29  N   UNL     1      52.198   6.529  16.546  0.00  0.00    +0.000 N 
ATOM     30  O   UNL     1      53.335   7.593  14.897  0.00  0.00    +0.000 OA
ATOM     31  H   UNL     1      51.298   6.353  16.975  0.00  0.00    +0.000 HD
ATOM     32  H   UNL     1      53.044   6.138  16.930  0.00  0.00    +0.000 HD
ENDBRANCH  25  28
ENDBRANCH  20  22
ENDBRANCH  19  20
ENDBRANCH  18  19
ENDBRANCH   3  18
TORSDOF 8
ENDMDL
MODEL 8
REMARK VINA RESULT:    -6.579      4.486      7.163
REMARK INTER + INTRA:         -10.817
REMARK INTER:                  -9.401
REMARK INTRA:                  -1.416
REMARK UNBOUND:                -1.161
REMARK  Name = 
REMARK  10 active torsions:
REMARK  status: ('A' for Active; 'I' for Inactive)
REMARK    1  A    between atoms: C_1  and  C_2
REMARK    2  A    between atoms: C_2  and  C_3
REMARK    3  A    between atoms: C_5  and  N_6
REMARK    4  A    between atoms: N_6  and  C_7
REMARK    5  A    between atoms: C_9  and  C_10
REMARK    6  A    between atoms: C_10  and  C_11
REMARK    7  A    between atoms: C_11  and  N_12
REMARK    8  A    between atoms: N_12  and  C_13
REMARK    9  A    between atoms: C_16  and  C_17
REMARK   10  A    between atoms: C_23  and  C_24
REMARK                            x       y       z     vdW  Elec       q    Type
REMARK                         _______ _______ _______ _____ _____    ______ ____
ROOT
ATOM      1  C   UNL     1      46.646   4.273  13.609  0.00  0.00    +0.000 A 
ATOM      2  C   UNL     1      47.186   5.529  13.307  0.00  0.00    +0.000 A 
ATOM      3  C   UNL     1      46.721   6.288  12.219  0.00  0.00    +0.000 A 
ATOM      4  C   UNL     1      45.639   5.807  11.471  0.00  0.00    +0.000 A 
ATOM      5  C   UNL     1      45.045   4.575  11.784  0.00  0.00    +0.000 A 
ATOM      6  C   UNL     1      45.564   3.817  12.849  0.00  0.00    +0.000 A 
ENDROOT
BRANCH   5   7
ATOM      7  C   UNL     1      43.866   4.056  10.999  0.00  0.00    +0.000 C 
ATOM      8  F   UNL     1      43.845   2.699  10.878  0.00  0.00    +0.000 F 
ATOM      9  F   UNL     1      42.674   4.396  11.565  0.00  0.00    +0.000 F 
ATOM     10  F   UNL     1      43.828   4.543   9.728  0.00  0.00    +0.000 F 
ENDBRANCH   5   7
BRANCH   1  11
ATOM     11  N   UNL     1      47.099   3.508  14.694  0.00  0.00    +0.000 N 
ATOM     12  H   UNL     1      47.036   2.501  14.589  0.00  0.00    +0.000 HD
BRANCH  11  17
ATOM     13  C   UNL     1      49.026   2.069  16.570  0.00  0.00    +0.000 C 
ATOM     14  C   UNL     1      48.469   3.425  16.916  0.00  0.00    +0.000 C 
ATOM     15  C   UNL     1      49.435   4.332  17.634  0.00  0.00    +0.000 C 
ATOM     16  C   UNL     1      47.000   3.515  17.259  0.00  0.00    +0.000 C 
ATOM     17  C   UNL     1      47.499   4.096  15.966  0.00  0.00    +0.000 C 
ENDBRANCH  11  17
ENDBRANCH   1  11
BRANCH   3  18
ATOM     18  C   UNL     1      47.410   7.579  11.831  0.00  0.00    +0.000 C 
BRANCH  18  19
ATOM     19  C   UNL     1      48.935   7.446  11.951  0.00  0.00    +0.000 C 
BRANCH  19  20
ATOM     20  N   UNL     1      49.509   8.528  12.760  0.00  0.00    +0.000 N 
ATOM     21  H   UNL     1      49.276   9.450  12.394  0.00  0.00    +0.000 HD
BRANCH  20  22
ATOM     22  C   UNL     1      49.292   8.456  14.149  0.00  0.00    +0.000 A 
ATOM     23  C   UNL     1      48.391   9.286  14.827  0.00  0.00    +0.000 A 
ATOM     24  C   UNL     1      48.171   9.133  16.193  0.00  0.00    +0.000 A 
ATOM     25  C   UNL     1      48.833   8.119  16.858  0.00  0.00    +0.000 A 
ATOM     26  N   UNL     1      49.686   7.249  16.250  0.00  0.00    +0.000 NA
ATOM     27  C   UNL     1      49.867   7.434  14.916  0.00  0.00    +0.000 A 
BRANCH  25  28
ATOM     28  C   UNL     1      48.612   7.939  18.326  0.00  0.00    +0.000 C 
ATOM     29  N   UNL     1      47.342   7.584  18.693  0.00  0.00    +0.000 N 
ATOM     30  O   UNL     1      49.502   8.098  19.158  0.00  0.00    +0.000 OA
ATOM     31  H   UNL     1      46.635   7.473  17.978  0.00  0.00    +0.000 HD
ATOM     32  H   UNL     1      47.121   7.461  19.669  0.00  0.00    +0.000 HD
ENDBRANCH  25  28
ENDBRANCH  20  22
ENDBRANCH  19  20
ENDBRANCH  18  19
ENDBRANCH   3  18
TORSDOF 8
ENDMDL
MODEL 9
REMARK VINA RESULT:    -6.559      4.094      6.086
REMARK INTER + INTRA:         -10.787
REMARK INTER:                  -9.517
REMARK INTRA:                  -1.270
REMARK UNBOUND:                -1.161
REMARK  Name = 
REMARK  10 active torsions:
REMARK  status: ('A' for Active; 'I' for Inactive)
REMARK    1  A    between atoms: C_1  and  C_2
REMARK    2  A    between atoms: C_2  and  C_3
REMARK    3  A    between atoms: C_5  and  N_6
REMARK    4  A    between atoms: N_6  and  C_7
REMARK    5  A    between atoms: C_9  and  C_10
REMARK    6  A    between atoms: C_10  and  C_11
REMARK    7  A    between atoms: C_11  and  N_12
REMARK    8  A    between atoms: N_12  and  C_13
REMARK    9  A    between atoms: C_16  and  C_17
REMARK   10  A    between atoms: C_23  and  C_24
REMARK                            x       y       z     vdW  Elec       q    Type
REMARK                         _______ _______ _______ _____ _____    ______ ____
ROOT
ATOM      1  C   UNL     1      46.328   4.281  13.590  0.00  0.00    +0.000 A 
ATOM      2  C   UNL     1      46.162   5.668  13.499  0.00  0.00    +0.000 A 
ATOM      3  C   UNL     1      45.507   6.261  12.405  0.00  0.00    +0.000 A 
ATOM      4  C   UNL     1      44.939   5.435  11.428  0.00  0.00    +0.000 A 
ATOM      5  C   UNL     1      45.045   4.039  11.521  0.00  0.00    +0.000 A 
ATOM      6  C   UNL     1      45.748   3.478  12.602  0.00  0.00    +0.000 A 
ENDROOT
BRANCH   5   7
ATOM      7  C   UNL     1      44.419   3.138  10.485  0.00  0.00    +0.000 C 
ATOM      8  F   UNL     1      45.313   2.323   9.859  0.00  0.00    +0.000 F 
ATOM      9  F   UNL     1      43.474   2.313  11.016  0.00  0.00    +0.000 F 
ATOM     10  F   UNL     1      43.794   3.834   9.495  0.00  0.00    +0.000 F 
ENDBRANCH   5   7
BRANCH   1  11
ATOM     11  N   UNL     1      46.977   3.677  14.677  0.00  0.00    +0.000 N 
ATOM     12  H   UNL     1      47.005   2.663  14.675  0.00  0.00    +0.000 HD
BRANCH  11  17
ATOM     13  C   UNL     1      48.879   2.423  16.706  0.00  0.00    +0.000 C 
ATOM     14  C   UNL     1      48.418   3.850  16.848  0.00  0.00    +0.000 C 
ATOM     15  C   UNL     1      49.464   4.792  17.388  0.00  0.00    +0.000 C 
ATOM     16  C   UNL     1      46.972   4.090  17.210  0.00  0.00    +0.000 C 
ATOM     17  C   UNL     1      47.458   4.427  15.829  0.00  0.00    +0.000 C 
ENDBRANCH  11  17
ENDBRANCH   1  11
BRANCH   3  18
ATOM     18  C   UNL     1      45.459   7.767  12.262  0.00  0.00    +0.000 C 
BRANCH  18  19
ATOM     19  C   UNL     1      46.421   8.444  13.249  0.00  0.00    +0.000 C 
BRANCH  19  20
ATOM     20  N   UNL     1      47.262   9.445  12.582  0.00  0.00    +0.000 N 
ATOM     21  H   UNL     1      47.205  10.359  13.029  0.00  0.00    +0.000 HD
BRANCH  20  22
ATOM     22  C   UNL     1      48.597   9.078  12.332  0.00  0.00    +0.000 A 
ATOM     23  C   UNL     1      48.954   7.942  11.593  0.00  0.00    +0.000 A 
ATOM     24  C   UNL     1      50.289   7.657  11.325  0.00  0.00    +0.000 A 
ATOM     25  C   UNL     1      51.255   8.539  11.771  0.00  0.00    +0.000 A 
ATOM     26  N   UNL     1      50.973   9.684  12.454  0.00  0.00    +0.000 NA
ATOM     27  C   UNL     1      49.656   9.923  12.689  0.00  0.00    +0.000 A 
BRANCH  25  28
ATOM     28  C   UNL     1      52.695   8.250  11.495  0.00  0.00    +0.000 C 
ATOM     29  N   UNL     1      52.961   7.011  10.978  0.00  0.00    +0.000 N 
ATOM     30  O   UNL     1      53.592   9.061  11.715  0.00  0.00    +0.000 OA
ATOM     31  H   UNL     1      52.195   6.367  10.821  0.00  0.00    +0.000 HD
ATOM     32  H   UNL     1      53.914   6.745  10.783  0.00  0.00    +0.000 HD
ENDBRANCH  25  28
ENDBRANCH  20  22
ENDBRANCH  19  20
ENDBRANCH  18  19
ENDBRANCH   3  18
TORSDOF 8
ENDMDL
