MODEL 1
REMARK VINA RESULT:    -8.923      0.000      0.000
REMARK INTER + INTRA:         -12.369
REMARK INTER:                 -11.531
REMARK INTRA:                  -0.838
REMARK UNBOUND:                -0.838
REMARK  Name = 
REMARK  8 active torsions:
REMARK  status: ('A' for Active; 'I' for Inactive)
REMARK    1  A    between atoms: C_1  and  C_2
REMARK    2  A    between atoms: C_4  and  C_5
REMARK    3  A    between atoms: C_9  and  C_10
REMARK    4  A    between atoms: C_10  and  C_11
REMARK    5  A    between atoms: C_10  and  C_12
REMARK    6  A    between atoms: C_10  and  C_13
REMARK    7  A    between atoms: C_13  and  N_14
REMARK    8  A    between atoms: C_18  and  C_19
REMARK                            x       y       z     vdW  Elec       q    Type
REMARK                         _______ _______ _______ _____ _____    ______ ____
ROOT
ATOM      1  C   UNL     1      43.496   5.374  11.968  0.00  0.00    +0.000 C 
ATOM      2  C   UNL     1      42.850   4.870  13.284  0.00  0.00    +0.000 C 
ATOM      3  C   UNL     1      42.718   6.603  11.454  0.00  0.00    +0.000 C 
ENDROOT
BRANCH   1   8
ATOM      4  C   UNL     1      46.934   5.522  13.762  0.00  0.00    +0.000 A 
ATOM      5  C   UNL     1      47.703   6.194  12.802  0.00  0.00    +0.000 A 
ATOM      6  C   UNL     1      47.128   6.684  11.632  0.00  0.00    +0.000 A 
ATOM      7  C   UNL     1      45.776   6.471  11.369  0.00  0.00    +0.000 A 
ATOM      8  C   UNL     1      44.964   5.770  12.274  0.00  0.00    +0.000 A 
ATOM      9  C   UNL     1      45.561   5.356  13.483  0.00  0.00    +0.000 A 
BRANCH   4  13
ATOM     10  C   UNL     1      49.811   6.045  17.854  0.00  0.00    +0.000 C 
ATOM     11  C   UNL     1      48.911   5.219  16.983  0.00  0.00    +0.000 A 
ATOM     12  C   UNL     1      48.352   5.760  15.829  0.00  0.00    +0.000 A 
ATOM     13  C   UNL     1      47.537   4.971  14.999  0.00  0.00    +0.000 A 
ATOM     14  C   UNL     1      47.315   3.651  15.408  0.00  0.00    +0.000 A 
ATOM     15  C   UNL     1      47.892   3.196  16.582  0.00  0.00    +0.000 A 
ATOM     16  N   UNL     1      48.686   3.947  17.373  0.00  0.00    +0.000 NA
ENDBRANCH   4  13
ENDBRANCH   1   8
BRANCH   1  17
ATOM     17  C   UNL     1      43.429   4.228  10.912  0.00  0.00    +0.000 C 
BRANCH  17  18
ATOM     18  N   UNL     1      43.800   4.630   9.561  0.00  0.00    +0.000 N 
ATOM     19  C   UNL     1      44.803   3.912   8.923  0.00  0.00    +0.000 A 
ATOM     20  C   UNL     1      45.010   2.534   9.073  0.00  0.00    +0.000 A 
ATOM     21  N   UNL     1      45.968   1.825   8.422  0.00  0.00    +0.000 NA
ATOM     22  C   UNL     1      46.714   2.564   7.559  0.00  0.00    +0.000 A 
ATOM     23  C   UNL     1      46.516   3.924   7.383  0.00  0.00    +0.000 A 
ATOM     24  N   UNL     1      45.567   4.620   8.067  0.00  0.00    +0.000 NA
ATOM     25  H   UNL     1      44.007   5.616   9.415  0.00  0.00    +0.000 HD
BRANCH  22  26
ATOM     26  C   UNL     1      47.769   1.854   6.790  0.00  0.00    +0.000 C 
ATOM     27  N   UNL     1      48.609   2.646   6.053  0.00  0.00    +0.000 N 
ATOM     28  O   UNL     1      47.883   0.633   6.812  0.00  0.00    +0.000 OA
ATOM     29  H   UNL     1      48.492   3.652   6.065  0.00  0.00    +0.000 HD
ATOM     30  H   UNL     1      49.353   2.222   5.519  0.00  0.00    +0.000 HD
ENDBRANCH  22  26
ENDBRANCH  17  18
ENDBRANCH   1  17
TORSDOF 5
ENDMDL
MODEL 2
REMARK VINA RESULT:    -8.894      2.295      3.697
REMARK INTER + INTRA:         -12.331
REMARK INTER:                 -11.243
REMARK INTRA:                  -1.088
REMARK UNBOUND:                -0.838
REMARK  Name = 
REMARK  8 active torsions:
REMARK  status: ('A' for Active; 'I' for Inactive)
REMARK    1  A    between atoms: C_1  and  C_2
REMARK    2  A    between atoms: C_4  and  C_5
REMARK    3  A    between atoms: C_9  and  C_10
REMARK    4  A    between atoms: C_10  and  C_11
REMARK    5  A    between atoms: C_10  and  C_12
REMARK    6  A    between atoms: C_10  and  C_13
REMARK    7  A    between atoms: C_13  and  N_14
REMARK    8  A    between atoms: C_18  and  C_19
REMARK                            x       y       z     vdW  Elec       q    Type
REMARK                         _______ _______ _______ _____ _____    ______ ____
ROOT
ATOM      1  C   UNL     1      43.679   5.272  12.013  0.00  0.00    +0.000 C 
ATOM      2  C   UNL     1      42.846   4.819  13.240  0.00  0.00    +0.000 C 
ATOM      3  C   UNL     1      43.152   6.632  11.511  0.00  0.00    +0.000 C 
ENDROOT
BRANCH   1   8
ATOM      4  C   UNL     1      47.198   6.822  12.536  0.00  0.00    +0.000 A 
ATOM      5  C   UNL     1      47.757   5.909  13.441  0.00  0.00    +0.000 A 
ATOM      6  C   UNL     1      47.069   4.758  13.819  0.00  0.00    +0.000 A 
ATOM      7  C   UNL     1      45.784   4.514  13.339  0.00  0.00    +0.000 A 
ATOM      8  C   UNL     1      45.157   5.413  12.461  0.00  0.00    +0.000 A 
ATOM      9  C   UNL     1      45.911   6.528  12.038  0.00  0.00    +0.000 A 
BRANCH   4  13
ATOM     10  C   UNL     1      51.360   9.224  11.052  0.00  0.00    +0.000 C 
ATOM     11  C   UNL     1      49.905   9.229  11.415  0.00  0.00    +0.000 A 
ATOM     12  C   UNL     1      49.261   8.049  11.773  0.00  0.00    +0.000 A 
ATOM     13  C   UNL     1      47.906   8.065  12.144  0.00  0.00    +0.000 A 
ATOM     14  C   UNL     1      47.260   9.306  12.112  0.00  0.00    +0.000 A 
ATOM     15  C   UNL     1      47.968  10.432  11.723  0.00  0.00    +0.000 A 
ATOM     16  N   UNL     1      49.273  10.420  11.380  0.00  0.00    +0.000 NA
ENDBRANCH   4  13
ENDBRANCH   1   8
BRANCH   1  17
ATOM     17  C   UNL     1      43.530   4.201  10.889  0.00  0.00    +0.000 C 
BRANCH  17  18
ATOM     18  N   UNL     1      43.900   4.667   9.559  0.00  0.00    +0.000 N 
ATOM     19  C   UNL     1      44.882   3.962   8.875  0.00  0.00    +0.000 A 
ATOM     20  C   UNL     1      45.060   2.575   8.949  0.00  0.00    +0.000 A 
ATOM     21  N   UNL     1      45.998   1.881   8.254  0.00  0.00    +0.000 NA
ATOM     22  C   UNL     1      46.754   2.649   7.426  0.00  0.00    +0.000 A 
ATOM     23  C   UNL     1      46.585   4.020   7.324  0.00  0.00    +0.000 A 
ATOM     24  N   UNL     1      45.656   4.699   8.052  0.00  0.00    +0.000 NA
ATOM     25  H   UNL     1      44.127   5.655   9.464  0.00  0.00    +0.000 HD
BRANCH  22  26
ATOM     26  C   UNL     1      47.787   1.959   6.611  0.00  0.00    +0.000 C 
ATOM     27  N   UNL     1      48.214   2.626   5.494  0.00  0.00    +0.000 N 
ATOM     28  O   UNL     1      48.233   0.858   6.918  0.00  0.00    +0.000 OA
ATOM     29  H   UNL     1      47.831   3.538   5.275  0.00  0.00    +0.000 HD
ATOM     30  H   UNL     1      48.925   2.214   4.907  0.00  0.00    +0.000 HD
ENDBRANCH  22  26
ENDBRANCH  17  18
ENDBRANCH   1  17
TORSDOF 5
ENDMDL
MODEL 3
REMARK VINA RESULT:    -8.350      2.277      3.153
REMARK INTER + INTRA:         -11.629
REMARK INTER:                 -11.077
REMARK INTRA:                  -0.552
REMARK UNBOUND:                -0.838
REMARK  Name = 
REMARK  8 active torsions:
REMARK  status: ('A' for Active; 'I' for Inactive)
REMARK    1  A    between atoms: C_1  and  C_2
REMARK    2  A    between atoms: C_4  and  C_5
REMARK    3  A    between atoms: C_9  and  C_10
REMARK    4  A    between atoms: C_10  and  C_11
REMARK    5  A    between atoms: C_10  and  C_12
REMARK    6  A    between atoms: C_10  and  C_13
REMARK    7  A    between atoms: C_13  and  N_14
REMARK    8  A    between atoms: C_18  and  C_19
REMARK                            x       y       z     vdW  Elec       q    Type
REMARK                         _______ _______ _______ _____ _____    ______ ____
ROOT
ATOM      1  C   UNL     1      44.085   4.622  12.271  0.00  0.00    +0.000 C 
ATOM      2  C   UNL     1      45.274   3.635  12.408  0.00  0.00    +0.000 C 
ATOM      3  C   UNL     1      43.194   4.525  13.526  0.00  0.00    +0.000 C 
ENDROOT
BRANCH   1   8
ATOM      4  C   UNL     1      46.649   7.535  12.302  0.00  0.00    +0.000 A 
ATOM      5  C   UNL     1      45.898   8.554  11.699  0.00  0.00    +0.000 A 
ATOM      6  C   UNL     1      44.559   8.360  11.364  0.00  0.00    +0.000 A 
ATOM      7  C   UNL     1      43.951   7.126  11.581  0.00  0.00    +0.000 A 
ATOM      8  C   UNL     1      44.663   6.055  12.145  0.00  0.00    +0.000 A 
ATOM      9  C   UNL     1      45.992   6.310  12.543  0.00  0.00    +0.000 A 
BRANCH   4  13
ATOM     10  C   UNL     1      51.429   8.256  10.915  0.00  0.00    +0.000 C 
ATOM     11  C   UNL     1      50.388   8.079  11.979  0.00  0.00    +0.000 A 
ATOM     12  C   UNL     1      49.048   7.916  11.639  0.00  0.00    +0.000 A 
ATOM     13  C   UNL     1      48.081   7.717  12.639  0.00  0.00    +0.000 A 
ATOM     14  C   UNL     1      48.538   7.712  13.962  0.00  0.00    +0.000 A 
ATOM     15  C   UNL     1      49.886   7.902  14.218  0.00  0.00    +0.000 A 
ATOM     16  N   UNL     1      50.818   8.079  13.258  0.00  0.00    +0.000 NA
ENDBRANCH   4  13
ENDBRANCH   1   8
BRANCH   1  17
ATOM     17  C   UNL     1      43.260   4.233  11.007  0.00  0.00    +0.000 C 
BRANCH  17  18
ATOM     18  N   UNL     1      43.791   4.757   9.755  0.00  0.00    +0.000 N 
ATOM     19  C   UNL     1      44.725   3.986   9.074  0.00  0.00    +0.000 A 
ATOM     20  C   UNL     1      44.715   2.586   9.027  0.00  0.00    +0.000 A 
ATOM     21  N   UNL     1      45.607   1.834   8.332  0.00  0.00    +0.000 NA
ATOM     22  C   UNL     1      46.519   2.559   7.634  0.00  0.00    +0.000 A 
ATOM     23  C   UNL     1      46.538   3.945   7.653  0.00  0.00    +0.000 A 
ATOM     24  N   UNL     1      45.650   4.678   8.379  0.00  0.00    +0.000 NA
ATOM     25  H   UNL     1      44.152   5.709   9.770  0.00  0.00    +0.000 HD
BRANCH  22  26
ATOM     26  C   UNL     1      47.516   1.808   6.828  0.00  0.00    +0.000 C 
ATOM     27  N   UNL     1      48.623   2.512   6.435  0.00  0.00    +0.000 N 
ATOM     28  O   UNL     1      47.359   0.628   6.531  0.00  0.00    +0.000 OA
ATOM     29  H   UNL     1      48.725   3.483   6.706  0.00  0.00    +0.000 HD
ATOM     30  H   UNL     1      49.342   2.051   5.896  0.00  0.00    +0.000 HD
ENDBRANCH  22  26
ENDBRANCH  17  18
ENDBRANCH   1  17
TORSDOF 5
ENDMDL
MODEL 4
REMARK VINA RESULT:    -8.192      2.888      5.564
REMARK INTER + INTRA:         -11.424
REMARK INTER:                 -11.178
REMARK INTRA:                  -0.246
REMARK UNBOUND:                -0.838
REMARK  Name = 
REMARK  8 active torsions:
REMARK  status: ('A' for Active; 'I' for Inactive)
REMARK    1  A    between atoms: C_1  and  C_2
REMARK    2  A    between atoms: C_4  and  C_5
REMARK    3  A    between atoms: C_9  and  C_10
REMARK    4  A    between atoms: C_10  and  C_11
REMARK    5  A    between atoms: C_10  and  C_12
REMARK    6  A    between atoms: C_10  and  C_13
REMARK    7  A    between atoms: C_13  and  N_14
REMARK    8  A    between atoms: C_18  and  C_19
REMARK                            x       y       z     vdW  Elec       q    Type
REMARK                         _______ _______ _______ _____ _____    ______ ____
ROOT
ATOM      1  C   UNL     1      44.220   4.541  12.275  0.00  0.00    +0.000 C 
ATOM      2  C   UNL     1      45.328   3.460  12.353  0.00  0.00    +0.000 C 
ATOM      3  C   UNL     1      43.379   4.505  13.568  0.00  0.00    +0.000 C 
ENDROOT
BRANCH   1   8
ATOM      4  C   UNL     1      44.694   8.312  11.490  0.00  0.00    +0.000 A 
ATOM      5  C   UNL     1      45.950   8.546  12.069  0.00  0.00    +0.000 A 
ATOM      6  C   UNL     1      46.692   7.506  12.624  0.00  0.00    +0.000 A 
ATOM      7  C   UNL     1      46.175   6.212  12.659  0.00  0.00    +0.000 A 
ATOM      8  C   UNL     1      44.906   5.924  12.131  0.00  0.00    +0.000 A 
ATOM      9  C   UNL     1      44.216   6.985  11.508  0.00  0.00    +0.000 A 
BRANCH   4  13
ATOM     10  C   UNL     1      40.237  10.434  10.528  0.00  0.00    +0.000 C 
ATOM     11  C   UNL     1      41.735  10.449  10.464  0.00  0.00    +0.000 A 
ATOM     12  C   UNL     1      42.478   9.408  11.012  0.00  0.00    +0.000 A 
ATOM     13  C   UNL     1      43.881   9.412  10.920  0.00  0.00    +0.000 A 
ATOM     14  C   UNL     1      44.464  10.509  10.276  0.00  0.00    +0.000 A 
ATOM     15  C   UNL     1      43.655  11.516   9.776  0.00  0.00    +0.000 A 
ATOM     16  N   UNL     1      42.307  11.506   9.851  0.00  0.00    +0.000 NA
ENDBRANCH   4  13
ENDBRANCH   1   8
BRANCH   1  17
ATOM     17  C   UNL     1      43.311   4.233  11.047  0.00  0.00    +0.000 C 
BRANCH  17  18
ATOM     18  N   UNL     1      43.820   4.735   9.777  0.00  0.00    +0.000 N 
ATOM     19  C   UNL     1      44.749   3.958   9.098  0.00  0.00    +0.000 A 
ATOM     20  C   UNL     1      44.749   2.557   9.078  0.00  0.00    +0.000 A 
ATOM     21  N   UNL     1      45.636   1.798   8.385  0.00  0.00    +0.000 NA
ATOM     22  C   UNL     1      46.533   2.516   7.660  0.00  0.00    +0.000 A 
ATOM     23  C   UNL     1      46.542   3.902   7.652  0.00  0.00    +0.000 A 
ATOM     24  N   UNL     1      45.660   4.643   8.376  0.00  0.00    +0.000 NA
ATOM     25  H   UNL     1      44.174   5.690   9.769  0.00  0.00    +0.000 HD
BRANCH  22  26
ATOM     26  C   UNL     1      47.523   1.756   6.854  0.00  0.00    +0.000 C 
ATOM     27  N   UNL     1      48.558   2.486   6.331  0.00  0.00    +0.000 N 
ATOM     28  O   UNL     1      47.423   0.548   6.667  0.00  0.00    +0.000 OA
ATOM     29  H   UNL     1      48.615   3.481   6.513  0.00  0.00    +0.000 HD
ATOM     30  H   UNL     1      49.269   2.022   5.786  0.00  0.00    +0.000 HD
ENDBRANCH  22  26
ENDBRANCH  17  18
ENDBRANCH   1  17
TORSDOF 5
ENDMDL
MODEL 5
REMARK VINA RESULT:    -8.056      3.083      8.300
REMARK INTER + INTRA:         -11.249
REMARK INTER:                 -10.410
REMARK INTRA:                  -0.838
REMARK UNBOUND:                -0.838
REMARK  Name = 
REMARK  8 active torsions:
REMARK  status: ('A' for Active; 'I' for Inactive)
REMARK    1  A    between atoms: C_1  and  C_2
REMARK    2  A    between atoms: C_4  and  C_5
REMARK    3  A    between atoms: C_9  and  C_10
REMARK    4  A    between atoms: C_10  and  C_11
REMARK    5  A    between atoms: C_10  and  C_12
REMARK    6  A    between atoms: C_10  and  C_13
REMARK    7  A    between atoms: C_13  and  N_14
REMARK    8  A    between atoms: C_18  and  C_19
REMARK                            x       y       z     vdW  Elec       q    Type
REMARK                         _______ _______ _______ _____ _____    ______ ____
ROOT
ATOM      1  C   UNL     1      46.464   6.942  12.086  0.00  0.00    +0.000 C 
ATOM      2  C   UNL     1      47.395   7.698  11.103  0.00  0.00    +0.000 C 
ATOM      3  C   UNL     1      45.656   7.963  12.913  0.00  0.00    +0.000 C 
ENDROOT
BRANCH   1   8
ATOM      4  C   UNL     1      45.234   4.357   9.466  0.00  0.00    +0.000 A 
ATOM      5  C   UNL     1      43.894   4.210   9.849  0.00  0.00    +0.000 A 
ATOM      6  C   UNL     1      43.347   4.987  10.868  0.00  0.00    +0.000 A 
ATOM      7  C   UNL     1      44.141   5.896  11.564  0.00  0.00    +0.000 A 
ATOM      8  C   UNL     1      45.500   6.059  11.252  0.00  0.00    +0.000 A 
ATOM      9  C   UNL     1      46.001   5.313  10.164  0.00  0.00    +0.000 A 
BRANCH   4  13
ATOM     10  C   UNL     1      46.653  -0.126   7.681  0.00  0.00    +0.000 C 
ATOM     11  C   UNL     1      46.512   1.359   7.527  0.00  0.00    +0.000 A 
ATOM     12  C   UNL     1      45.937   2.124   8.537  0.00  0.00    +0.000 A 
ATOM     13  C   UNL     1      45.838   3.519   8.401  0.00  0.00    +0.000 A 
ATOM     14  C   UNL     1      46.324   4.070   7.211  0.00  0.00    +0.000 A 
ATOM     15  C   UNL     1      46.864   3.237   6.245  0.00  0.00    +0.000 A 
ATOM     16  N   UNL     1      46.973   1.899   6.379  0.00  0.00    +0.000 NA
ENDBRANCH   4  13
ENDBRANCH   1   8
BRANCH   1  17
ATOM     17  C   UNL     1      47.345   6.074  13.035  0.00  0.00    +0.000 C 
BRANCH  17  18
ATOM     18  N   UNL     1      46.599   5.339  14.048  0.00  0.00    +0.000 N 
ATOM     19  C   UNL     1      47.257   5.006  15.225  0.00  0.00    +0.000 A 
ATOM     20  C   UNL     1      48.222   5.807  15.848  0.00  0.00    +0.000 A 
ATOM     21  N   UNL     1      48.840   5.498  17.017  0.00  0.00    +0.000 NA
ATOM     22  C   UNL     1      48.416   4.334  17.577  0.00  0.00    +0.000 A 
ATOM     23  C   UNL     1      47.452   3.534  16.987  0.00  0.00    +0.000 A 
ATOM     24  N   UNL     1      46.865   3.850  15.800  0.00  0.00    +0.000 NA
ATOM     25  H   UNL     1      46.106   4.502  13.740  0.00  0.00    +0.000 HD
BRANCH  22  26
ATOM     26  C   UNL     1      49.028   3.939  18.872  0.00  0.00    +0.000 C 
ATOM     27  N   UNL     1      48.329   3.021  19.610  0.00  0.00    +0.000 N 
ATOM     28  O   UNL     1      50.095   4.404  19.259  0.00  0.00    +0.000 OA
ATOM     29  H   UNL     1      47.455   2.651  19.256  0.00  0.00    +0.000 HD
ATOM     30  H   UNL     1      48.701   2.704  20.493  0.00  0.00    +0.000 HD
ENDBRANCH  22  26
ENDBRANCH  17  18
ENDBRANCH   1  17
TORSDOF 5
ENDMDL
MODEL 6
REMARK VINA RESULT:    -7.567      2.963      7.870
REMARK INTER + INTRA:         -10.617
REMARK INTER:                  -9.521
REMARK INTRA:                  -1.096
REMARK UNBOUND:                -0.838
REMARK  Name = 
REMARK  8 active torsions:
REMARK  status: ('A' for Active; 'I' for Inactive)
REMARK    1  A    between atoms: C_1  and  C_2
REMARK    2  A    between atoms: C_4  and  C_5
REMARK    3  A    between atoms: C_9  and  C_10
REMARK    4  A    between atoms: C_10  and  C_11
REMARK    5  A    between atoms: C_10  and  C_12
REMARK    6  A    between atoms: C_10  and  C_13
REMARK    7  A    between atoms: C_13  and  N_14
REMARK    8  A    between atoms: C_18  and  C_19
REMARK                            x       y       z     vdW  Elec       q    Type
REMARK                         _______ _______ _______ _____ _____    ______ ____
ROOT
ATOM      1  C   UNL     1      49.071   8.550  12.588  0.00  0.00    +0.000 C 
ATOM      2  C   UNL     1      49.890   7.365  12.015  0.00  0.00    +0.000 C 
ATOM      3  C   UNL     1      49.584   9.870  11.977  0.00  0.00    +0.000 C 
ENDROOT
BRANCH   1   8
ATOM      4  C   UNL     1      45.835   6.778  11.383  0.00  0.00    +0.000 A 
ATOM      5  C   UNL     1      44.868   7.735  11.724  0.00  0.00    +0.000 A 
ATOM      6  C   UNL     1      45.233   8.973  12.246  0.00  0.00    +0.000 A 
ATOM      7  C   UNL     1      46.573   9.269  12.487  0.00  0.00    +0.000 A 
ATOM      8  C   UNL     1      47.583   8.336  12.204  0.00  0.00    +0.000 A 
ATOM      9  C   UNL     1      47.185   7.123  11.604  0.00  0.00    +0.000 A 
BRANCH   4  13
ATOM     10  C   UNL     1      45.436   3.527   7.566  0.00  0.00    +0.000 C 
ATOM     11  C   UNL     1      45.279   3.866   9.018  0.00  0.00    +0.000 A 
ATOM     12  C   UNL     1      45.642   5.122   9.496  0.00  0.00    +0.000 A 
ATOM     13  C   UNL     1      45.461   5.445  10.851  0.00  0.00    +0.000 A 
ATOM     14  C   UNL     1      44.926   4.444  11.670  0.00  0.00    +0.000 A 
ATOM     15  C   UNL     1      44.610   3.212  11.121  0.00  0.00    +0.000 A 
ATOM     16  N   UNL     1      44.770   2.905   9.817  0.00  0.00    +0.000 NA
ENDBRANCH   4  13
ENDBRANCH   1   8
BRANCH   1  17
ATOM     17  C   UNL     1      49.254   8.579  14.136  0.00  0.00    +0.000 C 
BRANCH  17  18
ATOM     18  N   UNL     1      50.070   7.494  14.667  0.00  0.00    +0.000 N 
ATOM     19  C   UNL     1      49.440   6.528  15.441  0.00  0.00    +0.000 A 
ATOM     20  C   UNL     1      48.134   6.068  15.228  0.00  0.00    +0.000 A 
ATOM     21  N   UNL     1      47.530   5.099  15.963  0.00  0.00    +0.000 NA
ATOM     22  C   UNL     1      48.321   4.564  16.931  0.00  0.00    +0.000 A 
ATOM     23  C   UNL     1      49.620   4.992  17.149  0.00  0.00    +0.000 A 
ATOM     24  N   UNL     1      50.196   5.985  16.417  0.00  0.00    +0.000 NA
ATOM     25  H   UNL     1      50.921   7.757  15.161  0.00  0.00    +0.000 HD
BRANCH  22  26
ATOM     26  C   UNL     1      47.739   3.479  17.763  0.00  0.00    +0.000 C 
ATOM     27  N   UNL     1      48.411   3.186  18.920  0.00  0.00    +0.000 N 
ATOM     28  O   UNL     1      46.720   2.881  17.437  0.00  0.00    +0.000 OA
ATOM     29  H   UNL     1      49.245   3.707  19.164  0.00  0.00    +0.000 HD
ATOM     30  H   UNL     1      48.057   2.467  19.534  0.00  0.00    +0.000 HD
ENDBRANCH  22  26
ENDBRANCH  17  18
ENDBRANCH   1  17
TORSDOF 5
ENDMDL
MODEL 7
REMARK VINA RESULT:    -6.691      4.129      7.342
REMARK INTER + INTRA:          -9.484
REMARK INTER:                  -8.314
REMARK INTRA:                  -1.170
REMARK UNBOUND:                -0.838
REMARK  Name = 
REMARK  8 active torsions:
REMARK  status: ('A' for Active; 'I' for Inactive)
REMARK    1  A    between atoms: C_1  and  C_2
REMARK    2  A    between atoms: C_4  and  C_5
REMARK    3  A    between atoms: C_9  and  C_10
REMARK    4  A    between atoms: C_10  and  C_11
REMARK    5  A    between atoms: C_10  and  C_12
REMARK    6  A    between atoms: C_10  and  C_13
REMARK    7  A    between atoms: C_13  and  N_14
REMARK    8  A    between atoms: C_18  and  C_19
REMARK                            x       y       z     vdW  Elec       q    Type
REMARK                         _______ _______ _______ _____ _____    ______ ____
ROOT
ATOM      1  C   UNL     1      45.510   5.493  12.164  0.00  0.00    +0.000 C 
ATOM      2  C   UNL     1      44.143   5.405  12.889  0.00  0.00    +0.000 C 
ATOM      3  C   UNL     1      45.324   5.130  10.676  0.00  0.00    +0.000 C 
ENDROOT
BRANCH   1   8
ATOM      4  C   UNL     1      47.930   8.525  12.044  0.00  0.00    +0.000 A 
ATOM      5  C   UNL     1      47.032   9.586  12.222  0.00  0.00    +0.000 A 
ATOM      6  C   UNL     1      45.682   9.353  12.472  0.00  0.00    +0.000 A 
ATOM      7  C   UNL     1      45.185   8.051  12.502  0.00  0.00    +0.000 A 
ATOM      8  C   UNL     1      46.029   6.949  12.290  0.00  0.00    +0.000 A 
ATOM      9  C   UNL     1      47.403   7.218  12.118  0.00  0.00    +0.000 A 
BRANCH   4  13
ATOM     10  C   UNL     1      52.343   6.967  10.200  0.00  0.00    +0.000 C 
ATOM     11  C   UNL     1      51.494   8.018  10.850  0.00  0.00    +0.000 A 
ATOM     12  C   UNL     1      50.147   7.780  11.110  0.00  0.00    +0.000 A 
ATOM     13  C   UNL     1      49.365   8.757  11.750  0.00  0.00    +0.000 A 
ATOM     14  C   UNL     1      50.004   9.957  12.080  0.00  0.00    +0.000 A 
ATOM     15  C   UNL     1      51.344  10.123  11.768  0.00  0.00    +0.000 A 
ATOM     16  N   UNL     1      52.100   9.181  11.166  0.00  0.00    +0.000 NA
ENDBRANCH   4  13
ENDBRANCH   1   8
BRANCH   1  17
ATOM     17  C   UNL     1      46.492   4.484  12.834  0.00  0.00    +0.000 C 
BRANCH  17  18
ATOM     18  N   UNL     1      46.152   4.130  14.206  0.00  0.00    +0.000 N 
ATOM     19  C   UNL     1      47.093   4.383  15.194  0.00  0.00    +0.000 A 
ATOM     20  C   UNL     1      47.962   5.482  15.199  0.00  0.00    +0.000 A 
ATOM     21  N   UNL     1      48.859   5.749  16.184  0.00  0.00    +0.000 NA
ATOM     22  C   UNL     1      48.829   4.865  17.215  0.00  0.00    +0.000 A 
ATOM     23  C   UNL     1      47.967   3.780  17.239  0.00  0.00    +0.000 A 
ATOM     24  N   UNL     1      47.095   3.516  16.227  0.00  0.00    +0.000 NA
ATOM     25  H   UNL     1      45.806   3.185  14.364  0.00  0.00    +0.000 HD
BRANCH  22  26
ATOM     26  C   UNL     1      49.765   5.103  18.344  0.00  0.00    +0.000 C 
ATOM     27  N   UNL     1      50.014   4.027  19.154  0.00  0.00    +0.000 N 
ATOM     28  O   UNL     1      50.285   6.197  18.542  0.00  0.00    +0.000 OA
ATOM     29  H   UNL     1      49.574   3.136  18.956  0.00  0.00    +0.000 HD
ATOM     30  H   UNL     1      50.652   4.124  19.930  0.00  0.00    +0.000 HD
ENDBRANCH  22  26
ENDBRANCH  17  18
ENDBRANCH   1  17
TORSDOF 5
ENDMDL
MODEL 8
REMARK VINA RESULT:    -6.684      2.854      5.021
REMARK INTER + INTRA:          -9.476
REMARK INTER:                  -8.529
REMARK INTRA:                  -0.947
REMARK UNBOUND:                -0.838
REMARK  Name = 
REMARK  8 active torsions:
REMARK  status: ('A' for Active; 'I' for Inactive)
REMARK    1  A    between atoms: C_1  and  C_2
REMARK    2  A    between atoms: C_4  and  C_5
REMARK    3  A    between atoms: C_9  and  C_10
REMARK    4  A    between atoms: C_10  and  C_11
REMARK    5  A    between atoms: C_10  and  C_12
REMARK    6  A    between atoms: C_10  and  C_13
REMARK    7  A    between atoms: C_13  and  N_14
REMARK    8  A    between atoms: C_18  and  C_19
REMARK                            x       y       z     vdW  Elec       q    Type
REMARK                         _______ _______ _______ _____ _____    ______ ____
ROOT
ATOM      1  C   UNL     1      48.871   8.334  13.026  0.00  0.00    +0.000 C 
ATOM      2  C   UNL     1      48.808   9.882  12.945  0.00  0.00    +0.000 C 
ATOM      3  C   UNL     1      49.389   7.773  11.687  0.00  0.00    +0.000 C 
ENDROOT
BRANCH   1   8
ATOM      4  C   UNL     1      50.245   6.621  16.226  0.00  0.00    +0.000 A 
ATOM      5  C   UNL     1      51.601   6.971  16.151  0.00  0.00    +0.000 A 
ATOM      6  C   UNL     1      52.071   7.819  15.151  0.00  0.00    +0.000 A 
ATOM      7  C   UNL     1      51.206   8.301  14.171  0.00  0.00    +0.000 A 
ATOM      8  C   UNL     1      49.846   7.953  14.170  0.00  0.00    +0.000 A 
ATOM      9  C   UNL     1      49.388   7.156  15.241  0.00  0.00    +0.000 A 
BRANCH   4  13
ATOM     10  C   UNL     1      47.259   2.834  17.654  0.00  0.00    +0.000 C 
ATOM     11  C   UNL     1      48.306   3.862  17.961  0.00  0.00    +0.000 A 
ATOM     12  C   UNL     1      48.776   4.714  16.966  0.00  0.00    +0.000 A 
ATOM     13  C   UNL     1      49.734   5.698  17.267  0.00  0.00    +0.000 A 
ATOM     14  C   UNL     1      50.185   5.750  18.591  0.00  0.00    +0.000 A 
ATOM     15  C   UNL     1      49.683   4.851  19.518  0.00  0.00    +0.000 A 
ATOM     16  N   UNL     1      48.753   3.916  19.233  0.00  0.00    +0.000 NA
ENDBRANCH   4  13
ENDBRANCH   1   8
BRANCH   1  17
ATOM     17  C   UNL     1      47.435   7.793  13.305  0.00  0.00    +0.000 C 
BRANCH  17  18
ATOM     18  N   UNL     1      46.592   7.681  12.122  0.00  0.00    +0.000 N 
ATOM     19  C   UNL     1      45.965   6.464  11.885  0.00  0.00    +0.000 A 
ATOM     20  C   UNL     1      45.478   5.615  12.887  0.00  0.00    +0.000 A 
ATOM     21  N   UNL     1      44.834   4.442  12.655  0.00  0.00    +0.000 NA
ATOM     22  C   UNL     1      44.658   4.157  11.338  0.00  0.00    +0.000 A 
ATOM     23  C   UNL     1      45.117   4.990  10.331  0.00  0.00    +0.000 A 
ATOM     24  N   UNL     1      45.785   6.148  10.587  0.00  0.00    +0.000 NA
ATOM     25  H   UNL     1      46.999   7.978  11.237  0.00  0.00    +0.000 HD
BRANCH  22  26
ATOM     26  C   UNL     1      43.939   2.901  11.003  0.00  0.00    +0.000 C 
ATOM     27  N   UNL     1      44.448   2.181   9.955  0.00  0.00    +0.000 N 
ATOM     28  O   UNL     1      42.950   2.529  11.625  0.00  0.00    +0.000 OA
ATOM     29  H   UNL     1      45.272   2.513   9.469  0.00  0.00    +0.000 HD
ATOM     30  H   UNL     1      44.010   1.312   9.688  0.00  0.00    +0.000 HD
ENDBRANCH  22  26
ENDBRANCH  17  18
ENDBRANCH   1  17
TORSDOF 5
ENDMDL
MODEL 9
REMARK VINA RESULT:    -6.541      4.197      8.829
REMARK INTER + INTRA:          -9.290
REMARK INTER:                  -8.518
REMARK INTRA:                  -0.772
REMARK UNBOUND:                -0.838
REMARK  Name = 
REMARK  8 active torsions:
REMARK  status: ('A' for Active; 'I' for Inactive)
REMARK    1  A    between atoms: C_1  and  C_2
REMARK    2  A    between atoms: C_4  and  C_5
REMARK    3  A    between atoms: C_9  and  C_10
REMARK    4  A    between atoms: C_10  and  C_11
REMARK    5  A    between atoms: C_10  and  C_12
REMARK    6  A    between atoms: C_10  and  C_13
REMARK    7  A    between atoms: C_13  and  N_14
REMARK    8  A    between atoms: C_18  and  C_19
REMARK                            x       y       z     vdW  Elec       q    Type
REMARK                         _______ _______ _______ _____ _____    ______ ____
ROOT
ATOM      1  C   UNL     1      47.987   4.506  17.084  0.00  0.00    +0.000 C 
ATOM      2  C   UNL     1      47.486   5.530  18.135  0.00  0.00    +0.000 C 
ATOM      3  C   UNL     1      47.165   3.206  17.206  0.00  0.00    +0.000 C 
ENDROOT
BRANCH   1   8
ATOM      4  C   UNL     1      46.402   5.256  13.622  0.00  0.00    +0.000 A 
ATOM      5  C   UNL     1      47.162   6.363  13.218  0.00  0.00    +0.000 A 
ATOM      6  C   UNL     1      48.231   6.820  13.985  0.00  0.00    +0.000 A 
ATOM      7  C   UNL     1      48.538   6.212  15.200  0.00  0.00    +0.000 A 
ATOM      8  C   UNL     1      47.788   5.125  15.676  0.00  0.00    +0.000 A 
ATOM      9  C   UNL     1      46.762   4.639  14.839  0.00  0.00    +0.000 A 
BRANCH   4  13
ATOM     10  C   UNL     1      44.482   2.492   9.885  0.00  0.00    +0.000 C 
ATOM     11  C   UNL     1      44.308   3.432  11.040  0.00  0.00    +0.000 A 
ATOM     12  C   UNL     1      45.409   3.867  11.771  0.00  0.00    +0.000 A 
ATOM     13  C   UNL     1      45.243   4.774  12.831  0.00  0.00    +0.000 A 
ATOM     14  C   UNL     1      43.935   5.184  13.108  0.00  0.00    +0.000 A 
ATOM     15  C   UNL     1      42.890   4.689  12.345  0.00  0.00    +0.000 A 
ATOM     16  N   UNL     1      43.049   3.829  11.318  0.00  0.00    +0.000 NA
ENDBRANCH   4  13
ENDBRANCH   1   8
BRANCH   1  17
ATOM     17  C   UNL     1      49.491   4.207  17.361  0.00  0.00    +0.000 C 
BRANCH  17  18
ATOM     18  N   UNL     1      49.779   2.819  17.701  0.00  0.00    +0.000 N 
ATOM     19  C   UNL     1      51.105   2.408  17.684  0.00  0.00    +0.000 A 
ATOM     20  C   UNL     1      52.190   3.213  18.056  0.00  0.00    +0.000 A 
ATOM     21  N   UNL     1      53.484   2.801  18.074  0.00  0.00    +0.000 NA
ATOM     22  C   UNL     1      53.655   1.498  17.726  0.00  0.00    +0.000 A 
ATOM     23  C   UNL     1      52.596   0.679  17.370  0.00  0.00    +0.000 A 
ATOM     24  N   UNL     1      51.309   1.122  17.333  0.00  0.00    +0.000 NA
ATOM     25  H   UNL     1      49.244   2.105  17.209  0.00  0.00    +0.000 HD
BRANCH  22  26
ATOM     26  C   UNL     1      55.042   0.965  17.744  0.00  0.00    +0.000 C 
ATOM     27  N   UNL     1      55.454   0.329  16.603  0.00  0.00    +0.000 N 
ATOM     28  O   UNL     1      55.774   1.085  18.721  0.00  0.00    +0.000 OA
ATOM     29  H   UNL     1      54.826   0.257  15.812  0.00  0.00    +0.000 HD
ATOM     30  H   UNL     1      56.391  -0.043  16.551  0.00  0.00    +0.000 HD
ENDBRANCH  22  26
ENDBRANCH  17  18
ENDBRANCH   1  17
TORSDOF 5
ENDMDL
