MODEL 1
REMARK VINA RESULT:    -8.359      0.000      0.000
REMARK INTER + INTRA:         -10.904
REMARK INTER:                 -10.314
REMARK INTRA:                  -0.591
REMARK UNBOUND:                -0.591
REMARK  Name = 
REMARK  5 active torsions:
REMARK  status: ('A' for Active; 'I' for Inactive)
REMARK    1  A    between atoms: C_1  and  C_2
REMARK    2  A    between atoms: C_2  and  O_3
REMARK    3  A    between atoms: C_2  and  C_13
REMARK    4  A    between atoms: O_3  and  C_4
REMARK    5  A    between atoms: C_7  and  C_8
REMARK                            x       y       z     vdW  Elec       q    Type
REMARK                         _______ _______ _______ _____ _____    ______ ____
ROOT
ATOM      1  C   UNL     1      44.553   4.016   9.099  0.00  0.00    +0.000 A 
ATOM      2  C   UNL     1      44.514   2.659   9.378  0.00  0.00    +0.000 A 
ATOM      3  C   UNL     1      45.422   1.820   8.733  0.00  0.00    +0.000 A 
ATOM      4  C   UNL     1      46.339   2.357   7.824  0.00  0.00    +0.000 A 
ATOM      5  C   UNL     1      46.297   3.728   7.617  0.00  0.00    +0.000 A 
ATOM      6  N   UNL     1      45.430   4.572   8.236  0.00  0.00    +0.000 NA
ENDROOT
BRANCH   4   7
ATOM      7  C   UNL     1      47.297   1.451   7.142  0.00  0.00    +0.000 C 
ATOM      8  N   UNL     1      48.402   1.980   6.536  0.00  0.00    +0.000 N 
ATOM      9  O   UNL     1      47.108   0.239   7.115  0.00  0.00    +0.000 OA
ATOM     10  H   UNL     1      48.645   2.955   6.479  0.00  0.00    +0.000 HD
ATOM     11  H   UNL     1      49.021   1.321   6.080  0.00  0.00    +0.000 HD
ENDBRANCH   4   7
BRANCH   1  12
ATOM     12  O   UNL     1      43.629   4.803   9.751  0.00  0.00    +0.000 OA
BRANCH  12  14
ATOM     13  C   UNL     1      42.380   5.404  11.740  0.00  0.00    +0.000 C 
ATOM     14  C   UNL     1      43.586   4.652  11.176  0.00  0.00    +0.000 C 
BRANCH  14  15
ATOM     15  C   UNL     1      44.886   5.217  11.735  0.00  0.00    +0.000 A 
ATOM     16  C   UNL     1      45.611   4.482  12.688  0.00  0.00    +0.000 A 
ATOM     17  C   UNL     1      46.799   4.985  13.224  0.00  0.00    +0.000 A 
ATOM     18  C   UNL     1      47.271   6.228  12.808  0.00  0.00    +0.000 A 
ATOM     19 CL   UNL     1      48.733   6.850  13.470  0.00  0.00    +0.000 Cl
ATOM     20  C   UNL     1      46.568   6.969  11.862  0.00  0.00    +0.000 A 
ATOM     21  C   UNL     1      45.382   6.465  11.325  0.00  0.00    +0.000 A 
ENDBRANCH  14  15
ENDBRANCH  12  14
ENDBRANCH   1  12
TORSDOF 4
ENDMDL
MODEL 2
REMARK VINA RESULT:    -7.617      1.594      1.958
REMARK INTER + INTRA:          -9.989
REMARK INTER:                  -9.356
REMARK INTRA:                  -0.634
REMARK UNBOUND:                -0.591
REMARK  Name = 
REMARK  5 active torsions:
REMARK  status: ('A' for Active; 'I' for Inactive)
REMARK    1  A    between atoms: C_1  and  C_2
REMARK    2  A    between atoms: C_2  and  O_3
REMARK    3  A    between atoms: C_2  and  C_13
REMARK    4  A    between atoms: O_3  and  C_4
REMARK    5  A    between atoms: C_7  and  C_8
REMARK                            x       y       z     vdW  Elec       q    Type
REMARK                         _______ _______ _______ _____ _____    ______ ____
ROOT
ATOM      1  C   UNL     1      44.866   3.021   9.210  0.00  0.00    +0.000 A 
ATOM      2  C   UNL     1      45.249   4.082   8.406  0.00  0.00    +0.000 A 
ATOM      3  C   UNL     1      46.165   3.845   7.381  0.00  0.00    +0.000 A 
ATOM      4  C   UNL     1      46.677   2.558   7.191  0.00  0.00    +0.000 A 
ATOM      5  C   UNL     1      46.227   1.565   8.049  0.00  0.00    +0.000 A 
ATOM      6  N   UNL     1      45.330   1.763   9.050  0.00  0.00    +0.000 NA
ENDROOT
BRANCH   4   7
ATOM      7  C   UNL     1      47.654   2.322   6.099  0.00  0.00    +0.000 C 
ATOM      8  N   UNL     1      47.716   3.202   5.055  0.00  0.00    +0.000 N 
ATOM      9  O   UNL     1      48.403   1.350   6.123  0.00  0.00    +0.000 OA
ATOM     10  H   UNL     1      47.141   4.017   4.924  0.00  0.00    +0.000 HD
ATOM     11  H   UNL     1      48.396   2.993   4.334  0.00  0.00    +0.000 HD
ENDBRANCH   4   7
BRANCH   1  12
ATOM     12  O   UNL     1      43.969   3.306  10.216  0.00  0.00    +0.000 OA
BRANCH  12  14
ATOM     13  C   UNL     1      43.453   2.782  12.525  0.00  0.00    +0.000 C 
ATOM     14  C   UNL     1      44.507   3.295  11.544  0.00  0.00    +0.000 C 
BRANCH  14  15
ATOM     15  C   UNL     1      44.915   4.723  11.886  0.00  0.00    +0.000 A 
ATOM     16  C   UNL     1      46.090   4.956  12.619  0.00  0.00    +0.000 A 
ATOM     17  C   UNL     1      46.476   6.256  12.954  0.00  0.00    +0.000 A 
ATOM     18  C   UNL     1      45.689   7.334  12.556  0.00  0.00    +0.000 A 
ATOM     19 CL   UNL     1      46.164   8.935  12.970  0.00  0.00    +0.000 Cl
ATOM     20  C   UNL     1      44.523   7.123  11.825  0.00  0.00    +0.000 A 
ATOM     21  C   UNL     1      44.138   5.824  11.488  0.00  0.00    +0.000 A 
ENDBRANCH  14  15
ENDBRANCH  12  14
ENDBRANCH   1  12
TORSDOF 4
ENDMDL
MODEL 3
REMARK VINA RESULT:    -6.776      3.497      6.419
REMARK INTER + INTRA:          -8.951
REMARK INTER:                  -8.414
REMARK INTRA:                  -0.537
REMARK UNBOUND:                -0.591
REMARK  Name = 
REMARK  5 active torsions:
REMARK  status: ('A' for Active; 'I' for Inactive)
REMARK    1  A    between atoms: C_1  and  C_2
REMARK    2  A    between atoms: C_2  and  O_3
REMARK    3  A    between atoms: C_2  and  C_13
REMARK    4  A    between atoms: O_3  and  C_4
REMARK    5  A    between atoms: C_7  and  C_8
REMARK                            x       y       z     vdW  Elec       q    Type
REMARK                         _______ _______ _______ _____ _____    ______ ____
ROOT
ATOM      1  C   UNL     1      45.307   5.821  11.858  0.00  0.00    +0.000 A 
ATOM      2  C   UNL     1      46.487   6.273  12.427  0.00  0.00    +0.000 A 
ATOM      3  C   UNL     1      46.701   7.649  12.512  0.00  0.00    +0.000 A 
ATOM      4  C   UNL     1      45.736   8.534  12.021  0.00  0.00    +0.000 A 
ATOM      5  C   UNL     1      44.590   7.979  11.472  0.00  0.00    +0.000 A 
ATOM      6  N   UNL     1      44.348   6.645  11.384  0.00  0.00    +0.000 NA
ENDROOT
BRANCH   4   7
ATOM      7  C   UNL     1      45.980   9.995  12.114  0.00  0.00    +0.000 C 
ATOM      8  N   UNL     1      44.913  10.849  12.158  0.00  0.00    +0.000 N 
ATOM      9  O   UNL     1      47.121  10.442  12.151  0.00  0.00    +0.000 OA
ATOM     10  H   UNL     1      43.941  10.595  12.115  0.00  0.00    +0.000 HD
ATOM     11  H   UNL     1      45.133  11.836  12.217  0.00  0.00    +0.000 HD
ENDBRANCH   4   7
BRANCH   1  12
ATOM     12  O   UNL     1      45.147   4.455  11.785  0.00  0.00    +0.000 OA
BRANCH  12  14
ATOM     13  C   UNL     1      43.375   2.851  11.382  0.00  0.00    +0.000 C 
ATOM     14  C   UNL     1      44.209   3.995  10.805  0.00  0.00    +0.000 C 
BRANCH  14  15
ATOM     15  C   UNL     1      45.005   3.526   9.593  0.00  0.00    +0.000 A 
ATOM     16  C   UNL     1      45.211   2.152   9.383  0.00  0.00    +0.000 A 
ATOM     17  C   UNL     1      45.949   1.701   8.286  0.00  0.00    +0.000 A 
ATOM     18  C   UNL     1      46.484   2.622   7.388  0.00  0.00    +0.000 A 
ATOM     19 CL   UNL     1      47.394   2.067   6.038  0.00  0.00    +0.000 Cl
ATOM     20  C   UNL     1      46.287   3.987   7.577  0.00  0.00    +0.000 A 
ATOM     21  C   UNL     1      45.548   4.438   8.673  0.00  0.00    +0.000 A 
ENDBRANCH  14  15
ENDBRANCH  12  14
ENDBRANCH   1  12
TORSDOF 4
ENDMDL
MODEL 4
REMARK VINA RESULT:    -6.773      3.970      6.460
REMARK INTER + INTRA:          -8.947
REMARK INTER:                  -8.345
REMARK INTRA:                  -0.601
REMARK UNBOUND:                -0.591
REMARK  Name = 
REMARK  5 active torsions:
REMARK  status: ('A' for Active; 'I' for Inactive)
REMARK    1  A    between atoms: C_1  and  C_2
REMARK    2  A    between atoms: C_2  and  O_3
REMARK    3  A    between atoms: C_2  and  C_13
REMARK    4  A    between atoms: O_3  and  C_4
REMARK    5  A    between atoms: C_7  and  C_8
REMARK                            x       y       z     vdW  Elec       q    Type
REMARK                         _______ _______ _______ _____ _____    ______ ____
ROOT
ATOM      1  C   UNL     1      45.885   4.608  12.971  0.00  0.00    +0.000 A 
ATOM      2  C   UNL     1      46.303   5.870  12.579  0.00  0.00    +0.000 A 
ATOM      3  C   UNL     1      47.224   6.545  13.379  0.00  0.00    +0.000 A 
ATOM      4  C   UNL     1      47.698   5.945  14.550  0.00  0.00    +0.000 A 
ATOM      5  C   UNL     1      47.219   4.679  14.851  0.00  0.00    +0.000 A 
ATOM      6  N   UNL     1      46.328   3.993  14.088  0.00  0.00    +0.000 NA
ENDROOT
BRANCH   4   7
ATOM      7  C   UNL     1      48.676   6.677  15.393  0.00  0.00    +0.000 C 
ATOM      8  N   UNL     1      48.316   7.873  15.948  0.00  0.00    +0.000 N 
ATOM      9  O   UNL     1      49.797   6.223  15.597  0.00  0.00    +0.000 OA
ATOM     10  H   UNL     1      47.436   8.346  15.833  0.00  0.00    +0.000 HD
ATOM     11  H   UNL     1      49.020   8.335  16.512  0.00  0.00    +0.000 HD
ENDBRANCH   4   7
BRANCH   1  12
ATOM     12  O   UNL     1      44.964   3.987  12.155  0.00  0.00    +0.000 OA
BRANCH  12  14
ATOM     13  C   UNL     1      43.056   4.784  10.892  0.00  0.00    +0.000 C 
ATOM     14  C   UNL     1      44.580   4.721  10.986  0.00  0.00    +0.000 C 
BRANCH  14  15
ATOM     15  C   UNL     1      45.168   4.001   9.779  0.00  0.00    +0.000 A 
ATOM     16  C   UNL     1      45.094   2.600   9.699  0.00  0.00    +0.000 A 
ATOM     17  C   UNL     1      45.637   1.918   8.608  0.00  0.00    +0.000 A 
ATOM     18  C   UNL     1      46.256   2.634   7.585  0.00  0.00    +0.000 A 
ATOM     19 CL   UNL     1      46.927   1.794   6.241  0.00  0.00    +0.000 Cl
ATOM     20  C   UNL     1      46.335   4.023   7.645  0.00  0.00    +0.000 A 
ATOM     21  C   UNL     1      45.791   4.705   8.735  0.00  0.00    +0.000 A 
ENDBRANCH  14  15
ENDBRANCH  12  14
ENDBRANCH   1  12
TORSDOF 4
ENDMDL
MODEL 5
REMARK VINA RESULT:    -6.321      3.754      6.611
REMARK INTER + INTRA:          -8.390
REMARK INTER:                  -7.813
REMARK INTRA:                  -0.577
REMARK UNBOUND:                -0.591
REMARK  Name = 
REMARK  5 active torsions:
REMARK  status: ('A' for Active; 'I' for Inactive)
REMARK    1  A    between atoms: C_1  and  C_2
REMARK    2  A    between atoms: C_2  and  O_3
REMARK    3  A    between atoms: C_2  and  C_13
REMARK    4  A    between atoms: O_3  and  C_4
REMARK    5  A    between atoms: C_7  and  C_8
REMARK                            x       y       z     vdW  Elec       q    Type
REMARK                         _______ _______ _______ _____ _____    ______ ____
ROOT
ATOM      1  C   UNL     1      45.878   5.659  12.604  0.00  0.00    +0.000 A 
ATOM      2  C   UNL     1      47.129   5.524  13.185  0.00  0.00    +0.000 A 
ATOM      3  C   UNL     1      47.784   6.673  13.629  0.00  0.00    +0.000 A 
ATOM      4  C   UNL     1      47.176   7.922  13.476  0.00  0.00    +0.000 A 
ATOM      5  C   UNL     1      45.922   7.948  12.884  0.00  0.00    +0.000 A 
ATOM      6  N   UNL     1      45.255   6.847  12.449  0.00  0.00    +0.000 NA
ENDROOT
BRANCH   4   7
ATOM      7  C   UNL     1      47.887   9.136  13.949  0.00  0.00    +0.000 C 
ATOM      8  N   UNL     1      47.748  10.306  13.255  0.00  0.00    +0.000 N 
ATOM      9  O   UNL     1      48.595   9.102  14.951  0.00  0.00    +0.000 OA
ATOM     10  H   UNL     1      47.212  10.443  12.415  0.00  0.00    +0.000 HD
ATOM     11  H   UNL     1      48.257  11.104  13.616  0.00  0.00    +0.000 HD
ENDBRANCH   4   7
BRANCH   1  12
ATOM     12  O   UNL     1      45.276   4.498  12.170  0.00  0.00    +0.000 OA
BRANCH  12  14
ATOM     13  C   UNL     1      43.038   4.000  11.384  0.00  0.00    +0.000 C 
ATOM     14  C   UNL     1      44.386   4.643  11.057  0.00  0.00    +0.000 C 
BRANCH  14  15
ATOM     15  C   UNL     1      45.035   3.960   9.859  0.00  0.00    +0.000 A 
ATOM     16  C   UNL     1      45.661   4.736   8.869  0.00  0.00    +0.000 A 
ATOM     17  C   UNL     1      46.251   4.133   7.756  0.00  0.00    +0.000 A 
ATOM     18  C   UNL     1      46.221   2.746   7.627  0.00  0.00    +0.000 A 
ATOM     19 CL   UNL     1      46.946   2.001   6.255  0.00  0.00    +0.000 Cl
ATOM     20  C   UNL     1      45.609   1.960   8.599  0.00  0.00    +0.000 A 
ATOM     21  C   UNL     1      45.021   2.564   9.713  0.00  0.00    +0.000 A 
ENDBRANCH  14  15
ENDBRANCH  12  14
ENDBRANCH   1  12
TORSDOF 4
ENDMDL
MODEL 6
REMARK VINA RESULT:    -6.059      3.363      5.883
REMARK INTER + INTRA:          -8.067
REMARK INTER:                  -9.019
REMARK INTRA:                   0.952
REMARK UNBOUND:                -0.591
REMARK  Name = 
REMARK  5 active torsions:
REMARK  status: ('A' for Active; 'I' for Inactive)
REMARK    1  A    between atoms: C_1  and  C_2
REMARK    2  A    between atoms: C_2  and  O_3
REMARK    3  A    between atoms: C_2  and  C_13
REMARK    4  A    between atoms: O_3  and  C_4
REMARK    5  A    between atoms: C_7  and  C_8
REMARK                            x       y       z     vdW  Elec       q    Type
REMARK                         _______ _______ _______ _____ _____    ______ ____
ROOT
ATOM      1  C   UNL     1      45.006   5.523  11.451  0.00  0.00    +0.000 A 
ATOM      2  C   UNL     1      44.740   4.997  12.706  0.00  0.00    +0.000 A 
ATOM      3  C   UNL     1      45.715   5.114  13.696  0.00  0.00    +0.000 A 
ATOM      4  C   UNL     1      46.928   5.746  13.407  0.00  0.00    +0.000 A 
ATOM      5  C   UNL     1      47.093   6.240  12.121  0.00  0.00    +0.000 A 
ATOM      6  N   UNL     1      46.160   6.149  11.137  0.00  0.00    +0.000 NA
ENDROOT
BRANCH   4   7
ATOM      7  C   UNL     1      47.958   5.859  14.470  0.00  0.00    +0.000 C 
ATOM      8  N   UNL     1      47.719   5.299  15.694  0.00  0.00    +0.000 N 
ATOM      9  O   UNL     1      49.015   6.446  14.264  0.00  0.00    +0.000 OA
ATOM     10  H   UNL     1      46.885   4.814  15.978  0.00  0.00    +0.000 HD
ATOM     11  H   UNL     1      48.451   5.408  16.386  0.00  0.00    +0.000 HD
ENDBRANCH   4   7
BRANCH   1  12
ATOM     12  O   UNL     1      44.018   5.373  10.503  0.00  0.00    +0.000 OA
BRANCH  12  14
ATOM     13  C   UNL     1      43.598   3.191  11.471  0.00  0.00    +0.000 C 
ATOM     14  C   UNL     1      43.665   4.020  10.188  0.00  0.00    +0.000 C 
BRANCH  14  15
ATOM     15  C   UNL     1      44.731   3.475   9.246  0.00  0.00    +0.000 A 
ATOM     16  C   UNL     1      45.375   4.341   8.346  0.00  0.00    +0.000 A 
ATOM     17  C   UNL     1      46.346   3.861   7.465  0.00  0.00    +0.000 A 
ATOM     18  C   UNL     1      46.683   2.510   7.479  0.00  0.00    +0.000 A 
ATOM     19 CL   UNL     1      47.879   1.917   6.393  0.00  0.00    +0.000 Cl
ATOM     20  C   UNL     1      46.059   1.636   8.367  0.00  0.00    +0.000 A 
ATOM     21  C   UNL     1      45.089   2.117   9.249  0.00  0.00    +0.000 A 
ENDBRANCH  14  15
ENDBRANCH  12  14
ENDBRANCH   1  12
TORSDOF 4
ENDMDL
MODEL 7
REMARK VINA RESULT:    -5.916      4.656      6.624
REMARK INTER + INTRA:          -7.890
REMARK INTER:                  -7.376
REMARK INTRA:                  -0.514
REMARK UNBOUND:                -0.591
REMARK  Name = 
REMARK  5 active torsions:
REMARK  status: ('A' for Active; 'I' for Inactive)
REMARK    1  A    between atoms: C_1  and  C_2
REMARK    2  A    between atoms: C_2  and  O_3
REMARK    3  A    between atoms: C_2  and  C_13
REMARK    4  A    between atoms: O_3  and  C_4
REMARK    5  A    between atoms: C_7  and  C_8
REMARK                            x       y       z     vdW  Elec       q    Type
REMARK                         _______ _______ _______ _____ _____    ______ ____
ROOT
ATOM      1  C   UNL     1      47.139   4.823  14.308  0.00  0.00    +0.000 A 
ATOM      2  C   UNL     1      46.941   5.951  13.526  0.00  0.00    +0.000 A 
ATOM      3  C   UNL     1      46.144   5.840  12.387  0.00  0.00    +0.000 A 
ATOM      4  C   UNL     1      45.570   4.608  12.058  0.00  0.00    +0.000 A 
ATOM      5  C   UNL     1      45.828   3.542  12.907  0.00  0.00    +0.000 A 
ATOM      6  N   UNL     1      46.594   3.620  14.027  0.00  0.00    +0.000 NA
ENDROOT
BRANCH   4   7
ATOM      7  C   UNL     1      44.727   4.505  10.841  0.00  0.00    +0.000 C 
ATOM      8  N   UNL     1      43.837   5.503  10.557  0.00  0.00    +0.000 N 
ATOM      9  O   UNL     1      44.819   3.539  10.090  0.00  0.00    +0.000 OA
ATOM     10  H   UNL     1      43.665   6.326  11.109  0.00  0.00    +0.000 HD
ATOM     11  H   UNL     1      43.282   5.382   9.718  0.00  0.00    +0.000 HD
ENDBRANCH   4   7
BRANCH   1  12
ATOM     12  O   UNL     1      47.944   4.979  15.415  0.00  0.00    +0.000 OA
BRANCH  12  14
ATOM     13  C   UNL     1      47.028   4.761  17.648  0.00  0.00    +0.000 C 
ATOM     14  C   UNL     1      47.714   4.050  16.481  0.00  0.00    +0.000 C 
BRANCH  14  15
ATOM     15  C   UNL     1      49.068   3.494  16.906  0.00  0.00    +0.000 A 
ATOM     16  C   UNL     1      50.008   4.341  17.516  0.00  0.00    +0.000 A 
ATOM     17  C   UNL     1      51.260   3.856  17.902  0.00  0.00    +0.000 A 
ATOM     18  C   UNL     1      51.579   2.519  17.682  0.00  0.00    +0.000 A 
ATOM     19 CL   UNL     1      53.122   1.921  18.156  0.00  0.00    +0.000 Cl
ATOM     20  C   UNL     1      50.659   1.663  17.082  0.00  0.00    +0.000 A 
ATOM     21  C   UNL     1      49.406   2.147  16.698  0.00  0.00    +0.000 A 
ENDBRANCH  14  15
ENDBRANCH  12  14
ENDBRANCH   1  12
TORSDOF 4
ENDMDL
MODEL 8
REMARK VINA RESULT:    -5.659      4.249      6.453
REMARK INTER + INTRA:          -7.573
REMARK INTER:                  -7.083
REMARK INTRA:                  -0.491
REMARK UNBOUND:                -0.591
REMARK  Name = 
REMARK  5 active torsions:
REMARK  status: ('A' for Active; 'I' for Inactive)
REMARK    1  A    between atoms: C_1  and  C_2
REMARK    2  A    between atoms: C_2  and  O_3
REMARK    3  A    between atoms: C_2  and  C_13
REMARK    4  A    between atoms: O_3  and  C_4
REMARK    5  A    between atoms: C_7  and  C_8
REMARK                            x       y       z     vdW  Elec       q    Type
REMARK                         _______ _______ _______ _____ _____    ______ ____
ROOT
ATOM      1  C   UNL     1      46.932   5.402  13.381  0.00  0.00    +0.000 A 
ATOM      2  C   UNL     1      46.824   6.269  12.305  0.00  0.00    +0.000 A 
ATOM      3  C   UNL     1      45.624   6.303  11.596  0.00  0.00    +0.000 A 
ATOM      4  C   UNL     1      44.568   5.468  11.976  0.00  0.00    +0.000 A 
ATOM      5  C   UNL     1      44.778   4.640  13.068  0.00  0.00    +0.000 A 
ATOM      6  N   UNL     1      45.932   4.590  13.784  0.00  0.00    +0.000 NA
ENDROOT
BRANCH   4   7
ATOM      7  C   UNL     1      43.298   5.513  11.209  0.00  0.00    +0.000 C 
ATOM      8  N   UNL     1      42.237   6.214  11.712  0.00  0.00    +0.000 N 
ATOM      9  O   UNL     1      43.189   4.930  10.135  0.00  0.00    +0.000 OA
ATOM     10  H   UNL     1      42.209   6.710  12.586  0.00  0.00    +0.000 HD
ATOM     11  H   UNL     1      41.393   6.209  11.153  0.00  0.00    +0.000 HD
ENDBRANCH   4   7
BRANCH   1  12
ATOM     12  O   UNL     1      48.141   5.395  14.043  0.00  0.00    +0.000 OA
BRANCH  12  14
ATOM     13  C   UNL     1      49.656   7.228  14.513  0.00  0.00    +0.000 C 
ATOM     14  C   UNL     1      48.371   6.505  14.919  0.00  0.00    +0.000 C 
BRANCH  14  15
ATOM     15  C   UNL     1      48.484   5.955  16.336  0.00  0.00    +0.000 A 
ATOM     16  C   UNL     1      48.999   6.767  17.360  0.00  0.00    +0.000 A 
ATOM     17  C   UNL     1      49.123   6.279  18.663  0.00  0.00    +0.000 A 
ATOM     18  C   UNL     1      48.731   4.974  18.952  0.00  0.00    +0.000 A 
ATOM     19 CL   UNL     1      48.885   4.372  20.556  0.00  0.00    +0.000 Cl
ATOM     20  C   UNL     1      48.215   4.155  17.951  0.00  0.00    +0.000 A 
ATOM     21  C   UNL     1      48.088   4.644  16.648  0.00  0.00    +0.000 A 
ENDBRANCH  14  15
ENDBRANCH  12  14
ENDBRANCH   1  12
TORSDOF 4
ENDMDL
