MODEL 1
REMARK VINA RESULT:    -8.350      0.000      0.000
REMARK INTER + INTRA:         -13.571
REMARK INTER:                 -12.499
REMARK INTRA:                  -1.072
REMARK UNBOUND:                -1.072
REMARK  Name = 
REMARK  9 active torsions:
REMARK  status: ('A' for Active; 'I' for Inactive)
REMARK    1  A    between atoms: N_1  and  C_2
REMARK    2  A    between atoms: C_2  and  C_3
REMARK    3  A    between atoms: C_3  and  N_4
REMARK    4  A    between atoms: C_3  and  C_26
REMARK    5  A    between atoms: N_4  and  C_5
REMARK    6  A    between atoms: C_5  and  C_6
REMARK    7  A    between atoms: C_9  and  C_10
REMARK    8  A    between atoms: C_10  and  N_11
REMARK    9  A    between atoms: C_12  and  C_14
REMARK                            x       y       z     vdW  Elec       q    Type
REMARK                         _______ _______ _______ _____ _____    ______ ____
ROOT
ATOM      1  C   UNL     1      44.684   6.200  11.373  0.00  0.00    +0.000 A 
ATOM      2  C   UNL     1      45.933   5.613  11.575  0.00  0.00    +0.000 A 
ATOM      3  C   UNL     1      46.885   6.297  12.321  0.00  0.00    +0.000 A 
ATOM      4  C   UNL     1      46.580   7.563  12.827  0.00  0.00    +0.000 A 
ATOM      5  C   UNL     1      45.305   8.062  12.584  0.00  0.00    +0.000 A 
ATOM      6  N   UNL     1      44.352   7.415  11.876  0.00  0.00    +0.000 NA
ENDROOT
BRANCH   1   7
ATOM      7  C   UNL     1      43.637   5.461  10.566  0.00  0.00    +0.000 C 
BRANCH   7   8
ATOM      8  N   UNL     1      44.222   4.814   9.395  0.00  0.00    +0.000 NA
ATOM      9  H   UNL     1      43.675   5.126   8.588  0.00  0.00    +0.000 HD
BRANCH   8  10
ATOM     10  C   UNL     1      44.176   3.334   9.446  0.00  0.00    +0.000 C 
BRANCH  10  11
ATOM     11  C   UNL     1      45.301   2.744   8.580  0.00  0.00    +0.000 A 
ATOM     12  C   UNL     1      45.992   3.545   7.665  0.00  0.00    +0.000 A 
ATOM     13  C   UNL     1      46.983   2.978   6.869  0.00  0.00    +0.000 A 
ATOM     14  C   UNL     1      47.270   1.628   7.006  0.00  0.00    +0.000 A 
ATOM     15  C   UNL     1      46.550   0.900   7.939  0.00  0.00    +0.000 A 
ATOM     16  N   UNL     1      45.582   1.423   8.728  0.00  0.00    +0.000 NA
ENDBRANCH  10  11
BRANCH  10  17
ATOM     17  C   UNL     1      44.280   2.715  10.883  0.00  0.00    +0.000 C 
BRANCH  17  18
ATOM     18  N   UNL     1      43.039   2.140  11.435  0.00  0.00    +0.000 NA
ATOM     19  H   UNL     1      43.257   1.295  11.959  0.00  0.00    +0.000 HD
ATOM     20  H   UNL     1      42.412   1.876  10.677  0.00  0.00    +0.000 HD
ENDBRANCH  17  18
ENDBRANCH  10  17
ENDBRANCH   8  10
ENDBRANCH   7   8
ENDBRANCH   1   7
BRANCH   4  21
ATOM     21  C   UNL     1      47.558   8.333  13.663  0.00  0.00    +0.000 C 
BRANCH  21  22
ATOM     22  N   UNL     1      47.897   7.584  14.843  0.00  0.00    +0.000 N 
ATOM     23  C   UNL     1      49.136   7.033  15.040  0.00  0.00    +0.000 C 
ATOM     24  O   UNL     1      50.052   7.161  14.238  0.00  0.00    +0.000 OA
ATOM     25  H   UNL     1      47.115   7.214  15.370  0.00  0.00    +0.000 HD
BRANCH  23  26
ATOM     26  C   UNL     1      49.308   6.342  16.326  0.00  0.00    +0.000 A 
ATOM     27  C   UNL     1      50.162   6.861  17.289  0.00  0.00    +0.000 A 
ATOM     28  S   UNL     1      50.147   5.975  18.751  0.00  0.00    +0.000 S 
ATOM     29  C   UNL     1      49.044   4.838  18.124  0.00  0.00    +0.000 A 
ATOM     30  N   UNL     1      48.612   3.788  18.870  0.00  0.00    +0.000 NA
ATOM     31  C   UNL     1      47.785   3.002  18.260  0.00  0.00    +0.000 A 
ATOM     32  N   UNL     1      47.357   3.169  16.970  0.00  0.00    +0.000 N 
ATOM     33  C   UNL     1      47.763   4.219  16.179  0.00  0.00    +0.000 A 
ATOM     34  O   UNL     1      47.347   4.343  15.036  0.00  0.00    +0.000 OA
ATOM     35  C   UNL     1      48.686   5.138  16.821  0.00  0.00    +0.000 A 
ATOM     36  H   UNL     1      46.710   2.524  16.550  0.00  0.00    +0.000 HD
ENDBRANCH  23  26
ENDBRANCH  21  22
ENDBRANCH   4  21
TORSDOF 9
ENDMDL
MODEL 2
REMARK VINA RESULT:    -7.818      3.009      4.147
REMARK INTER + INTRA:         -12.774
REMARK INTER:                 -11.621
REMARK INTRA:                  -1.153
REMARK UNBOUND:                -1.072
REMARK  Name = 
REMARK  9 active torsions:
REMARK  status: ('A' for Active; 'I' for Inactive)
REMARK    1  A    between atoms: N_1  and  C_2
REMARK    2  A    between atoms: C_2  and  C_3
REMARK    3  A    between atoms: C_3  and  N_4
REMARK    4  A    between atoms: C_3  and  C_26
REMARK    5  A    between atoms: N_4  and  C_5
REMARK    6  A    between atoms: C_5  and  C_6
REMARK    7  A    between atoms: C_9  and  C_10
REMARK    8  A    between atoms: C_10  and  N_11
REMARK    9  A    between atoms: C_12  and  C_14
REMARK                            x       y       z     vdW  Elec       q    Type
REMARK                         _______ _______ _______ _____ _____    ______ ____
ROOT
ATOM      1  C   UNL     1      46.925   4.441  14.276  0.00  0.00    +0.000 A 
ATOM      2  C   UNL     1      47.612   5.645  14.125  0.00  0.00    +0.000 A 
ATOM      3  C   UNL     1      48.283   6.179  15.218  0.00  0.00    +0.000 A 
ATOM      4  C   UNL     1      48.232   5.515  16.445  0.00  0.00    +0.000 A 
ATOM      5  C   UNL     1      47.533   4.314  16.498  0.00  0.00    +0.000 A 
ATOM      6  N   UNL     1      46.883   3.761  15.449  0.00  0.00    +0.000 NA
ENDROOT
BRANCH   1   7
ATOM      7  C   UNL     1      46.194   3.847  13.090  0.00  0.00    +0.000 C 
BRANCH   7   8
ATOM      8  N   UNL     1      44.755   4.075  13.180  0.00  0.00    +0.000 NA
ATOM      9  H   UNL     1      44.312   3.153  13.127  0.00  0.00    +0.000 HD
BRANCH   8  10
ATOM     10  C   UNL     1      44.215   4.915  12.086  0.00  0.00    +0.000 C 
BRANCH  10  11
ATOM     11  C   UNL     1      44.571   4.296  10.724  0.00  0.00    +0.000 A 
ATOM     12  C   UNL     1      45.301   5.024   9.780  0.00  0.00    +0.000 A 
ATOM     13  C   UNL     1      45.582   4.453   8.541  0.00  0.00    +0.000 A 
ATOM     14  C   UNL     1      45.135   3.168   8.274  0.00  0.00    +0.000 A 
ATOM     15  C   UNL     1      44.423   2.506   9.261  0.00  0.00    +0.000 A 
ATOM     16  N   UNL     1      44.137   3.033  10.474  0.00  0.00    +0.000 NA
ENDBRANCH  10  11
BRANCH  10  17
ATOM     17  C   UNL     1      42.665   5.153  12.133  0.00  0.00    +0.000 C 
BRANCH  17  18
ATOM     18  N   UNL     1      42.193   6.466  11.657  0.00  0.00    +0.000 NA
ATOM     19  H   UNL     1      42.252   7.147  12.412  0.00  0.00    +0.000 HD
ATOM     20  H   UNL     1      41.216   6.403  11.378  0.00  0.00    +0.000 HD
ENDBRANCH  17  18
ENDBRANCH  10  17
ENDBRANCH   8  10
ENDBRANCH   7   8
ENDBRANCH   1   7
BRANCH   4  21
ATOM     21  C   UNL     1      48.962   6.029  17.650  0.00  0.00    +0.000 C 
BRANCH  21  22
ATOM     22  N   UNL     1      50.062   5.160  17.970  0.00  0.00    +0.000 N 
ATOM     23  C   UNL     1      51.301   5.292  17.398  0.00  0.00    +0.000 C 
ATOM     24  O   UNL     1      51.567   6.175  16.593  0.00  0.00    +0.000 OA
ATOM     25  H   UNL     1      49.815   4.270  18.384  0.00  0.00    +0.000 HD
BRANCH  23  26
ATOM     26  C   UNL     1      52.310   4.340  17.883  0.00  0.00    +0.000 A 
ATOM     27  C   UNL     1      53.471   4.800  18.490  0.00  0.00    +0.000 A 
ATOM     28  S   UNL     1      54.468   3.544  19.078  0.00  0.00    +0.000 S 
ATOM     29  C   UNL     1      53.410   2.344  18.490  0.00  0.00    +0.000 A 
ATOM     30  N   UNL     1      53.682   1.022  18.653  0.00  0.00    +0.000 NA
ATOM     31  C   UNL     1      52.795   0.228  18.147  0.00  0.00    +0.000 A 
ATOM     32  N   UNL     1      51.667   0.636  17.488  0.00  0.00    +0.000 N 
ATOM     33  C   UNL     1      51.348   1.962  17.303  0.00  0.00    +0.000 A 
ATOM     34  O   UNL     1      50.323   2.288  16.723  0.00  0.00    +0.000 OA
ATOM     35  C   UNL     1      52.308   2.897  17.864  0.00  0.00    +0.000 A 
ATOM     36  H   UNL     1      51.011  -0.031  17.117  0.00  0.00    +0.000 HD
ENDBRANCH  23  26
ENDBRANCH  21  22
ENDBRANCH   4  21
TORSDOF 9
ENDMDL
MODEL 3
REMARK VINA RESULT:    -7.538      1.763      2.020
REMARK INTER + INTRA:         -12.355
REMARK INTER:                 -11.295
REMARK INTRA:                  -1.060
REMARK UNBOUND:                -1.072
REMARK  Name = 
REMARK  9 active torsions:
REMARK  status: ('A' for Active; 'I' for Inactive)
REMARK    1  A    between atoms: N_1  and  C_2
REMARK    2  A    between atoms: C_2  and  C_3
REMARK    3  A    between atoms: C_3  and  N_4
REMARK    4  A    between atoms: C_3  and  C_26
REMARK    5  A    between atoms: N_4  and  C_5
REMARK    6  A    between atoms: C_5  and  C_6
REMARK    7  A    between atoms: C_9  and  C_10
REMARK    8  A    between atoms: C_10  and  N_11
REMARK    9  A    between atoms: C_12  and  C_14
REMARK                            x       y       z     vdW  Elec       q    Type
REMARK                         _______ _______ _______ _____ _____    ______ ____
ROOT
ATOM      1  C   UNL     1      45.982   5.986  11.593  0.00  0.00    +0.000 A 
ATOM      2  C   UNL     1      46.787   7.039  11.160  0.00  0.00    +0.000 A 
ATOM      3  C   UNL     1      47.891   7.399  11.923  0.00  0.00    +0.000 A 
ATOM      4  C   UNL     1      48.153   6.719  13.115  0.00  0.00    +0.000 A 
ATOM      5  C   UNL     1      47.301   5.675  13.459  0.00  0.00    +0.000 A 
ATOM      6  N   UNL     1      46.229   5.291  12.731  0.00  0.00    +0.000 NA
ENDROOT
BRANCH   1   7
ATOM      7  C   UNL     1      44.779   5.582  10.766  0.00  0.00    +0.000 C 
BRANCH   7   8
ATOM      8  N   UNL     1      45.174   5.114   9.440  0.00  0.00    +0.000 NA
ATOM      9  H   UNL     1      44.865   5.830   8.777  0.00  0.00    +0.000 HD
BRANCH   8  10
ATOM     10  C   UNL     1      44.557   3.823   9.056  0.00  0.00    +0.000 C 
BRANCH  10  11
ATOM     11  C   UNL     1      45.543   3.004   8.206  0.00  0.00    +0.000 A 
ATOM     12  C   UNL     1      46.162   3.570   7.087  0.00  0.00    +0.000 A 
ATOM     13  C   UNL     1      47.025   2.796   6.315  0.00  0.00    +0.000 A 
ATOM     14  C   UNL     1      47.256   1.478   6.679  0.00  0.00    +0.000 A 
ATOM     15  C   UNL     1      46.613   0.988   7.803  0.00  0.00    +0.000 A 
ATOM     16  N   UNL     1      45.771   1.716   8.575  0.00  0.00    +0.000 NA
ENDBRANCH  10  11
BRANCH  10  17
ATOM     17  C   UNL     1      44.076   2.933  10.253  0.00  0.00    +0.000 C 
BRANCH  17  18
ATOM     18  N   UNL     1      45.089   2.617  11.278  0.00  0.00    +0.000 NA
ATOM     19  H   UNL     1      44.679   2.019  11.992  0.00  0.00    +0.000 HD
ATOM     20  H   UNL     1      45.397   3.473  11.735  0.00  0.00    +0.000 HD
ENDBRANCH  17  18
ENDBRANCH  10  17
ENDBRANCH   8  10
ENDBRANCH   7   8
ENDBRANCH   1   7
BRANCH   4  21
ATOM     21  C   UNL     1      49.346   7.045  13.963  0.00  0.00    +0.000 C 
BRANCH  21  22
ATOM     22  N   UNL     1      49.020   6.892  15.355  0.00  0.00    +0.000 N 
ATOM     23  C   UNL     1      49.474   7.751  16.321  0.00  0.00    +0.000 C 
ATOM     24  O   UNL     1      50.170   8.726  16.065  0.00  0.00    +0.000 OA
ATOM     25  H   UNL     1      48.711   5.969  15.636  0.00  0.00    +0.000 HD
BRANCH  23  26
ATOM     26  C   UNL     1      48.999   7.459  17.681  0.00  0.00    +0.000 A 
ATOM     27  C   UNL     1      48.353   8.440  18.421  0.00  0.00    +0.000 A 
ATOM     28  S   UNL     1      47.785   7.879  19.932  0.00  0.00    +0.000 S 
ATOM     29  C   UNL     1      48.435   6.325  19.671  0.00  0.00    +0.000 A 
ATOM     30  N   UNL     1      48.310   5.343  20.601  0.00  0.00    +0.000 NA
ATOM     31  C   UNL     1      48.860   4.220  20.270  0.00  0.00    +0.000 A 
ATOM     32  N   UNL     1      49.530   3.995  19.097  0.00  0.00    +0.000 N 
ATOM     33  C   UNL     1      49.678   4.957  18.125  0.00  0.00    +0.000 A 
ATOM     34  O   UNL     1      50.269   4.714  17.084  0.00  0.00    +0.000 OA
ATOM     35  C   UNL     1      49.066   6.236  18.443  0.00  0.00    +0.000 A 
ATOM     36  H   UNL     1      49.937   3.097  18.895  0.00  0.00    +0.000 HD
ENDBRANCH  23  26
ENDBRANCH  21  22
ENDBRANCH   4  21
TORSDOF 9
ENDMDL
MODEL 4
REMARK VINA RESULT:    -7.402      2.850      8.002
REMARK INTER + INTRA:         -12.151
REMARK INTER:                 -10.607
REMARK INTRA:                  -1.544
REMARK UNBOUND:                -1.072
REMARK  Name = 
REMARK  9 active torsions:
REMARK  status: ('A' for Active; 'I' for Inactive)
REMARK    1  A    between atoms: N_1  and  C_2
REMARK    2  A    between atoms: C_2  and  C_3
REMARK    3  A    between atoms: C_3  and  N_4
REMARK    4  A    between atoms: C_3  and  C_26
REMARK    5  A    between atoms: N_4  and  C_5
REMARK    6  A    between atoms: C_5  and  C_6
REMARK    7  A    between atoms: C_9  and  C_10
REMARK    8  A    between atoms: C_10  and  N_11
REMARK    9  A    between atoms: C_12  and  C_14
REMARK                            x       y       z     vdW  Elec       q    Type
REMARK                         _______ _______ _______ _____ _____    ______ ____
ROOT
ATOM      1  C   UNL     1      49.313   8.178  15.782  0.00  0.00    +0.000 A 
ATOM      2  C   UNL     1      48.249   8.999  15.412  0.00  0.00    +0.000 A 
ATOM      3  C   UNL     1      47.747   8.908  14.119  0.00  0.00    +0.000 A 
ATOM      4  C   UNL     1      48.333   8.018  13.217  0.00  0.00    +0.000 A 
ATOM      5  C   UNL     1      49.382   7.230  13.680  0.00  0.00    +0.000 A 
ATOM      6  N   UNL     1      49.883   7.285  14.935  0.00  0.00    +0.000 NA
ENDROOT
BRANCH   1   7
ATOM      7  C   UNL     1      49.865   8.265  17.190  0.00  0.00    +0.000 C 
BRANCH   7   8
ATOM      8  N   UNL     1      49.863   6.962  17.847  0.00  0.00    +0.000 NA
ATOM      9  H   UNL     1      50.597   6.409  17.396  0.00  0.00    +0.000 HD
BRANCH   8  10
ATOM     10  C   UNL     1      48.581   6.231  17.718  0.00  0.00    +0.000 C 
BRANCH  10  11
ATOM     11  C   UNL     1      48.850   4.753  17.386  0.00  0.00    +0.000 A 
ATOM     12  C   UNL     1      50.061   4.152  17.744  0.00  0.00    +0.000 A 
ATOM     13  C   UNL     1      50.293   2.822  17.403  0.00  0.00    +0.000 A 
ATOM     14  C   UNL     1      49.312   2.119  16.719  0.00  0.00    +0.000 A 
ATOM     15  C   UNL     1      48.136   2.779  16.405  0.00  0.00    +0.000 A 
ATOM     16  N   UNL     1      47.880   4.070  16.725  0.00  0.00    +0.000 NA
ENDBRANCH  10  11
BRANCH  10  17
ATOM     17  C   UNL     1      47.649   6.294  18.977  0.00  0.00    +0.000 C 
BRANCH  17  18
ATOM     18  N   UNL     1      46.385   5.539  18.890  0.00  0.00    +0.000 NA
ATOM     19  H   UNL     1      45.972   5.453  19.817  0.00  0.00    +0.000 HD
ATOM     20  H   UNL     1      46.568   4.597  18.548  0.00  0.00    +0.000 HD
ENDBRANCH  17  18
ENDBRANCH  10  17
ENDBRANCH   8  10
ENDBRANCH   7   8
ENDBRANCH   1   7
BRANCH   4  21
ATOM     21  C   UNL     1      47.814   7.856  11.819  0.00  0.00    +0.000 C 
BRANCH  21  22
ATOM     22  N   UNL     1      47.047   6.644  11.715  0.00  0.00    +0.000 N 
ATOM     23  C   UNL     1      45.678   6.625  11.780  0.00  0.00    +0.000 C 
ATOM     24  O   UNL     1      45.008   7.643  11.906  0.00  0.00    +0.000 OA
ATOM     25  H   UNL     1      47.550   5.786  11.905  0.00  0.00    +0.000 HD
BRANCH  23  26
ATOM     26  C   UNL     1      45.069   5.299  11.609  0.00  0.00    +0.000 A 
ATOM     27  C   UNL     1      44.413   4.689  12.669  0.00  0.00    +0.000 A 
ATOM     28  S   UNL     1      43.683   3.203  12.244  0.00  0.00    +0.000 S 
ATOM     29  C   UNL     1      44.269   3.299  10.647  0.00  0.00    +0.000 A 
ATOM     30  N   UNL     1      44.009   2.322   9.739  0.00  0.00    +0.000 NA
ATOM     31  C   UNL     1      44.525   2.525   8.571  0.00  0.00    +0.000 A 
ATOM     32  N   UNL     1      45.284   3.614   8.232  0.00  0.00    +0.000 N 
ATOM     33  C   UNL     1      45.569   4.630   9.115  0.00  0.00    +0.000 A 
ATOM     34  O   UNL     1      46.237   5.594   8.771  0.00  0.00    +0.000 OA
ATOM     35  C   UNL     1      45.001   4.455  10.440  0.00  0.00    +0.000 A 
ATOM     36  H   UNL     1      45.658   3.718   7.304  0.00  0.00    +0.000 HD
ENDBRANCH  23  26
ENDBRANCH  21  22
ENDBRANCH   4  21
TORSDOF 9
ENDMDL
MODEL 5
REMARK VINA RESULT:    -7.207      3.296      5.625
REMARK INTER + INTRA:         -11.860
REMARK INTER:                 -10.647
REMARK INTRA:                  -1.213
REMARK UNBOUND:                -1.072
REMARK  Name = 
REMARK  9 active torsions:
REMARK  status: ('A' for Active; 'I' for Inactive)
REMARK    1  A    between atoms: N_1  and  C_2
REMARK    2  A    between atoms: C_2  and  C_3
REMARK    3  A    between atoms: C_3  and  N_4
REMARK    4  A    between atoms: C_3  and  C_26
REMARK    5  A    between atoms: N_4  and  C_5
REMARK    6  A    between atoms: C_5  and  C_6
REMARK    7  A    between atoms: C_9  and  C_10
REMARK    8  A    between atoms: C_10  and  N_11
REMARK    9  A    between atoms: C_12  and  C_14
REMARK                            x       y       z     vdW  Elec       q    Type
REMARK                         _______ _______ _______ _____ _____    ______ ____
ROOT
ATOM      1  C   UNL     1      47.770   5.885  14.582  0.00  0.00    +0.000 A 
ATOM      2  C   UNL     1      47.043   4.696  14.594  0.00  0.00    +0.000 A 
ATOM      3  C   UNL     1      47.180   3.834  15.675  0.00  0.00    +0.000 A 
ATOM      4  C   UNL     1      48.060   4.165  16.709  0.00  0.00    +0.000 A 
ATOM      5  C   UNL     1      48.733   5.379  16.616  0.00  0.00    +0.000 A 
ATOM      6  N   UNL     1      48.610   6.245  15.584  0.00  0.00    +0.000 NA
ENDROOT
BRANCH   1   7
ATOM      7  C   UNL     1      47.624   6.834  13.410  0.00  0.00    +0.000 C 
BRANCH   7   8
ATOM      8  N   UNL     1      46.256   7.331  13.292  0.00  0.00    +0.000 NA
ATOM      9  H   UNL     1      45.703   6.826  13.990  0.00  0.00    +0.000 HD
BRANCH   8  10
ATOM     10  C   UNL     1      45.651   7.098  11.960  0.00  0.00    +0.000 C 
BRANCH  10  11
ATOM     11  C   UNL     1      44.858   5.780  11.966  0.00  0.00    +0.000 A 
ATOM     12  C   UNL     1      45.047   4.830  10.959  0.00  0.00    +0.000 A 
ATOM     13  C   UNL     1      44.292   3.660  10.970  0.00  0.00    +0.000 A 
ATOM     14  C   UNL     1      43.371   3.460  11.988  0.00  0.00    +0.000 A 
ATOM     15  C   UNL     1      43.245   4.443  12.955  0.00  0.00    +0.000 A 
ATOM     16  N   UNL     1      43.966   5.589  12.973  0.00  0.00    +0.000 NA
ENDBRANCH  10  11
BRANCH  10  17
ATOM     17  C   UNL     1      44.708   8.242  11.449  0.00  0.00    +0.000 C 
BRANCH  17  18
ATOM     18  N   UNL     1      43.329   7.845  11.106  0.00  0.00    +0.000 NA
ATOM     19  H   UNL     1      42.976   8.440  10.359  0.00  0.00    +0.000 HD
ATOM     20  H   UNL     1      42.721   7.973  11.913  0.00  0.00    +0.000 HD
ENDBRANCH  17  18
ENDBRANCH  10  17
ENDBRANCH   8  10
ENDBRANCH   7   8
ENDBRANCH   1   7
BRANCH   4  21
ATOM     21  C   UNL     1      48.226   3.289  17.914  0.00  0.00    +0.000 C 
BRANCH  21  22
ATOM     22  N   UNL     1      49.611   2.948  18.090  0.00  0.00    +0.000 N 
ATOM     23  C   UNL     1      50.300   2.162  17.203  0.00  0.00    +0.000 C 
ATOM     24  O   UNL     1      49.791   1.715  16.183  0.00  0.00    +0.000 OA
ATOM     25  H   UNL     1      49.972   3.041  19.032  0.00  0.00    +0.000 HD
BRANCH  23  26
ATOM     26  C   UNL     1      51.719   1.960  17.528  0.00  0.00    +0.000 A 
ATOM     27  C   UNL     1      52.224   0.677  17.686  0.00  0.00    +0.000 A 
ATOM     28  S   UNL     1      53.911   0.645  17.956  0.00  0.00    +0.000 S 
ATOM     29  C   UNL     1      54.011   2.346  17.928  0.00  0.00    +0.000 A 
ATOM     30  N   UNL     1      55.195   2.986  18.111  0.00  0.00    +0.000 NA
ATOM     31  C   UNL     1      55.117   4.277  18.074  0.00  0.00    +0.000 A 
ATOM     32  N   UNL     1      53.960   4.983  17.878  0.00  0.00    +0.000 N 
ATOM     33  C   UNL     1      52.740   4.378  17.684  0.00  0.00    +0.000 A 
ATOM     34  O   UNL     1      51.731   5.043  17.497  0.00  0.00    +0.000 OA
ATOM     35  C   UNL     1      52.775   2.927  17.705  0.00  0.00    +0.000 A 
ATOM     36  H   UNL     1      53.963   5.989  17.858  0.00  0.00    +0.000 HD
ENDBRANCH  23  26
ENDBRANCH  21  22
ENDBRANCH   4  21
TORSDOF 9
ENDMDL
MODEL 6
REMARK VINA RESULT:    -7.195      2.217      2.693
REMARK INTER + INTRA:         -11.841
REMARK INTER:                 -10.842
REMARK INTRA:                  -0.999
REMARK UNBOUND:                -1.072
REMARK  Name = 
REMARK  9 active torsions:
REMARK  status: ('A' for Active; 'I' for Inactive)
REMARK    1  A    between atoms: N_1  and  C_2
REMARK    2  A    between atoms: C_2  and  C_3
REMARK    3  A    between atoms: C_3  and  N_4
REMARK    4  A    between atoms: C_3  and  C_26
REMARK    5  A    between atoms: N_4  and  C_5
REMARK    6  A    between atoms: C_5  and  C_6
REMARK    7  A    between atoms: C_9  and  C_10
REMARK    8  A    between atoms: C_10  and  N_11
REMARK    9  A    between atoms: C_12  and  C_14
REMARK                            x       y       z     vdW  Elec       q    Type
REMARK                         _______ _______ _______ _____ _____    ______ ____
ROOT
ATOM      1  C   UNL     1      46.610   6.586  12.638  0.00  0.00    +0.000 A 
ATOM      2  C   UNL     1      47.180   5.650  13.500  0.00  0.00    +0.000 A 
ATOM      3  C   UNL     1      48.008   6.094  14.524  0.00  0.00    +0.000 A 
ATOM      4  C   UNL     1      48.269   7.460  14.651  0.00  0.00    +0.000 A 
ATOM      5  C   UNL     1      47.646   8.320  13.752  0.00  0.00    +0.000 A 
ATOM      6  N   UNL     1      46.825   7.921  12.755  0.00  0.00    +0.000 NA
ENDROOT
BRANCH   1   7
ATOM      7  C   UNL     1      45.703   6.114  11.522  0.00  0.00    +0.000 C 
BRANCH   7   8
ATOM      8  N   UNL     1      45.510   4.667  11.564  0.00  0.00    +0.000 NA
ATOM      9  H   UNL     1      46.417   4.248  11.342  0.00  0.00    +0.000 HD
BRANCH   8  10
ATOM     10  C   UNL     1      44.513   4.169  10.588  0.00  0.00    +0.000 C 
BRANCH  10  11
ATOM     11  C   UNL     1      45.230   3.564   9.369  0.00  0.00    +0.000 A 
ATOM     12  C   UNL     1      45.393   2.180   9.252  0.00  0.00    +0.000 A 
ATOM     13  C   UNL     1      46.075   1.660   8.155  0.00  0.00    +0.000 A 
ATOM     14  C   UNL     1      46.573   2.529   7.196  0.00  0.00    +0.000 A 
ATOM     15  C   UNL     1      46.367   3.887   7.376  0.00  0.00    +0.000 A 
ATOM     16  N   UNL     1      45.706   4.423   8.430  0.00  0.00    +0.000 NA
ENDBRANCH  10  11
BRANCH  10  17
ATOM     17  C   UNL     1      43.506   3.107  11.149  0.00  0.00    +0.000 C 
BRANCH  17  18
ATOM     18  N   UNL     1      43.820   2.549  12.478  0.00  0.00    +0.000 NA
ATOM     19  H   UNL     1      43.024   2.675  13.100  0.00  0.00    +0.000 HD
ATOM     20  H   UNL     1      44.609   3.049  12.885  0.00  0.00    +0.000 HD
ENDBRANCH  17  18
ENDBRANCH  10  17
ENDBRANCH   8  10
ENDBRANCH   7   8
ENDBRANCH   1   7
BRANCH   4  21
ATOM     21  C   UNL     1      49.130   7.999  15.755  0.00  0.00    +0.000 C 
BRANCH  21  22
ATOM     22  N   UNL     1      50.090   7.009  16.160  0.00  0.00    +0.000 N 
ATOM     23  C   UNL     1      50.014   6.348  17.358  0.00  0.00    +0.000 C 
ATOM     24  O   UNL     1      49.106   6.535  18.159  0.00  0.00    +0.000 OA
ATOM     25  H   UNL     1      50.984   7.040  15.683  0.00  0.00    +0.000 HD
BRANCH  23  26
ATOM     26  C   UNL     1      51.060   5.340  17.577  0.00  0.00    +0.000 A 
ATOM     27  C   UNL     1      52.332   5.728  17.976  0.00  0.00    +0.000 A 
ATOM     28  S   UNL     1      53.375   4.408  18.279  0.00  0.00    +0.000 S 
ATOM     29  C   UNL     1      52.180   3.279  17.831  0.00  0.00    +0.000 A 
ATOM     30  N   UNL     1      52.427   1.943  17.853  0.00  0.00    +0.000 NA
ATOM     31  C   UNL     1      51.430   1.208  17.479  0.00  0.00    +0.000 A 
ATOM     32  N   UNL     1      50.213   1.691  17.077  0.00  0.00    +0.000 N 
ATOM     33  C   UNL     1      49.916   3.033  17.043  0.00  0.00    +0.000 A 
ATOM     34  O   UNL     1      48.812   3.424  16.694  0.00  0.00    +0.000 OA
ATOM     35  C   UNL     1      50.999   3.903  17.466  0.00  0.00    +0.000 A 
ATOM     36  H   UNL     1      49.474   1.067  16.798  0.00  0.00    +0.000 HD
ENDBRANCH  23  26
ENDBRANCH  21  22
ENDBRANCH   4  21
TORSDOF 9
ENDMDL
MODEL 7
REMARK VINA RESULT:    -7.106      4.997      9.899
REMARK INTER + INTRA:         -11.709
REMARK INTER:                 -10.628
REMARK INTRA:                  -1.081
REMARK UNBOUND:                -1.072
REMARK  Name = 
REMARK  9 active torsions:
REMARK  status: ('A' for Active; 'I' for Inactive)
REMARK    1  A    between atoms: N_1  and  C_2
REMARK    2  A    between atoms: C_2  and  C_3
REMARK    3  A    between atoms: C_3  and  N_4
REMARK    4  A    between atoms: C_3  and  C_26
REMARK    5  A    between atoms: N_4  and  C_5
REMARK    6  A    between atoms: C_5  and  C_6
REMARK    7  A    between atoms: C_9  and  C_10
REMARK    8  A    between atoms: C_10  and  N_11
REMARK    9  A    between atoms: C_12  and  C_14
REMARK                            x       y       z     vdW  Elec       q    Type
REMARK                         _______ _______ _______ _____ _____    ______ ____
ROOT
ATOM      1  C   UNL     1      51.315   2.652  17.519  0.00  0.00    +0.000 A 
ATOM      2  C   UNL     1      50.775   3.833  18.028  0.00  0.00    +0.000 A 
ATOM      3  C   UNL     1      49.426   4.096  17.827  0.00  0.00    +0.000 A 
ATOM      4  C   UNL     1      48.650   3.190  17.101  0.00  0.00    +0.000 A 
ATOM      5  C   UNL     1      49.273   2.034  16.642  0.00  0.00    +0.000 A 
ATOM      6  N   UNL     1      50.579   1.741  16.834  0.00  0.00    +0.000 NA
ENDROOT
BRANCH   1   7
ATOM      7  C   UNL     1      52.784   2.352  17.736  0.00  0.00    +0.000 C 
BRANCH   7   8
ATOM      8  N   UNL     1      52.972   1.088  18.442  0.00  0.00    +0.000 NA
ATOM      9  H   UNL     1      52.918   1.303  19.441  0.00  0.00    +0.000 HD
BRANCH   8  10
ATOM     10  C   UNL     1      54.280   0.445  18.174  0.00  0.00    +0.000 C 
BRANCH  10  11
ATOM     11  C   UNL     1      54.331  -0.940  18.842  0.00  0.00    +0.000 A 
ATOM     12  C   UNL     1      55.556  -1.545  19.135  0.00  0.00    +0.000 A 
ATOM     13  C   UNL     1      55.575  -2.813  19.710  0.00  0.00    +0.000 A 
ATOM     14  C   UNL     1      54.373  -3.447  19.985  0.00  0.00    +0.000 A 
ATOM     15  C   UNL     1      53.198  -2.782  19.674  0.00  0.00    +0.000 A 
ATOM     16  N   UNL     1      53.148  -1.549  19.117  0.00  0.00    +0.000 NA
ENDBRANCH  10  11
BRANCH  10  17
ATOM     17  C   UNL     1      54.640   0.277  16.657  0.00  0.00    +0.000 C 
BRANCH  17  18
ATOM     18  N   UNL     1      53.969  -0.828  15.947  0.00  0.00    +0.000 NA
ATOM     19  H   UNL     1      53.780  -1.588  16.596  0.00  0.00    +0.000 HD
ATOM     20  H   UNL     1      54.581  -1.193  15.218  0.00  0.00    +0.000 HD
ENDBRANCH  17  18
ENDBRANCH  10  17
ENDBRANCH   8  10
ENDBRANCH   7   8
ENDBRANCH   1   7
BRANCH   4  21
ATOM     21  C   UNL     1      47.183   3.408  16.879  0.00  0.00    +0.000 C 
BRANCH  21  22
ATOM     22  N   UNL     1      46.980   4.442  15.900  0.00  0.00    +0.000 N 
ATOM     23  C   UNL     1      47.007   4.201  14.551  0.00  0.00    +0.000 C 
ATOM     24  O   UNL     1      47.180   3.082  14.083  0.00  0.00    +0.000 OA
ATOM     25  H   UNL     1      47.128   5.391  16.223  0.00  0.00    +0.000 HD
BRANCH  23  26
ATOM     26  C   UNL     1      46.733   5.372  13.708  0.00  0.00    +0.000 A 
ATOM     27  C   UNL     1      47.718   6.327  13.496  0.00  0.00    +0.000 A 
ATOM     28  S   UNL     1      47.244   7.555  12.407  0.00  0.00    +0.000 S 
ATOM     29  C   UNL     1      45.688   6.884  12.228  0.00  0.00    +0.000 A 
ATOM     30  N   UNL     1      44.757   7.463  11.426  0.00  0.00    +0.000 NA
ATOM     31  C   UNL     1      43.620   6.849  11.396  0.00  0.00    +0.000 A 
ATOM     32  N   UNL     1      43.328   5.712  12.102  0.00  0.00    +0.000 N 
ATOM     33  C   UNL     1      44.239   5.088  12.923  0.00  0.00    +0.000 A 
ATOM     34  O   UNL     1      43.947   4.065  13.525  0.00  0.00    +0.000 OA
ATOM     35  C   UNL     1      45.539   5.733  12.983  0.00  0.00    +0.000 A 
ATOM     36  H   UNL     1      42.422   5.278  12.037  0.00  0.00    +0.000 HD
ENDBRANCH  23  26
ENDBRANCH  21  22
ENDBRANCH   4  21
TORSDOF 9
ENDMDL
MODEL 8
REMARK VINA RESULT:    -6.886      3.109      7.972
REMARK INTER + INTRA:         -11.379
REMARK INTER:                  -9.654
REMARK INTRA:                  -1.725
REMARK UNBOUND:                -1.072
REMARK  Name = 
REMARK  9 active torsions:
REMARK  status: ('A' for Active; 'I' for Inactive)
REMARK    1  A    between atoms: N_1  and  C_2
REMARK    2  A    between atoms: C_2  and  C_3
REMARK    3  A    between atoms: C_3  and  N_4
REMARK    4  A    between atoms: C_3  and  C_26
REMARK    5  A    between atoms: N_4  and  C_5
REMARK    6  A    between atoms: C_5  and  C_6
REMARK    7  A    between atoms: C_9  and  C_10
REMARK    8  A    between atoms: C_10  and  N_11
REMARK    9  A    between atoms: C_12  and  C_14
REMARK                            x       y       z     vdW  Elec       q    Type
REMARK                         _______ _______ _______ _____ _____    ______ ____
ROOT
ATOM      1  C   UNL     1      48.735   8.037  16.070  0.00  0.00    +0.000 A 
ATOM      2  C   UNL     1      49.157   6.899  15.382  0.00  0.00    +0.000 A 
ATOM      3  C   UNL     1      49.084   6.886  13.995  0.00  0.00    +0.000 A 
ATOM      4  C   UNL     1      48.567   7.997  13.324  0.00  0.00    +0.000 A 
ATOM      5  C   UNL     1      48.182   9.091  14.093  0.00  0.00    +0.000 A 
ATOM      6  N   UNL     1      48.255   9.140  15.443  0.00  0.00    +0.000 NA
ENDROOT
BRANCH   1   7
ATOM      7  C   UNL     1      48.815   8.064  17.582  0.00  0.00    +0.000 C 
BRANCH   7   8
ATOM      8  N   UNL     1      47.735   7.291  18.189  0.00  0.00    +0.000 NA
ATOM      9  H   UNL     1      47.196   7.946  18.761  0.00  0.00    +0.000 HD
BRANCH   8  10
ATOM     10  C   UNL     1      48.207   6.189  19.059  0.00  0.00    +0.000 C 
BRANCH  10  11
ATOM     11  C   UNL     1      48.383   4.905  18.232  0.00  0.00    +0.000 A 
ATOM     12  C   UNL     1      47.342   4.425  17.431  0.00  0.00    +0.000 A 
ATOM     13  C   UNL     1      47.516   3.241  16.718  0.00  0.00    +0.000 A 
ATOM     14  C   UNL     1      48.724   2.567  16.813  0.00  0.00    +0.000 A 
ATOM     15  C   UNL     1      49.711   3.107  17.619  0.00  0.00    +0.000 A 
ATOM     16  N   UNL     1      49.574   4.256  18.323  0.00  0.00    +0.000 NA
ENDBRANCH  10  11
BRANCH  10  17
ATOM     17  C   UNL     1      49.546   6.474  19.824  0.00  0.00    +0.000 C 
BRANCH  17  18
ATOM     18  N   UNL     1      49.802   5.648  21.019  0.00  0.00    +0.000 NA
ATOM     19  H   UNL     1      49.513   4.688  20.841  0.00  0.00    +0.000 HD
ATOM     20  H   UNL     1      49.251   5.993  21.803  0.00  0.00    +0.000 HD
ENDBRANCH  17  18
ENDBRANCH  10  17
ENDBRANCH   8  10
ENDBRANCH   7   8
ENDBRANCH   1   7
BRANCH   4  21
ATOM     21  C   UNL     1      48.493   8.050  11.827  0.00  0.00    +0.000 C 
BRANCH  21  22
ATOM     22  N   UNL     1      47.692   6.962  11.334  0.00  0.00    +0.000 N 
ATOM     23  C   UNL     1      46.322   6.984  11.347  0.00  0.00    +0.000 C 
ATOM     24  O   UNL     1      45.680   7.944  11.755  0.00  0.00    +0.000 OA
ATOM     25  H   UNL     1      48.159   6.065  11.269  0.00  0.00    +0.000 HD
BRANCH  23  26
ATOM     26  C   UNL     1      45.678   5.801  10.759  0.00  0.00    +0.000 A 
ATOM     27  C   UNL     1      45.835   5.518   9.409  0.00  0.00    +0.000 A 
ATOM     28  S   UNL     1      45.100   4.049   8.939  0.00  0.00    +0.000 S 
ATOM     29  C   UNL     1      44.499   3.774  10.510  0.00  0.00    +0.000 A 
ATOM     30  N   UNL     1      43.757   2.673  10.799  0.00  0.00    +0.000 NA
ATOM     31  C   UNL     1      43.361   2.602  12.028  0.00  0.00    +0.000 A 
ATOM     32  N   UNL     1      43.635   3.536  12.991  0.00  0.00    +0.000 N 
ATOM     33  C   UNL     1      44.386   4.663  12.747  0.00  0.00    +0.000 A 
ATOM     34  O   UNL     1      44.622   5.467  13.637  0.00  0.00    +0.000 OA
ATOM     35  C   UNL     1      44.865   4.785  11.381  0.00  0.00    +0.000 A 
ATOM     36  H   UNL     1      43.300   3.425  13.934  0.00  0.00    +0.000 HD
ENDBRANCH  23  26
ENDBRANCH  21  22
ENDBRANCH   4  21
TORSDOF 9
ENDMDL
MODEL 9
REMARK VINA RESULT:    -6.796      5.034      9.859
REMARK INTER + INTRA:         -11.245
REMARK INTER:                  -9.959
REMARK INTRA:                  -1.286
REMARK UNBOUND:                -1.072
REMARK  Name = 
REMARK  9 active torsions:
REMARK  status: ('A' for Active; 'I' for Inactive)
REMARK    1  A    between atoms: N_1  and  C_2
REMARK    2  A    between atoms: C_2  and  C_3
REMARK    3  A    between atoms: C_3  and  N_4
REMARK    4  A    between atoms: C_3  and  C_26
REMARK    5  A    between atoms: N_4  and  C_5
REMARK    6  A    between atoms: C_5  and  C_6
REMARK    7  A    between atoms: C_9  and  C_10
REMARK    8  A    between atoms: C_10  and  N_11
REMARK    9  A    between atoms: C_12  and  C_14
REMARK                            x       y       z     vdW  Elec       q    Type
REMARK                         _______ _______ _______ _____ _____    ______ ____
ROOT
ATOM      1  C   UNL     1      51.249   2.658  17.520  0.00  0.00    +0.000 A 
ATOM      2  C   UNL     1      50.778   3.889  17.975  0.00  0.00    +0.000 A 
ATOM      3  C   UNL     1      49.448   4.224  17.753  0.00  0.00    +0.000 A 
ATOM      4  C   UNL     1      48.623   3.336  17.059  0.00  0.00    +0.000 A 
ATOM      5  C   UNL     1      49.177   2.127  16.654  0.00  0.00    +0.000 A 
ATOM      6  N   UNL     1      50.463   1.765  16.868  0.00  0.00    +0.000 NA
ENDROOT
BRANCH   1   7
ATOM      7  C   UNL     1      52.695   2.280  17.761  0.00  0.00    +0.000 C 
BRANCH   7   8
ATOM      8  N   UNL     1      52.814   0.916  18.269  0.00  0.00    +0.000 NA
ATOM      9  H   UNL     1      52.575   0.956  19.263  0.00  0.00    +0.000 HD
BRANCH   8  10
ATOM     10  C   UNL     1      54.175   0.347  18.137  0.00  0.00    +0.000 C 
BRANCH  10  11
ATOM     11  C   UNL     1      54.258  -0.995  18.883  0.00  0.00    +0.000 A 
ATOM     12  C   UNL     1      55.494  -1.522  19.268  0.00  0.00    +0.000 A 
ATOM     13  C   UNL     1      55.544  -2.756  19.913  0.00  0.00    +0.000 A 
ATOM     14  C   UNL     1      54.360  -3.433  20.164  0.00  0.00    +0.000 A 
ATOM     15  C   UNL     1      53.173  -2.846  19.760  0.00  0.00    +0.000 A 
ATOM     16  N   UNL     1      53.093  -1.648  19.134  0.00  0.00    +0.000 NA
ENDBRANCH  10  11
BRANCH  10  17
ATOM     17  C   UNL     1      54.665   0.127  16.664  0.00  0.00    +0.000 C 
BRANCH  17  18
ATOM     18  N   UNL     1      53.996  -0.949  15.909  0.00  0.00    +0.000 NA
ATOM     19  H   UNL     1      54.116  -0.794  14.911  0.00  0.00    +0.000 HD
ATOM     20  H   UNL     1      52.995  -0.937  16.102  0.00  0.00    +0.000 HD
ENDBRANCH  17  18
ENDBRANCH  10  17
ENDBRANCH   8  10
ENDBRANCH   7   8
ENDBRANCH   1   7
BRANCH   4  21
ATOM     21  C   UNL     1      47.173   3.633  16.817  0.00  0.00    +0.000 C 
BRANCH  21  22
ATOM     22  N   UNL     1      47.036   4.610  15.772  0.00  0.00    +0.000 N 
ATOM     23  C   UNL     1      47.063   4.281  14.441  0.00  0.00    +0.000 C 
ATOM     24  O   UNL     1      47.179   3.127  14.048  0.00  0.00    +0.000 OA
ATOM     25  H   UNL     1      47.233   5.569  16.035  0.00  0.00    +0.000 HD
BRANCH  23  26
ATOM     26  C   UNL     1      46.862   5.409  13.521  0.00  0.00    +0.000 A 
ATOM     27  C   UNL     1      45.800   5.402  12.628  0.00  0.00    +0.000 A 
ATOM     28  S   UNL     1      45.674   6.843  11.718  0.00  0.00    +0.000 S 
ATOM     29  C   UNL     1      47.069   7.499  12.446  0.00  0.00    +0.000 A 
ATOM     30  N   UNL     1      47.532   8.729  12.104  0.00  0.00    +0.000 NA
ATOM     31  C   UNL     1      48.603   9.092  12.731  0.00  0.00    +0.000 A 
ATOM     32  N   UNL     1      49.256   8.331  13.664  0.00  0.00    +0.000 N 
ATOM     33  C   UNL     1      48.822   7.082  14.045  0.00  0.00    +0.000 A 
ATOM     34  O   UNL     1      49.424   6.439  14.893  0.00  0.00    +0.000 OA
ATOM     35  C   UNL     1      47.614   6.632  13.377  0.00  0.00    +0.000 A 
ATOM     36  H   UNL     1      50.087   8.669  14.120  0.00  0.00    +0.000 HD
ENDBRANCH  23  26
ENDBRANCH  21  22
ENDBRANCH   4  21
TORSDOF 9
ENDMDL
