MODEL 1
REMARK VINA RESULT:    -8.134      0.000      0.000
REMARK INTER + INTRA:          -9.220
REMARK INTER:                  -9.560
REMARK INTRA:                   0.340
REMARK UNBOUND:                 0.340
REMARK  Name = 
REMARK  3 active torsions:
REMARK  status: ('A' for Active; 'I' for Inactive)
REMARK    1  A    between atoms: C_2  and  C_4
REMARK    2  A    between atoms: N_8  and  C_9
REMARK    3  A    between atoms: C_9  and  C_10
REMARK                            x       y       z     vdW  Elec       q    Type
REMARK                         _______ _______ _______ _____ _____    ______ ____
ROOT
ATOM      1  C   UNL     1      46.432   2.756   7.558  0.00  0.00    +0.000 A 
ATOM      2  C   UNL     1      46.148   4.088   7.847  0.00  0.00    +0.000 A 
ATOM      3  C   UNL     1      45.334   4.388   8.943  0.00  0.00    +0.000 A 
ATOM      4  C   UNL     1      44.832   3.356   9.732  0.00  0.00    +0.000 A 
ATOM      5  N   UNL     1      44.008   3.573  10.840  0.00  0.00    +0.000 N 
ATOM      6  N   UNL     1      45.092   2.061   9.452  0.00  0.00    +0.000 NA
ATOM      7  C   UNL     1      45.871   1.787   8.374  0.00  0.00    +0.000 A 
ATOM      8  H   UNL     1      43.881   2.686  11.320  0.00  0.00    +0.000 HD
ENDROOT
BRANCH   1  10
ATOM      9  N   UNL     1      47.222   3.097   5.284  0.00  0.00    +0.000 N 
ATOM     10  C   UNL     1      47.273   2.334   6.416  0.00  0.00    +0.000 C 
ATOM     11  O   UNL     1      48.008   1.360   6.492  0.00  0.00    +0.000 OA
ATOM     12  H   UNL     1      47.870   2.850   4.546  0.00  0.00    +0.000 HD
ATOM     13  H   UNL     1      46.829   4.027   5.266  0.00  0.00    +0.000 HD
ENDBRANCH   1  10
BRANCH   5  14
ATOM     14  C   UNL     1      43.971   4.839  11.591  0.00  0.00    +0.000 C 
ATOM     15  C   UNL     1      42.690   5.197  12.328  0.00  0.00    +0.000 C 
ATOM     16  C   UNL     1      43.056   5.953  11.094  0.00  0.00    +0.000 C 
BRANCH  14  17
ATOM     17  C   UNL     1      45.328   5.329  12.117  0.00  0.00    +0.000 A 
ATOM     18  C   UNL     1      46.016   4.604  13.097  0.00  0.00    +0.000 A 
ATOM     19  N   UNL     1      47.260   4.915  13.545  0.00  0.00    +0.000 NA
ATOM     20  C   UNL     1      47.814   6.002  12.974  0.00  0.00    +0.000 A 
ATOM     21  C   UNL     1      47.152   6.749  12.018  0.00  0.00    +0.000 A 
ATOM     22  N   UNL     1      45.907   6.440  11.579  0.00  0.00    +0.000 NA
ENDBRANCH  14  17
ENDBRANCH   5  14
TORSDOF 3
ENDMDL
MODEL 2
REMARK VINA RESULT:    -7.437      3.018      6.201
REMARK INTER + INTRA:          -8.401
REMARK INTER:                  -8.251
REMARK INTRA:                  -0.150
REMARK UNBOUND:                 0.340
REMARK  Name = 
REMARK  3 active torsions:
REMARK  status: ('A' for Active; 'I' for Inactive)
REMARK    1  A    between atoms: C_2  and  C_4
REMARK    2  A    between atoms: N_8  and  C_9
REMARK    3  A    between atoms: C_9  and  C_10
REMARK                            x       y       z     vdW  Elec       q    Type
REMARK                         _______ _______ _______ _____ _____    ______ ____
ROOT
ATOM      1  C   UNL     1      47.794   5.786  14.563  0.00  0.00    +0.000 A 
ATOM      2  C   UNL     1      47.275   6.158  13.326  0.00  0.00    +0.000 A 
ATOM      3  C   UNL     1      46.498   5.243  12.611  0.00  0.00    +0.000 A 
ATOM      4  C   UNL     1      46.246   3.984  13.149  0.00  0.00    +0.000 A 
ATOM      5  N   UNL     1      45.484   3.012  12.494  0.00  0.00    +0.000 N 
ATOM      6  N   UNL     1      46.755   3.609  14.342  0.00  0.00    +0.000 NA
ATOM      7  C   UNL     1      47.522   4.505  15.016  0.00  0.00    +0.000 A 
ATOM      8  H   UNL     1      45.338   2.238  13.136  0.00  0.00    +0.000 HD
ENDROOT
BRANCH   1  10
ATOM      9  N   UNL     1      48.162   7.932  15.645  0.00  0.00    +0.000 N 
ATOM     10  C   UNL     1      48.636   6.676  15.393  0.00  0.00    +0.000 C 
ATOM     11  O   UNL     1      49.699   6.293  15.861  0.00  0.00    +0.000 OA
ATOM     12  H   UNL     1      48.703   8.496  16.289  0.00  0.00    +0.000 HD
ATOM     13  H   UNL     1      47.200   8.198  15.489  0.00  0.00    +0.000 HD
ENDBRANCH   1  10
BRANCH   5  14
ATOM     14  C   UNL     1      44.482   3.323  11.461  0.00  0.00    +0.000 C 
ATOM     15  C   UNL     1      43.304   4.203  11.847  0.00  0.00    +0.000 C 
ATOM     16  C   UNL     1      43.079   2.746  11.612  0.00  0.00    +0.000 C 
BRANCH  14  17
ATOM     17  C   UNL     1      45.008   3.325  10.018  0.00  0.00    +0.000 A 
ATOM     18  C   UNL     1      45.191   4.529   9.328  0.00  0.00    +0.000 A 
ATOM     19  N   UNL     1      45.741   4.624   8.090  0.00  0.00    +0.000 NA
ATOM     20  C   UNL     1      46.111   3.450   7.541  0.00  0.00    +0.000 A 
ATOM     21  C   UNL     1      45.925   2.244   8.189  0.00  0.00    +0.000 A 
ATOM     22  N   UNL     1      45.369   2.153   9.422  0.00  0.00    +0.000 NA
ENDBRANCH  14  17
ENDBRANCH   5  14
TORSDOF 3
ENDMDL
MODEL 3
REMARK VINA RESULT:    -6.214      3.349      6.256
REMARK INTER + INTRA:          -6.964
REMARK INTER:                  -6.894
REMARK INTRA:                  -0.069
REMARK UNBOUND:                 0.340
REMARK  Name = 
REMARK  3 active torsions:
REMARK  status: ('A' for Active; 'I' for Inactive)
REMARK    1  A    between atoms: C_2  and  C_4
REMARK    2  A    between atoms: N_8  and  C_9
REMARK    3  A    between atoms: C_9  and  C_10
REMARK                            x       y       z     vdW  Elec       q    Type
REMARK                         _______ _______ _______ _____ _____    ______ ____
ROOT
ATOM      1  C   UNL     1      49.616   7.878  12.918  0.00  0.00    +0.000 A 
ATOM      2  C   UNL     1      48.825   7.895  11.773  0.00  0.00    +0.000 A 
ATOM      3  C   UNL     1      47.731   7.029  11.687  0.00  0.00    +0.000 A 
ATOM      4  C   UNL     1      47.444   6.174  12.747  0.00  0.00    +0.000 A 
ATOM      5  N   UNL     1      46.373   5.276  12.736  0.00  0.00    +0.000 N 
ATOM      6  N   UNL     1      48.212   6.141  13.857  0.00  0.00    +0.000 NA
ATOM      7  C   UNL     1      49.281   6.978  13.917  0.00  0.00    +0.000 A 
ATOM      8  H   UNL     1      46.297   4.862  13.661  0.00  0.00    +0.000 HD
ENDROOT
BRANCH   1  10
ATOM      9  N   UNL     1      52.016   8.131  13.213  0.00  0.00    +0.000 N 
ATOM     10  C   UNL     1      50.800   8.745  13.102  0.00  0.00    +0.000 C 
ATOM     11  O   UNL     1      50.700   9.964  13.124  0.00  0.00    +0.000 OA
ATOM     12  H   UNL     1      52.825   8.740  13.245  0.00  0.00    +0.000 HD
ATOM     13  H   UNL     1      52.169   7.167  12.958  0.00  0.00    +0.000 HD
ENDBRANCH   1  10
BRANCH   5  14
ATOM     14  C   UNL     1      45.178   5.446  11.893  0.00  0.00    +0.000 C 
ATOM     15  C   UNL     1      44.453   6.781  11.939  0.00  0.00    +0.000 C 
ATOM     16  C   UNL     1      43.821   5.587  12.576  0.00  0.00    +0.000 C 
BRANCH  14  17
ATOM     17  C   UNL     1      45.152   4.595  10.615  0.00  0.00    +0.000 A 
ATOM     18  C   UNL     1      45.505   5.153   9.381  0.00  0.00    +0.000 A 
ATOM     19  N   UNL     1      45.602   4.448   8.224  0.00  0.00    +0.000 NA
ATOM     20  C   UNL     1      45.324   3.135   8.333  0.00  0.00    +0.000 A 
ATOM     21  C   UNL     1      44.953   2.559   9.534  0.00  0.00    +0.000 A 
ATOM     22  N   UNL     1      44.851   3.267  10.685  0.00  0.00    +0.000 NA
ENDBRANCH  14  17
ENDBRANCH   5  14
TORSDOF 3
ENDMDL
MODEL 4
REMARK VINA RESULT:    -6.159      2.728      4.415
REMARK INTER + INTRA:          -6.899
REMARK INTER:                  -6.836
REMARK INTRA:                  -0.063
REMARK UNBOUND:                 0.340
REMARK  Name = 
REMARK  3 active torsions:
REMARK  status: ('A' for Active; 'I' for Inactive)
REMARK    1  A    between atoms: C_2  and  C_4
REMARK    2  A    between atoms: N_8  and  C_9
REMARK    3  A    between atoms: C_9  and  C_10
REMARK                            x       y       z     vdW  Elec       q    Type
REMARK                         _______ _______ _______ _____ _____    ______ ____
ROOT
ATOM      1  C   UNL     1      45.041   3.930  10.052  0.00  0.00    +0.000 A 
ATOM      2  C   UNL     1      45.578   5.166   9.705  0.00  0.00    +0.000 A 
ATOM      3  C   UNL     1      45.926   6.066  10.717  0.00  0.00    +0.000 A 
ATOM      4  C   UNL     1      45.742   5.709  12.050  0.00  0.00    +0.000 A 
ATOM      5  N   UNL     1      46.058   6.553  13.118  0.00  0.00    +0.000 N 
ATOM      6  N   UNL     1      45.210   4.517  12.396  0.00  0.00    +0.000 NA
ATOM      7  C   UNL     1      44.863   3.661  11.399  0.00  0.00    +0.000 A 
ATOM      8  H   UNL     1      45.957   6.025  13.980  0.00  0.00    +0.000 HD
ENDROOT
BRANCH   1  10
ATOM      9  N   UNL     1      44.426   3.338   7.775  0.00  0.00    +0.000 N 
ATOM     10  C   UNL     1      44.632   2.913   9.058  0.00  0.00    +0.000 C 
ATOM     11  O   UNL     1      44.512   1.735   9.363  0.00  0.00    +0.000 OA
ATOM     12  H   UNL     1      44.238   2.617   7.089  0.00  0.00    +0.000 HD
ATOM     13  H   UNL     1      44.747   4.232   7.435  0.00  0.00    +0.000 HD
ENDBRANCH   1  10
BRANCH   5  14
ATOM     14  C   UNL     1      47.036   7.650  13.026  0.00  0.00    +0.000 C 
ATOM     15  C   UNL     1      48.499   7.291  12.828  0.00  0.00    +0.000 C 
ATOM     16  C   UNL     1      48.050   7.817  14.151  0.00  0.00    +0.000 C 
BRANCH  14  17
ATOM     17  C   UNL     1      46.484   8.974  12.477  0.00  0.00    +0.000 A 
ATOM     18  C   UNL     1      45.111   9.246  12.519  0.00  0.00    +0.000 A 
ATOM     19  N   UNL     1      44.554  10.427  12.146  0.00  0.00    +0.000 NA
ATOM     20  C   UNL     1      45.428  11.355  11.711  0.00  0.00    +0.000 A 
ATOM     21  C   UNL     1      46.787  11.109  11.639  0.00  0.00    +0.000 A 
ATOM     22  N   UNL     1      47.338   9.927  12.007  0.00  0.00    +0.000 NA
ENDBRANCH  14  17
ENDBRANCH   5  14
TORSDOF 3
ENDMDL
MODEL 5
REMARK VINA RESULT:    -5.809      2.959      5.894
REMARK INTER + INTRA:          -6.487
REMARK INTER:                  -7.134
REMARK INTRA:                   0.647
REMARK UNBOUND:                 0.340
REMARK  Name = 
REMARK  3 active torsions:
REMARK  status: ('A' for Active; 'I' for Inactive)
REMARK    1  A    between atoms: C_2  and  C_4
REMARK    2  A    between atoms: N_8  and  C_9
REMARK    3  A    between atoms: C_9  and  C_10
REMARK                            x       y       z     vdW  Elec       q    Type
REMARK                         _______ _______ _______ _____ _____    ______ ____
ROOT
ATOM      1  C   UNL     1      48.322   6.856  13.459  0.00  0.00    +0.000 A 
ATOM      2  C   UNL     1      47.572   5.705  13.679  0.00  0.00    +0.000 A 
ATOM      3  C   UNL     1      46.338   5.562  13.038  0.00  0.00    +0.000 A 
ATOM      4  C   UNL     1      45.886   6.565  12.184  0.00  0.00    +0.000 A 
ATOM      5  N   UNL     1      44.663   6.501  11.510  0.00  0.00    +0.000 N 
ATOM      6  N   UNL     1      46.601   7.691  11.974  0.00  0.00    +0.000 NA
ATOM      7  C   UNL     1      47.790   7.819  12.618  0.00  0.00    +0.000 A 
ATOM      8  H   UNL     1      44.619   7.279  10.858  0.00  0.00    +0.000 HD
ENDROOT
BRANCH   1  10
ATOM      9  N   UNL     1      50.577   7.760  13.355  0.00  0.00    +0.000 N 
ATOM     10  C   UNL     1      49.633   7.106  14.097  0.00  0.00    +0.000 C 
ATOM     11  O   UNL     1      49.855   6.772  15.252  0.00  0.00    +0.000 OA
ATOM     12  H   UNL     1      51.434   8.006  13.835  0.00  0.00    +0.000 HD
ATOM     13  H   UNL     1      50.358   8.262  12.507  0.00  0.00    +0.000 HD
ENDBRANCH   1  10
BRANCH   5  14
ATOM     14  C   UNL     1      43.961   5.240  11.217  0.00  0.00    +0.000 C 
ATOM     15  C   UNL     1      42.455   5.195  11.421  0.00  0.00    +0.000 C 
ATOM     16  C   UNL     1      43.342   4.465  12.375  0.00  0.00    +0.000 C 
BRANCH  14  17
ATOM     17  C   UNL     1      44.623   4.354  10.152  0.00  0.00    +0.000 A 
ATOM     18  C   UNL     1      44.470   2.964  10.186  0.00  0.00    +0.000 A 
ATOM     19  N   UNL     1      44.940   2.119   9.231  0.00  0.00    +0.000 NA
ATOM     20  C   UNL     1      45.590   2.717   8.214  0.00  0.00    +0.000 A 
ATOM     21  C   UNL     1      45.775   4.086   8.163  0.00  0.00    +0.000 A 
ATOM     22  N   UNL     1      45.310   4.924   9.121  0.00  0.00    +0.000 NA
ENDBRANCH  14  17
ENDBRANCH   5  14
TORSDOF 3
ENDMDL
MODEL 6
REMARK VINA RESULT:    -5.479      4.858      7.638
REMARK INTER + INTRA:          -6.100
REMARK INTER:                  -7.088
REMARK INTRA:                   0.988
REMARK UNBOUND:                 0.340
REMARK  Name = 
REMARK  3 active torsions:
REMARK  status: ('A' for Active; 'I' for Inactive)
REMARK    1  A    between atoms: C_2  and  C_4
REMARK    2  A    between atoms: N_8  and  C_9
REMARK    3  A    between atoms: C_9  and  C_10
REMARK                            x       y       z     vdW  Elec       q    Type
REMARK                         _______ _______ _______ _____ _____    ______ ____
ROOT
ATOM      1  C   UNL     1      48.354   4.297  17.453  0.00  0.00    +0.000 A 
ATOM      2  C   UNL     1      48.314   5.562  16.875  0.00  0.00    +0.000 A 
ATOM      3  C   UNL     1      47.894   5.692  15.548  0.00  0.00    +0.000 A 
ATOM      4  C   UNL     1      47.514   4.561  14.831  0.00  0.00    +0.000 A 
ATOM      5  N   UNL     1      47.088   4.606  13.501  0.00  0.00    +0.000 N 
ATOM      6  N   UNL     1      47.561   3.328  15.379  0.00  0.00    +0.000 NA
ATOM      7  C   UNL     1      47.987   3.218  16.665  0.00  0.00    +0.000 A 
ATOM      8  H   UNL     1      46.748   3.684  13.245  0.00  0.00    +0.000 HD
ENDROOT
BRANCH   1  10
ATOM      9  N   UNL     1      48.258   2.971  19.488  0.00  0.00    +0.000 N 
ATOM     10  C   UNL     1      48.792   4.051  18.844  0.00  0.00    +0.000 C 
ATOM     11  O   UNL     1      49.622   4.767  19.387  0.00  0.00    +0.000 OA
ATOM     12  H   UNL     1      48.636   2.762  20.404  0.00  0.00    +0.000 HD
ATOM     13  H   UNL     1      47.772   2.229  19.006  0.00  0.00    +0.000 HD
ENDBRANCH   1  10
BRANCH   5  14
ATOM     14  C   UNL     1      46.527   5.811  12.867  0.00  0.00    +0.000 C 
ATOM     15  C   UNL     1      47.439   6.645  11.981  0.00  0.00    +0.000 C 
ATOM     16  C   UNL     1      47.037   7.175  13.318  0.00  0.00    +0.000 C 
BRANCH  14  17
ATOM     17  C   UNL     1      45.017   5.764  12.594  0.00  0.00    +0.000 A 
ATOM     18  C   UNL     1      44.478   6.381  11.459  0.00  0.00    +0.000 A 
ATOM     19  N   UNL     1      43.172   6.305  11.095  0.00  0.00    +0.000 NA
ATOM     20  C   UNL     1      42.394   5.578  11.920  0.00  0.00    +0.000 A 
ATOM     21  C   UNL     1      42.892   4.973  13.059  0.00  0.00    +0.000 A 
ATOM     22  N   UNL     1      44.196   5.058  13.422  0.00  0.00    +0.000 NA
ENDBRANCH  14  17
ENDBRANCH   5  14
TORSDOF 3
ENDMDL
MODEL 7
REMARK VINA RESULT:    -5.464      1.569      2.037
REMARK INTER + INTRA:          -6.082
REMARK INTER:                  -5.933
REMARK INTRA:                  -0.149
REMARK UNBOUND:                 0.340
REMARK  Name = 
REMARK  3 active torsions:
REMARK  status: ('A' for Active; 'I' for Inactive)
REMARK    1  A    between atoms: C_2  and  C_4
REMARK    2  A    between atoms: N_8  and  C_9
REMARK    3  A    between atoms: C_9  and  C_10
REMARK                            x       y       z     vdW  Elec       q    Type
REMARK                         _______ _______ _______ _____ _____    ______ ____
ROOT
ATOM      1  C   UNL     1      46.251   2.123   7.776  0.00  0.00    +0.000 A 
ATOM      2  C   UNL     1      46.154   2.065   9.163  0.00  0.00    +0.000 A 
ATOM      3  C   UNL     1      45.694   3.185   9.862  0.00  0.00    +0.000 A 
ATOM      4  C   UNL     1      45.331   4.333   9.161  0.00  0.00    +0.000 A 
ATOM      5  N   UNL     1      44.868   5.494   9.785  0.00  0.00    +0.000 N 
ATOM      6  N   UNL     1      45.434   4.403   7.817  0.00  0.00    +0.000 NA
ATOM      7  C   UNL     1      45.898   3.311   7.156  0.00  0.00    +0.000 A 
ATOM      8  H   UNL     1      44.552   6.137   9.065  0.00  0.00    +0.000 HD
ENDROOT
BRANCH   1  10
ATOM      9  N   UNL     1      46.695  -0.251   7.501  0.00  0.00    +0.000 N 
ATOM     10  C   UNL     1      46.735   0.998   6.947  0.00  0.00    +0.000 C 
ATOM     11  O   UNL     1      47.126   1.172   5.802  0.00  0.00    +0.000 OA
ATOM     12  H   UNL     1      46.941  -1.021   6.890  0.00  0.00    +0.000 HD
ATOM     13  H   UNL     1      46.162  -0.468   8.330  0.00  0.00    +0.000 HD
ENDBRANCH   1  10
BRANCH   5  14
ATOM     14  C   UNL     1      44.251   5.509  11.122  0.00  0.00    +0.000 C 
ATOM     15  C   UNL     1      42.821   5.012  11.256  0.00  0.00    +0.000 C 
ATOM     16  C   UNL     1      43.098   6.474  11.380  0.00  0.00    +0.000 C 
BRANCH  14  17
ATOM     17  C   UNL     1      45.230   5.373  12.297  0.00  0.00    +0.000 A 
ATOM     18  C   UNL     1      46.290   6.274  12.449  0.00  0.00    +0.000 A 
ATOM     19  N   UNL     1      47.140   6.282  13.509  0.00  0.00    +0.000 NA
ATOM     20  C   UNL     1      46.899   5.337  14.438  0.00  0.00    +0.000 A 
ATOM     21  C   UNL     1      45.872   4.421  14.306  0.00  0.00    +0.000 A 
ATOM     22  N   UNL     1      45.030   4.412  13.244  0.00  0.00    +0.000 NA
ENDBRANCH  14  17
ENDBRANCH   5  14
TORSDOF 3
ENDMDL
MODEL 8
REMARK VINA RESULT:    -5.454      3.173      4.840
REMARK INTER + INTRA:          -6.070
REMARK INTER:                  -6.647
REMARK INTRA:                   0.577
REMARK UNBOUND:                 0.340
REMARK  Name = 
REMARK  3 active torsions:
REMARK  status: ('A' for Active; 'I' for Inactive)
REMARK    1  A    between atoms: C_2  and  C_4
REMARK    2  A    between atoms: N_8  and  C_9
REMARK    3  A    between atoms: C_9  and  C_10
REMARK                            x       y       z     vdW  Elec       q    Type
REMARK                         _______ _______ _______ _____ _____    ______ ____
ROOT
ATOM      1  C   UNL     1      44.311   4.173  11.515  0.00  0.00    +0.000 A 
ATOM      2  C   UNL     1      45.438   4.804  10.996  0.00  0.00    +0.000 A 
ATOM      3  C   UNL     1      45.851   6.021  11.545  0.00  0.00    +0.000 A 
ATOM      4  C   UNL     1      45.139   6.576  12.605  0.00  0.00    +0.000 A 
ATOM      5  N   UNL     1      45.483   7.791  13.204  0.00  0.00    +0.000 N 
ATOM      6  N   UNL     1      44.037   5.978  13.107  0.00  0.00    +0.000 NA
ATOM      7  C   UNL     1      43.641   4.804  12.550  0.00  0.00    +0.000 A 
ATOM      8  H   UNL     1      44.899   7.916  14.026  0.00  0.00    +0.000 HD
ENDROOT
BRANCH   1  10
ATOM      9  N   UNL     1      44.424   2.341   9.921  0.00  0.00    +0.000 N 
ATOM     10  C   UNL     1      43.787   2.890  10.998  0.00  0.00    +0.000 C 
ATOM     11  O   UNL     1      42.843   2.326  11.531  0.00  0.00    +0.000 OA
ATOM     12  H   UNL     1      44.114   1.419   9.637  0.00  0.00    +0.000 HD
ATOM     13  H   UNL     1      45.338   2.639   9.613  0.00  0.00    +0.000 HD
ENDBRANCH   1  10
BRANCH   5  14
ATOM     14  C   UNL     1      46.838   8.366  13.157  0.00  0.00    +0.000 C 
ATOM     15  C   UNL     1      47.001   9.772  12.602  0.00  0.00    +0.000 C 
ATOM     16  C   UNL     1      47.478   8.609  11.795  0.00  0.00    +0.000 C 
BRANCH  14  17
ATOM     17  C   UNL     1      47.810   7.838  14.222  0.00  0.00    +0.000 A 
ATOM     18  C   UNL     1      47.981   6.462  14.412  0.00  0.00    +0.000 A 
ATOM     19  N   UNL     1      48.889   5.914  15.262  0.00  0.00    +0.000 NA
ATOM     20  C   UNL     1      49.639   6.803  15.941  0.00  0.00    +0.000 A 
ATOM     21  C   UNL     1      49.480   8.168  15.790  0.00  0.00    +0.000 A 
ATOM     22  N   UNL     1      48.569   8.710  14.946  0.00  0.00    +0.000 NA
ENDBRANCH  14  17
ENDBRANCH   5  14
TORSDOF 3
ENDMDL
MODEL 9
REMARK VINA RESULT:    -5.269      4.595      7.563
REMARK INTER + INTRA:          -5.853
REMARK INTER:                  -5.913
REMARK INTRA:                   0.060
REMARK UNBOUND:                 0.340
REMARK  Name = 
REMARK  3 active torsions:
REMARK  status: ('A' for Active; 'I' for Inactive)
REMARK    1  A    between atoms: C_2  and  C_4
REMARK    2  A    between atoms: N_8  and  C_9
REMARK    3  A    between atoms: C_9  and  C_10
REMARK                            x       y       z     vdW  Elec       q    Type
REMARK                         _______ _______ _______ _____ _____    ______ ____
ROOT
ATOM      1  C   UNL     1      47.889   4.432  16.672  0.00  0.00    +0.000 A 
ATOM      2  C   UNL     1      47.257   4.503  15.434  0.00  0.00    +0.000 A 
ATOM      3  C   UNL     1      47.528   5.584  14.591  0.00  0.00    +0.000 A 
ATOM      4  C   UNL     1      48.431   6.564  14.996  0.00  0.00    +0.000 A 
ATOM      5  N   UNL     1      48.751   7.678  14.215  0.00  0.00    +0.000 N 
ATOM      6  N   UNL     1      49.039   6.511  16.201  0.00  0.00    +0.000 NA
ATOM      7  C   UNL     1      48.752   5.462  17.014  0.00  0.00    +0.000 A 
ATOM      8  H   UNL     1      49.517   8.171  14.665  0.00  0.00    +0.000 HD
ENDROOT
BRANCH   1  10
ATOM      9  N   UNL     1      48.594   3.168  18.626  0.00  0.00    +0.000 N 
ATOM     10  C   UNL     1      47.663   3.336  17.640  0.00  0.00    +0.000 C 
ATOM     11  O   UNL     1      46.667   2.629  17.580  0.00  0.00    +0.000 OA
ATOM     12  H   UNL     1      48.379   2.476  19.333  0.00  0.00    +0.000 HD
ATOM     13  H   UNL     1      49.284   3.869  18.855  0.00  0.00    +0.000 HD
ENDBRANCH   1  10
BRANCH   5  14
ATOM     14  C   UNL     1      48.595   7.718  12.752  0.00  0.00    +0.000 C 
ATOM     15  C   UNL     1      49.741   7.204  11.895  0.00  0.00    +0.000 C 
ATOM     16  C   UNL     1      49.475   8.672  11.952  0.00  0.00    +0.000 C 
BRANCH  14  17
ATOM     17  C   UNL     1      47.148   7.624  12.245  0.00  0.00    +0.000 A 
ATOM     18  C   UNL     1      46.750   6.567  11.419  0.00  0.00    +0.000 A 
ATOM     19  N   UNL     1      45.472   6.357  11.007  0.00  0.00    +0.000 NA
ATOM     20  C   UNL     1      44.578   7.261  11.452  0.00  0.00    +0.000 A 
ATOM     21  C   UNL     1      44.944   8.327  12.253  0.00  0.00    +0.000 A 
ATOM     22  N   UNL     1      46.221   8.535  12.655  0.00  0.00    +0.000 NA
ENDBRANCH  14  17
ENDBRANCH   5  14
TORSDOF 3
ENDMDL
