MODEL 1
REMARK VINA RESULT:    -7.274      0.000      0.000
REMARK INTER + INTRA:         -12.398
REMARK INTER:                 -10.675
REMARK INTRA:                  -1.723
REMARK UNBOUND:                -1.723
REMARK  Name = 
REMARK  9 active torsions:
REMARK  status: ('A' for Active; 'I' for Inactive)
REMARK    1  A    between atoms: C_1  and  C_2
REMARK    2  A    between atoms: C_2  and  C_3
REMARK    3  A    between atoms: C_9  and  C_10
REMARK    4  A    between atoms: C_10  and  N_11
REMARK    5  A    between atoms: N_14  and  C_15
REMARK    6  A    between atoms: C_15  and  C_16
REMARK    7  A    between atoms: C_19  and  C_20
REMARK    8  A    between atoms: C_20  and  N_21
REMARK    9  A    between atoms: C_22  and  C_24
REMARK                            x       y       z     vdW  Elec       q    Type
REMARK                         _______ _______ _______ _____ _____    ______ ____
ROOT
ATOM      1  C   UNL     1      49.502   8.971  15.602  0.00  0.00    +0.000 A 
ATOM      2  C   UNL     1      48.632   9.841  14.928  0.00  0.00    +0.000 A 
ATOM      3  C   UNL     1      48.188   9.542  13.641  0.00  0.00    +0.000 A 
ATOM      4  C   UNL     1      48.584   8.352  13.019  0.00  0.00    +0.000 A 
ATOM      5  C   UNL     1      49.467   7.493  13.688  0.00  0.00    +0.000 A 
ATOM      6  C   UNL     1      49.915   7.794  14.975  0.00  0.00    +0.000 A 
ENDROOT
BRANCH   1   7
ATOM      7  C   UNL     1      50.007   9.342  16.962  0.00  0.00    +0.000 C 
BRANCH   7  11
ATOM      8  N   UNL     1      48.099   7.580  18.047  0.00  0.00    +0.000 N 
ATOM      9  C   UNL     1      48.010   8.883  18.415  0.00  0.00    +0.000 C 
ATOM     10  O   UNL     1      47.145   9.325  19.172  0.00  0.00    +0.000 OA
ATOM     11  N   UNL     1      48.948   9.707  17.875  0.00  0.00    +0.000 N 
ATOM     12  H   UNL     1      48.972   7.273  17.661  0.00  0.00    +0.000 HD
ATOM     13  H   UNL     1      48.811  10.688  18.090  0.00  0.00    +0.000 HD
BRANCH   8  14
ATOM     14  C   UNL     1      47.398   6.530  18.732  0.00  0.00    +0.000 C 
BRANCH  14  21
ATOM     15  C   UNL     1      50.806   2.832  17.760  0.00  0.00    +0.000 A 
ATOM     16  C   UNL     1      51.813   3.452  18.413  0.00  0.00    +0.000 A 
ATOM     17  N   UNL     1      51.665   4.681  19.023  0.00  0.00    +0.000 N 
ATOM     18  C   UNL     1      50.495   5.427  19.024  0.00  0.00    +0.000 A 
ATOM     19  O   UNL     1      50.457   6.563  19.486  0.00  0.00    +0.000 OA
ATOM     20  C   UNL     1      49.346   4.767  18.400  0.00  0.00    +0.000 A 
ATOM     21  C   UNL     1      47.978   5.229  18.262  0.00  0.00    +0.000 A 
ATOM     22  C   UNL     1      47.224   4.290  17.578  0.00  0.00    +0.000 A 
ATOM     23  S   UNL     1      48.109   2.911  17.130  0.00  0.00    +0.000 S 
ATOM     24  C   UNL     1      49.548   3.527  17.809  0.00  0.00    +0.000 A 
ATOM     25  H   UNL     1      52.465   5.119  19.463  0.00  0.00    +0.000 HD
BRANCH  15  27
ATOM     26  C   UNL     1      52.438   0.962  17.408  0.00  0.00    +0.000 C 
ATOM     27  C   UNL     1      51.073   1.526  17.037  0.00  0.00    +0.000 C 
ENDBRANCH  15  27
ENDBRANCH  14  21
ENDBRANCH   8  14
ENDBRANCH   7  11
ENDBRANCH   1   7
BRANCH   4  28
ATOM     28  C   UNL     1      48.103   8.015  11.634  0.00  0.00    +0.000 C 
BRANCH  28  29
ATOM     29  N   UNL     1      47.318   6.810  11.642  0.00  0.00    +0.000 N 
ATOM     30  C   UNL     1      45.950   6.857  11.702  0.00  0.00    +0.000 C 
ATOM     31  O   UNL     1      45.331   7.917  11.708  0.00  0.00    +0.000 OA
ATOM     32  H   UNL     1      47.799   5.952  11.888  0.00  0.00    +0.000 HD
BRANCH  30  33
ATOM     33  C   UNL     1      45.260   5.562  11.680  0.00  0.00    +0.000 A 
ATOM     34  C   UNL     1      44.643   5.089  12.830  0.00  0.00    +0.000 A 
ATOM     35  S   UNL     1      43.803   3.623  12.596  0.00  0.00    +0.000 S 
ATOM     36  C   UNL     1      44.286   3.541  10.967  0.00  0.00    +0.000 A 
ATOM     37  N   UNL     1      43.902   2.507  10.171  0.00  0.00    +0.000 NA
ATOM     38  C   UNL     1      44.371   2.555   8.969  0.00  0.00    +0.000 A 
ATOM     39  N   UNL     1      45.192   3.542   8.490  0.00  0.00    +0.000 N 
ATOM     40  C   UNL     1      45.588   4.618   9.250  0.00  0.00    +0.000 A 
ATOM     41  O   UNL     1      46.301   5.498   8.781  0.00  0.00    +0.000 OA
ATOM     42  C   UNL     1      45.080   4.616  10.607  0.00  0.00    +0.000 A 
ATOM     43  H   UNL     1      45.530   3.520   7.540  0.00  0.00    +0.000 HD
ENDBRANCH  30  33
ENDBRANCH  28  29
ENDBRANCH   4  28
TORSDOF 8
ENDMDL
MODEL 2
REMARK VINA RESULT:    -7.192      2.635      4.003
REMARK INTER + INTRA:         -12.279
REMARK INTER:                 -10.272
REMARK INTRA:                  -2.007
REMARK UNBOUND:                -1.723
REMARK  Name = 
REMARK  9 active torsions:
REMARK  status: ('A' for Active; 'I' for Inactive)
REMARK    1  A    between atoms: C_1  and  C_2
REMARK    2  A    between atoms: C_2  and  C_3
REMARK    3  A    between atoms: C_9  and  C_10
REMARK    4  A    between atoms: C_10  and  N_11
REMARK    5  A    between atoms: N_14  and  C_15
REMARK    6  A    between atoms: C_15  and  C_16
REMARK    7  A    between atoms: C_19  and  C_20
REMARK    8  A    between atoms: C_20  and  N_21
REMARK    9  A    between atoms: C_22  and  C_24
REMARK                            x       y       z     vdW  Elec       q    Type
REMARK                         _______ _______ _______ _____ _____    ______ ____
ROOT
ATOM      1  C   UNL     1      50.427   8.842  11.442  0.00  0.00    +0.000 A 
ATOM      2  C   UNL     1      49.580   9.931  11.694  0.00  0.00    +0.000 A 
ATOM      3  C   UNL     1      48.267   9.725  12.113  0.00  0.00    +0.000 A 
ATOM      4  C   UNL     1      47.790   8.425  12.316  0.00  0.00    +0.000 A 
ATOM      5  C   UNL     1      48.634   7.338  12.047  0.00  0.00    +0.000 A 
ATOM      6  C   UNL     1      49.947   7.544  11.623  0.00  0.00    +0.000 A 
ENDROOT
BRANCH   1   7
ATOM      7  C   UNL     1      51.817   9.091  10.939  0.00  0.00    +0.000 C 
BRANCH   7  11
ATOM      8  N   UNL     1      52.516   9.155  13.666  0.00  0.00    +0.000 N 
ATOM      9  C   UNL     1      53.167   8.256  12.886  0.00  0.00    +0.000 C 
ATOM     10  O   UNL     1      54.041   7.493  13.302  0.00  0.00    +0.000 OA
ATOM     11  N   UNL     1      52.804   8.249  11.575  0.00  0.00    +0.000 N 
ATOM     12  H   UNL     1      51.655   9.527  13.311  0.00  0.00    +0.000 HD
ATOM     13  H   UNL     1      53.364   7.635  10.994  0.00  0.00    +0.000 HD
BRANCH   8  14
ATOM     14  C   UNL     1      52.546   9.105  15.101  0.00  0.00    +0.000 C 
BRANCH  14  21
ATOM     15  C   UNL     1      49.448   5.516  17.038  0.00  0.00    +0.000 A 
ATOM     16  C   UNL     1      50.461   4.721  17.444  0.00  0.00    +0.000 A 
ATOM     17  N   UNL     1      51.789   5.037  17.242  0.00  0.00    +0.000 N 
ATOM     18  C   UNL     1      52.240   6.176  16.590  0.00  0.00    +0.000 A 
ATOM     19  O   UNL     1      53.429   6.347  16.341  0.00  0.00    +0.000 OA
ATOM     20  C   UNL     1      51.186   7.116  16.199  0.00  0.00    +0.000 A 
ATOM     21  C   UNL     1      51.296   8.408  15.548  0.00  0.00    +0.000 A 
ATOM     22  C   UNL     1      50.038   8.947  15.343  0.00  0.00    +0.000 A 
ATOM     23  S   UNL     1      48.779   7.960  15.914  0.00  0.00    +0.000 S 
ATOM     24  C   UNL     1      49.867   6.753  16.436  0.00  0.00    +0.000 A 
ATOM     25  H   UNL     1      52.507   4.383  17.530  0.00  0.00    +0.000 HD
BRANCH  15  27
ATOM     26  C   UNL     1      47.604   4.096  16.107  0.00  0.00    +0.000 C 
ATOM     27  C   UNL     1      48.014   5.056  17.216  0.00  0.00    +0.000 C 
ENDBRANCH  15  27
ENDBRANCH  14  21
ENDBRANCH   8  14
ENDBRANCH   7  11
ENDBRANCH   1   7
BRANCH   4  28
ATOM     28  C   UNL     1      46.377   8.190  12.777  0.00  0.00    +0.000 C 
BRANCH  28  29
ATOM     29  N   UNL     1      45.958   6.846  12.487  0.00  0.00    +0.000 N 
ATOM     30  C   UNL     1      44.844   6.599  11.727  0.00  0.00    +0.000 C 
ATOM     31  O   UNL     1      44.181   7.503  11.225  0.00  0.00    +0.000 OA
ATOM     32  H   UNL     1      46.328   6.112  13.081  0.00  0.00    +0.000 HD
BRANCH  30  33
ATOM     33  C   UNL     1      44.532   5.188  11.481  0.00  0.00    +0.000 A 
ATOM     34  C   UNL     1      43.837   4.457  12.434  0.00  0.00    +0.000 A 
ATOM     35  S   UNL     1      43.470   2.867  11.938  0.00  0.00    +0.000 S 
ATOM     36  C   UNL     1      44.282   3.082  10.458  0.00  0.00    +0.000 A 
ATOM     37  N   UNL     1      44.350   2.078   9.542  0.00  0.00    +0.000 NA
ATOM     38  C   UNL     1      45.027   2.369   8.482  0.00  0.00    +0.000 A 
ATOM     39  N   UNL     1      45.645   3.571   8.254  0.00  0.00    +0.000 N 
ATOM     40  C   UNL     1      45.585   4.620   9.140  0.00  0.00    +0.000 A 
ATOM     41  O   UNL     1      46.127   5.692   8.893  0.00  0.00    +0.000 OA
ATOM     42  C   UNL     1      44.827   4.348  10.346  0.00  0.00    +0.000 A 
ATOM     43  H   UNL     1      46.165   3.734   7.405  0.00  0.00    +0.000 HD
ENDBRANCH  30  33
ENDBRANCH  28  29
ENDBRANCH   4  28
TORSDOF 8
ENDMDL
MODEL 3
REMARK VINA RESULT:    -6.998      2.536      3.605
REMARK INTER + INTRA:         -11.994
REMARK INTER:                 -10.057
REMARK INTRA:                  -1.937
REMARK UNBOUND:                -1.723
REMARK  Name = 
REMARK  9 active torsions:
REMARK  status: ('A' for Active; 'I' for Inactive)
REMARK    1  A    between atoms: C_1  and  C_2
REMARK    2  A    between atoms: C_2  and  C_3
REMARK    3  A    between atoms: C_9  and  C_10
REMARK    4  A    between atoms: C_10  and  N_11
REMARK    5  A    between atoms: N_14  and  C_15
REMARK    6  A    between atoms: C_15  and  C_16
REMARK    7  A    between atoms: C_19  and  C_20
REMARK    8  A    between atoms: C_20  and  N_21
REMARK    9  A    between atoms: C_22  and  C_24
REMARK                            x       y       z     vdW  Elec       q    Type
REMARK                         _______ _______ _______ _____ _____    ______ ____
ROOT
ATOM      1  C   UNL     1      50.683   8.538  12.106  0.00  0.00    +0.000 A 
ATOM      2  C   UNL     1      50.070   7.303  12.367  0.00  0.00    +0.000 A 
ATOM      3  C   UNL     1      48.682   7.184  12.352  0.00  0.00    +0.000 A 
ATOM      4  C   UNL     1      47.885   8.293  12.045  0.00  0.00    +0.000 A 
ATOM      5  C   UNL     1      48.499   9.529  11.800  0.00  0.00    +0.000 A 
ATOM      6  C   UNL     1      49.889   9.650  11.820  0.00  0.00    +0.000 A 
ENDROOT
BRANCH   1   7
ATOM      7  C   UNL     1      52.175   8.650  12.182  0.00  0.00    +0.000 C 
BRANCH   7  11
ATOM      8  N   UNL     1      52.188   8.890  14.988  0.00  0.00    +0.000 N 
ATOM      9  C   UNL     1      52.631   9.958  14.278  0.00  0.00    +0.000 C 
ATOM     10  O   UNL     1      53.017  11.010  14.790  0.00  0.00    +0.000 OA
ATOM     11  N   UNL     1      52.615   9.809  12.926  0.00  0.00    +0.000 N 
ATOM     12  H   UNL     1      52.158   8.007  14.513  0.00  0.00    +0.000 HD
ATOM     13  H   UNL     1      52.863  10.647  12.414  0.00  0.00    +0.000 HD
BRANCH   8  14
ATOM     14  C   UNL     1      52.409   8.750  16.400  0.00  0.00    +0.000 C 
BRANCH  14  21
ATOM     15  C   UNL     1      49.385   4.689  17.179  0.00  0.00    +0.000 A 
ATOM     16  C   UNL     1      48.304   5.260  16.606  0.00  0.00    +0.000 A 
ATOM     17  N   UNL     1      48.319   6.540  16.089  0.00  0.00    +0.000 N 
ATOM     18  C   UNL     1      49.415   7.390  16.113  0.00  0.00    +0.000 A 
ATOM     19  O   UNL     1      49.334   8.556  15.739  0.00  0.00    +0.000 OA
ATOM     20  C   UNL     1      50.641   6.794  16.650  0.00  0.00    +0.000 A 
ATOM     21  C   UNL     1      51.966   7.369  16.784  0.00  0.00    +0.000 A 
ATOM     22  C   UNL     1      52.825   6.456  17.371  0.00  0.00    +0.000 A 
ATOM     23  S   UNL     1      52.086   4.971  17.736  0.00  0.00    +0.000 S 
ATOM     24  C   UNL     1      50.573   5.499  17.148  0.00  0.00    +0.000 A 
ATOM     25  H   UNL     1      47.467   6.934  15.708  0.00  0.00    +0.000 HD
BRANCH  15  27
ATOM     26  C   UNL     1      49.665   2.224  16.819  0.00  0.00    +0.000 C 
ATOM     27  C   UNL     1      49.264   3.313  17.806  0.00  0.00    +0.000 C 
ENDBRANCH  15  27
ENDBRANCH  14  21
ENDBRANCH   8  14
ENDBRANCH   7  11
ENDBRANCH   1   7
BRANCH   4  28
ATOM     28  C   UNL     1      46.385   8.174  12.016  0.00  0.00    +0.000 C 
BRANCH  28  29
ATOM     29  N   UNL     1      45.982   6.809  11.810  0.00  0.00    +0.000 N 
ATOM     30  C   UNL     1      44.690   6.495  11.478  0.00  0.00    +0.000 C 
ATOM     31  O   UNL     1      43.832   7.355  11.298  0.00  0.00    +0.000 OA
ATOM     32  H   UNL     1      46.587   6.090  12.191  0.00  0.00    +0.000 HD
BRANCH  30  33
ATOM     33  C   UNL     1      44.406   5.071  11.271  0.00  0.00    +0.000 A 
ATOM     34  C   UNL     1      43.671   4.369  12.216  0.00  0.00    +0.000 A 
ATOM     35  S   UNL     1      43.348   2.756  11.766  0.00  0.00    +0.000 S 
ATOM     36  C   UNL     1      44.231   2.924  10.321  0.00  0.00    +0.000 A 
ATOM     37  N   UNL     1      44.356   1.887   9.449  0.00  0.00    +0.000 NA
ATOM     38  C   UNL     1      45.083   2.145   8.414  0.00  0.00    +0.000 A 
ATOM     39  N   UNL     1      45.699   3.345   8.170  0.00  0.00    +0.000 N 
ATOM     40  C   UNL     1      45.582   4.428   9.010  0.00  0.00    +0.000 A 
ATOM     41  O   UNL     1      46.124   5.496   8.749  0.00  0.00    +0.000 OA
ATOM     42  C   UNL     1      44.767   4.192  10.186  0.00  0.00    +0.000 A 
ATOM     43  H   UNL     1      46.259   3.483   7.343  0.00  0.00    +0.000 HD
ENDBRANCH  30  33
ENDBRANCH  28  29
ENDBRANCH   4  28
TORSDOF 8
ENDMDL
MODEL 4
REMARK VINA RESULT:    -6.956      5.112      6.433
REMARK INTER + INTRA:         -11.933
REMARK INTER:                 -10.457
REMARK INTRA:                  -1.476
REMARK UNBOUND:                -1.723
REMARK  Name = 
REMARK  9 active torsions:
REMARK  status: ('A' for Active; 'I' for Inactive)
REMARK    1  A    between atoms: C_1  and  C_2
REMARK    2  A    between atoms: C_2  and  C_3
REMARK    3  A    between atoms: C_9  and  C_10
REMARK    4  A    between atoms: C_10  and  N_11
REMARK    5  A    between atoms: N_14  and  C_15
REMARK    6  A    between atoms: C_15  and  C_16
REMARK    7  A    between atoms: C_19  and  C_20
REMARK    8  A    between atoms: C_20  and  N_21
REMARK    9  A    between atoms: C_22  and  C_24
REMARK                            x       y       z     vdW  Elec       q    Type
REMARK                         _______ _______ _______ _____ _____    ______ ____
ROOT
ATOM      1  C   UNL     1      48.133   7.333  13.048  0.00  0.00    +0.000 A 
ATOM      2  C   UNL     1      49.168   7.635  13.947  0.00  0.00    +0.000 A 
ATOM      3  C   UNL     1      50.401   8.087  13.481  0.00  0.00    +0.000 A 
ATOM      4  C   UNL     1      50.609   8.273  12.109  0.00  0.00    +0.000 A 
ATOM      5  C   UNL     1      49.579   7.954  11.213  0.00  0.00    +0.000 A 
ATOM      6  C   UNL     1      48.345   7.497  11.679  0.00  0.00    +0.000 A 
ENDROOT
BRANCH   1   7
ATOM      7  C   UNL     1      46.836   6.797  13.572  0.00  0.00    +0.000 C 
BRANCH   7  11
ATOM      8  N   UNL     1      47.338   4.903  15.595  0.00  0.00    +0.000 N 
ATOM      9  C   UNL     1      46.959   4.422  14.383  0.00  0.00    +0.000 C 
ATOM     10  O   UNL     1      46.840   3.223  14.128  0.00  0.00    +0.000 OA
ATOM     11  N   UNL     1      46.721   5.363  13.430  0.00  0.00    +0.000 N 
ATOM     12  H   UNL     1      47.145   5.869  15.783  0.00  0.00    +0.000 HD
ATOM     13  H   UNL     1      46.527   4.982  12.511  0.00  0.00    +0.000 HD
BRANCH   8  14
ATOM     14  C   UNL     1      47.341   4.098  16.784  0.00  0.00    +0.000 C 
BRANCH  14  21
ATOM     15  C   UNL     1      52.117   3.155  18.377  0.00  0.00    +0.000 A 
ATOM     16  C   UNL     1      52.221   1.994  17.694  0.00  0.00    +0.000 A 
ATOM     17  N   UNL     1      51.196   1.484  16.924  0.00  0.00    +0.000 N 
ATOM     18  C   UNL     1      49.949   2.076  16.775  0.00  0.00    +0.000 A 
ATOM     19  O   UNL     1      49.041   1.518  16.168  0.00  0.00    +0.000 OA
ATOM     20  C   UNL     1      49.807   3.379  17.428  0.00  0.00    +0.000 A 
ATOM     21  C   UNL     1      48.675   4.286  17.443  0.00  0.00    +0.000 A 
ATOM     22  C   UNL     1      48.968   5.402  18.210  0.00  0.00    +0.000 A 
ATOM     23  S   UNL     1      50.532   5.374  18.871  0.00  0.00    +0.000 S 
ATOM     24  C   UNL     1      50.874   3.850  18.182  0.00  0.00    +0.000 A 
ATOM     25  H   UNL     1      51.313   0.588  16.466  0.00  0.00    +0.000 HD
BRANCH  15  27
ATOM     26  C   UNL     1      54.232   2.462  19.530  0.00  0.00    +0.000 C 
ATOM     27  C   UNL     1      53.255   3.603  19.274  0.00  0.00    +0.000 C 
ENDBRANCH  15  27
ENDBRANCH  14  21
ENDBRANCH   8  14
ENDBRANCH   7  11
ENDBRANCH   1   7
BRANCH   4  28
ATOM     28  C   UNL     1      51.933   8.769  11.595  0.00  0.00    +0.000 C 
BRANCH  28  29
ATOM     29  N   UNL     1      52.169   8.308  10.254  0.00  0.00    +0.000 N 
ATOM     30  C   UNL     1      53.276   8.709   9.552  0.00  0.00    +0.000 C 
ATOM     31  O   UNL     1      54.134   9.437  10.042  0.00  0.00    +0.000 OA
ATOM     32  H   UNL     1      51.374   7.925   9.754  0.00  0.00    +0.000 HD
BRANCH  30  33
ATOM     33  C   UNL     1      53.418   8.152   8.202  0.00  0.00    +0.000 A 
ATOM     34  C   UNL     1      53.379   8.994   7.100  0.00  0.00    +0.000 A 
ATOM     35  S   UNL     1      53.665   8.194   5.621  0.00  0.00    +0.000 S 
ATOM     36  C   UNL     1      53.790   6.685   6.398  0.00  0.00    +0.000 A 
ATOM     37  N   UNL     1      54.033   5.549   5.692  0.00  0.00    +0.000 NA
ATOM     38  C   UNL     1      54.067   4.473   6.405  0.00  0.00    +0.000 A 
ATOM     39  N   UNL     1      53.877   4.429   7.762  0.00  0.00    +0.000 N 
ATOM     40  C   UNL     1      53.652   5.554   8.520  0.00  0.00    +0.000 A 
ATOM     41  O   UNL     1      53.513   5.482   9.737  0.00  0.00    +0.000 OA
ATOM     42  C   UNL     1      53.613   6.791   7.766  0.00  0.00    +0.000 A 
ATOM     43  H   UNL     1      53.911   3.554   8.262  0.00  0.00    +0.000 HD
ENDBRANCH  30  33
ENDBRANCH  28  29
ENDBRANCH   4  28
TORSDOF 8
ENDMDL
MODEL 5
REMARK VINA RESULT:    -6.835      2.262      2.956
REMARK INTER + INTRA:         -11.755
REMARK INTER:                  -9.771
REMARK INTRA:                  -1.984
REMARK UNBOUND:                -1.723
REMARK  Name = 
REMARK  9 active torsions:
REMARK  status: ('A' for Active; 'I' for Inactive)
REMARK    1  A    between atoms: C_1  and  C_2
REMARK    2  A    between atoms: C_2  and  C_3
REMARK    3  A    between atoms: C_9  and  C_10
REMARK    4  A    between atoms: C_10  and  N_11
REMARK    5  A    between atoms: N_14  and  C_15
REMARK    6  A    between atoms: C_15  and  C_16
REMARK    7  A    between atoms: C_19  and  C_20
REMARK    8  A    between atoms: C_20  and  N_21
REMARK    9  A    between atoms: C_22  and  C_24
REMARK                            x       y       z     vdW  Elec       q    Type
REMARK                         _______ _______ _______ _____ _____    ______ ____
ROOT
ATOM      1  C   UNL     1      49.557   9.880  16.112  0.00  0.00    +0.000 A 
ATOM      2  C   UNL     1      48.907  10.282  14.936  0.00  0.00    +0.000 A 
ATOM      3  C   UNL     1      48.903   9.459  13.811  0.00  0.00    +0.000 A 
ATOM      4  C   UNL     1      49.525   8.205  13.856  0.00  0.00    +0.000 A 
ATOM      5  C   UNL     1      50.188   7.813  15.028  0.00  0.00    +0.000 A 
ATOM      6  C   UNL     1      50.195   8.639  16.152  0.00  0.00    +0.000 A 
ENDROOT
BRANCH   1   7
ATOM      7  C   UNL     1      49.593  10.807  17.288  0.00  0.00    +0.000 C 
BRANCH   7  11
ATOM      8  N   UNL     1      49.843   9.374  19.699  0.00  0.00    +0.000 N 
ATOM      9  C   UNL     1      50.956   9.999  19.237  0.00  0.00    +0.000 C 
ATOM     10  O   UNL     1      52.043   9.981  19.817  0.00  0.00    +0.000 OA
ATOM     11  N   UNL     1      50.802  10.679  18.070  0.00  0.00    +0.000 N 
ATOM     12  H   UNL     1      49.102   9.217  19.041  0.00  0.00    +0.000 HD
ATOM     13  H   UNL     1      51.618  11.211  17.790  0.00  0.00    +0.000 HD
BRANCH   8  14
ATOM     14  C   UNL     1      49.883   8.379  20.734  0.00  0.00    +0.000 C 
BRANCH  14  21
ATOM     15  C   UNL     1      49.479   4.242  17.742  0.00  0.00    +0.000 A 
ATOM     16  C   UNL     1      48.366   4.681  17.117  0.00  0.00    +0.000 A 
ATOM     17  N   UNL     1      47.762   5.884  17.420  0.00  0.00    +0.000 N 
ATOM     18  C   UNL     1      48.200   6.764  18.400  0.00  0.00    +0.000 A 
ATOM     19  O   UNL     1      47.556   7.764  18.701  0.00  0.00    +0.000 OA
ATOM     20  C   UNL     1      49.451   6.377  19.056  0.00  0.00    +0.000 A 
ATOM     21  C   UNL     1      50.210   7.070  20.080  0.00  0.00    +0.000 A 
ATOM     22  C   UNL     1      51.324   6.328  20.432  0.00  0.00    +0.000 A 
ATOM     23  S   UNL     1      51.466   4.872  19.569  0.00  0.00    +0.000 S 
ATOM     24  C   UNL     1      50.023   5.161  18.705  0.00  0.00    +0.000 A 
ATOM     25  H   UNL     1      46.904   6.145  16.948  0.00  0.00    +0.000 HD
BRANCH  15  27
ATOM     26  C   UNL     1      49.059   2.078  16.548  0.00  0.00    +0.000 C 
ATOM     27  C   UNL     1      50.031   2.867  17.415  0.00  0.00    +0.000 C 
ENDBRANCH  15  27
ENDBRANCH  14  21
ENDBRANCH   8  14
ENDBRANCH   7  11
ENDBRANCH   1   7
BRANCH   4  28
ATOM     28  C   UNL     1      49.519   7.304  12.651  0.00  0.00    +0.000 C 
BRANCH  28  29
ATOM     29  N   UNL     1      48.174   7.016  12.232  0.00  0.00    +0.000 N 
ATOM     30  C   UNL     1      47.355   6.212  12.981  0.00  0.00    +0.000 C 
ATOM     31  O   UNL     1      47.709   5.739  14.057  0.00  0.00    +0.000 OA
ATOM     32  H   UNL     1      47.953   7.180  11.255  0.00  0.00    +0.000 HD
BRANCH  30  33
ATOM     33  C   UNL     1      45.998   6.011  12.461  0.00  0.00    +0.000 A 
ATOM     34  C   UNL     1      45.270   7.096  11.993  0.00  0.00    +0.000 A 
ATOM     35  S   UNL     1      43.758   6.666  11.331  0.00  0.00    +0.000 S 
ATOM     36  C   UNL     1      44.000   5.024  11.702  0.00  0.00    +0.000 A 
ATOM     37  N   UNL     1      43.061   4.089  11.396  0.00  0.00    +0.000 NA
ATOM     38  C   UNL     1      43.360   2.889  11.768  0.00  0.00    +0.000 A 
ATOM     39  N   UNL     1      44.513   2.539  12.421  0.00  0.00    +0.000 N 
ATOM     40  C   UNL     1      45.500   3.445  12.730  0.00  0.00    +0.000 A 
ATOM     41  O   UNL     1      46.532   3.093  13.291  0.00  0.00    +0.000 OA
ATOM     42  C   UNL     1      45.216   4.807  12.325  0.00  0.00    +0.000 A 
ATOM     43  H   UNL     1      44.687   1.582  12.689  0.00  0.00    +0.000 HD
ENDBRANCH  30  33
ENDBRANCH  28  29
ENDBRANCH   4  28
TORSDOF 8
ENDMDL
MODEL 6
REMARK VINA RESULT:    -6.477      2.561      3.727
REMARK INTER + INTRA:         -11.229
REMARK INTER:                  -9.873
REMARK INTRA:                  -1.356
REMARK UNBOUND:                -1.723
REMARK  Name = 
REMARK  9 active torsions:
REMARK  status: ('A' for Active; 'I' for Inactive)
REMARK    1  A    between atoms: C_1  and  C_2
REMARK    2  A    between atoms: C_2  and  C_3
REMARK    3  A    between atoms: C_9  and  C_10
REMARK    4  A    between atoms: C_10  and  N_11
REMARK    5  A    between atoms: N_14  and  C_15
REMARK    6  A    between atoms: C_15  and  C_16
REMARK    7  A    between atoms: C_19  and  C_20
REMARK    8  A    between atoms: C_20  and  N_21
REMARK    9  A    between atoms: C_22  and  C_24
REMARK                            x       y       z     vdW  Elec       q    Type
REMARK                         _______ _______ _______ _____ _____    ______ ____
ROOT
ATOM      1  C   UNL     1      50.302   8.601  13.295  0.00  0.00    +0.000 A 
ATOM      2  C   UNL     1      49.448   9.572  13.841  0.00  0.00    +0.000 A 
ATOM      3  C   UNL     1      48.066   9.448  13.720  0.00  0.00    +0.000 A 
ATOM      4  C   UNL     1      47.513   8.334  13.078  0.00  0.00    +0.000 A 
ATOM      5  C   UNL     1      48.369   7.373  12.519  0.00  0.00    +0.000 A 
ATOM      6  C   UNL     1      49.754   7.500  12.636  0.00  0.00    +0.000 A 
ENDROOT
BRANCH   1   7
ATOM      7  C   UNL     1      51.785   8.787  13.391  0.00  0.00    +0.000 C 
BRANCH   7  11
ATOM      8  N   UNL     1      52.106   7.158  15.665  0.00  0.00    +0.000 N 
ATOM      9  C   UNL     1      52.375   8.480  15.814  0.00  0.00    +0.000 C 
ATOM     10  O   UNL     1      52.731   8.993  16.876  0.00  0.00    +0.000 OA
ATOM     11  N   UNL     1      52.213   9.238  14.696  0.00  0.00    +0.000 N 
ATOM     12  H   UNL     1      52.093   6.798  14.730  0.00  0.00    +0.000 HD
ATOM     13  H   UNL     1      52.330  10.233  14.849  0.00  0.00    +0.000 HD
BRANCH   8  14
ATOM     14  C   UNL     1      52.501   6.172  16.632  0.00  0.00    +0.000 C 
BRANCH  14  21
ATOM     15  C   UNL     1      48.318   6.602  19.556  0.00  0.00    +0.000 A 
ATOM     16  C   UNL     1      47.467   6.272  18.560  0.00  0.00    +0.000 A 
ATOM     17  N   UNL     1      47.890   5.985  17.279  0.00  0.00    +0.000 N 
ATOM     18  C   UNL     1      49.212   6.021  16.855  0.00  0.00    +0.000 A 
ATOM     19  O   UNL     1      49.514   5.867  15.676  0.00  0.00    +0.000 OA
ATOM     20  C   UNL     1      50.187   6.295  17.914  0.00  0.00    +0.000 A 
ATOM     21  C   UNL     1      51.634   6.363  17.840  0.00  0.00    +0.000 A 
ATOM     22  C   UNL     1      52.160   6.675  19.083  0.00  0.00    +0.000 A 
ATOM     23  S   UNL     1      50.978   6.866  20.288  0.00  0.00    +0.000 S 
ATOM     24  C   UNL     1      49.707   6.567  19.188  0.00  0.00    +0.000 A 
ATOM     25  H   UNL     1      47.205   5.784  16.560  0.00  0.00    +0.000 HD
BRANCH  15  27
ATOM     26  C   UNL     1      47.500   8.490  20.989  0.00  0.00    +0.000 C 
ATOM     27  C   UNL     1      47.768   6.992  20.915  0.00  0.00    +0.000 C 
ENDBRANCH  15  27
ENDBRANCH  14  21
ENDBRANCH   8  14
ENDBRANCH   7  11
ENDBRANCH   1   7
BRANCH   4  28
ATOM     28  C   UNL     1      46.022   8.184  12.950  0.00  0.00    +0.000 C 
BRANCH  28  29
ATOM     29  N   UNL     1      45.668   6.832  12.612  0.00  0.00    +0.000 N 
ATOM     30  C   UNL     1      44.634   6.564  11.753  0.00  0.00    +0.000 C 
ATOM     31  O   UNL     1      43.994   7.455  11.201  0.00  0.00    +0.000 OA
ATOM     32  H   UNL     1      46.003   6.102  13.232  0.00  0.00    +0.000 HD
BRANCH  30  33
ATOM     33  C   UNL     1      44.384   5.147  11.468  0.00  0.00    +0.000 A 
ATOM     34  C   UNL     1      43.669   4.376  12.373  0.00  0.00    +0.000 A 
ATOM     35  S   UNL     1      43.384   2.783  11.834  0.00  0.00    +0.000 S 
ATOM     36  C   UNL     1      44.259   3.053  10.400  0.00  0.00    +0.000 A 
ATOM     37  N   UNL     1      44.408   2.069   9.471  0.00  0.00    +0.000 NA
ATOM     38  C   UNL     1      45.125   2.402   8.451  0.00  0.00    +0.000 A 
ATOM     39  N   UNL     1      45.711   3.629   8.275  0.00  0.00    +0.000 N 
ATOM     40  C   UNL     1      45.570   4.659   9.173  0.00  0.00    +0.000 A 
ATOM     41  O   UNL     1      46.085   5.753   8.972  0.00  0.00    +0.000 OA
ATOM     42  C   UNL     1      44.764   4.339  10.335  0.00  0.00    +0.000 A 
ATOM     43  H   UNL     1      46.265   3.826   7.455  0.00  0.00    +0.000 HD
ENDBRANCH  30  33
ENDBRANCH  28  29
ENDBRANCH   4  28
TORSDOF 8
ENDMDL
MODEL 7
REMARK VINA RESULT:    -6.450      4.517      6.517
REMARK INTER + INTRA:         -11.189
REMARK INTER:                  -9.763
REMARK INTRA:                  -1.426
REMARK UNBOUND:                -1.723
REMARK  Name = 
REMARK  9 active torsions:
REMARK  status: ('A' for Active; 'I' for Inactive)
REMARK    1  A    between atoms: C_1  and  C_2
REMARK    2  A    between atoms: C_2  and  C_3
REMARK    3  A    between atoms: C_9  and  C_10
REMARK    4  A    between atoms: C_10  and  N_11
REMARK    5  A    between atoms: N_14  and  C_15
REMARK    6  A    between atoms: C_15  and  C_16
REMARK    7  A    between atoms: C_19  and  C_20
REMARK    8  A    between atoms: C_20  and  N_21
REMARK    9  A    between atoms: C_22  and  C_24
REMARK                            x       y       z     vdW  Elec       q    Type
REMARK                         _______ _______ _______ _____ _____    ______ ____
ROOT
ATOM      1  C   UNL     1      46.912   7.343  12.796  0.00  0.00    +0.000 A 
ATOM      2  C   UNL     1      48.249   7.018  12.521  0.00  0.00    +0.000 A 
ATOM      3  C   UNL     1      49.133   7.989  12.053  0.00  0.00    +0.000 A 
ATOM      4  C   UNL     1      48.700   9.309  11.880  0.00  0.00    +0.000 A 
ATOM      5  C   UNL     1      47.359   9.627  12.139  0.00  0.00    +0.000 A 
ATOM      6  C   UNL     1      46.473   8.654  12.604  0.00  0.00    +0.000 A 
ENDROOT
BRANCH   1   7
ATOM      7  C   UNL     1      45.970   6.269  13.245  0.00  0.00    +0.000 C 
BRANCH   7  11
ATOM      8  N   UNL     1      46.872   4.728  15.423  0.00  0.00    +0.000 N 
ATOM      9  C   UNL     1      46.992   4.177  14.189  0.00  0.00    +0.000 C 
ATOM     10  O   UNL     1      47.479   3.064  13.979  0.00  0.00    +0.000 OA
ATOM     11  N   UNL     1      46.544   4.945  13.160  0.00  0.00    +0.000 N 
ATOM     12  H   UNL     1      46.232   5.494  15.520  0.00  0.00    +0.000 HD
ATOM     13  H   UNL     1      46.725   4.554  12.242  0.00  0.00    +0.000 HD
BRANCH   8  14
ATOM     14  C   UNL     1      47.009   3.965  16.632  0.00  0.00    +0.000 C 
BRANCH  14  21
ATOM     15  C   UNL     1      51.861   3.545  18.218  0.00  0.00    +0.000 A 
ATOM     16  C   UNL     1      52.035   2.319  17.679  0.00  0.00    +0.000 A 
ATOM     17  N   UNL     1      51.037   1.652  16.998  0.00  0.00    +0.000 N 
ATOM     18  C   UNL     1      49.750   2.136  16.808  0.00  0.00    +0.000 A 
ATOM     19  O   UNL     1      48.874   1.448  16.293  0.00  0.00    +0.000 OA
ATOM     20  C   UNL     1      49.527   3.497  17.302  0.00  0.00    +0.000 A 
ATOM     21  C   UNL     1      48.336   4.321  17.234  0.00  0.00    +0.000 A 
ATOM     22  C   UNL     1      48.562   5.538  17.853  0.00  0.00    +0.000 A 
ATOM     23  S   UNL     1      50.133   5.696  18.478  0.00  0.00    +0.000 S 
ATOM     24  C   UNL     1      50.569   4.127  17.970  0.00  0.00    +0.000 A 
ATOM     25  H   UNL     1      51.209   0.716  16.650  0.00  0.00    +0.000 HD
BRANCH  15  27
ATOM     26  C   UNL     1      54.096   3.173  19.291  0.00  0.00    +0.000 C 
ATOM     27  C   UNL     1      52.978   4.173  19.029  0.00  0.00    +0.000 C 
ENDBRANCH  15  27
ENDBRANCH  14  21
ENDBRANCH   8  14
ENDBRANCH   7  11
ENDBRANCH   1   7
BRANCH   4  28
ATOM     28  C   UNL     1      49.647  10.367  11.385  0.00  0.00    +0.000 C 
BRANCH  28  29
ATOM     29  N   UNL     1      50.983   9.847  11.267  0.00  0.00    +0.000 N 
ATOM     30  C   UNL     1      51.808  10.239  10.245  0.00  0.00    +0.000 C 
ATOM     31  O   UNL     1      51.469  11.079   9.416  0.00  0.00    +0.000 OA
ATOM     32  H   UNL     1      51.188   8.992  11.772  0.00  0.00    +0.000 HD
BRANCH  30  33
ATOM     33  C   UNL     1      53.154   9.657  10.245  0.00  0.00    +0.000 A 
ATOM     34  C   UNL     1      54.266  10.487  10.250  0.00  0.00    +0.000 A 
ATOM     35  S   UNL     1      55.745   9.643  10.355  0.00  0.00    +0.000 S 
ATOM     36  C   UNL     1      54.951   8.138  10.336  0.00  0.00    +0.000 A 
ATOM     37  N   UNL     1      55.652   6.974  10.399  0.00  0.00    +0.000 NA
ATOM     38  C   UNL     1      54.924   5.909  10.338  0.00  0.00    +0.000 A 
ATOM     39  N   UNL     1      53.558   5.902  10.218  0.00  0.00    +0.000 N 
ATOM     40  C   UNL     1      52.807   7.052  10.175  0.00  0.00    +0.000 A 
ATOM     41  O   UNL     1      51.584   7.010  10.094  0.00  0.00    +0.000 OA
ATOM     42  C   UNL     1      53.578   8.278  10.248  0.00  0.00    +0.000 A 
ATOM     43  H   UNL     1      53.046   5.034  10.172  0.00  0.00    +0.000 HD
ENDBRANCH  30  33
ENDBRANCH  28  29
ENDBRANCH   4  28
TORSDOF 8
ENDMDL
MODEL 8
REMARK VINA RESULT:    -6.402      5.636      7.898
REMARK INTER + INTRA:         -11.119
REMARK INTER:                  -9.819
REMARK INTRA:                  -1.301
REMARK UNBOUND:                -1.723
REMARK  Name = 
REMARK  9 active torsions:
REMARK  status: ('A' for Active; 'I' for Inactive)
REMARK    1  A    between atoms: C_1  and  C_2
REMARK    2  A    between atoms: C_2  and  C_3
REMARK    3  A    between atoms: C_9  and  C_10
REMARK    4  A    between atoms: C_10  and  N_11
REMARK    5  A    between atoms: N_14  and  C_15
REMARK    6  A    between atoms: C_15  and  C_16
REMARK    7  A    between atoms: C_19  and  C_20
REMARK    8  A    between atoms: C_20  and  N_21
REMARK    9  A    between atoms: C_22  and  C_24
REMARK                            x       y       z     vdW  Elec       q    Type
REMARK                         _______ _______ _______ _____ _____    ______ ____
ROOT
ATOM      1  C   UNL     1      49.647   9.479  11.395  0.00  0.00    +0.000 A 
ATOM      2  C   UNL     1      49.406   8.144  11.754  0.00  0.00    +0.000 A 
ATOM      3  C   UNL     1      48.173   7.764  12.281  0.00  0.00    +0.000 A 
ATOM      4  C   UNL     1      47.151   8.709  12.429  0.00  0.00    +0.000 A 
ATOM      5  C   UNL     1      47.400  10.045  12.085  0.00  0.00    +0.000 A 
ATOM      6  C   UNL     1      48.636  10.427  11.561  0.00  0.00    +0.000 A 
ENDROOT
BRANCH   1   7
ATOM      7  C   UNL     1      51.000   9.871  10.882  0.00  0.00    +0.000 C 
BRANCH   7  11
ATOM      8  N   UNL     1      53.563   8.706  10.867  0.00  0.00    +0.000 N 
ATOM      9  C   UNL     1      53.229   9.441  11.958  0.00  0.00    +0.000 C 
ATOM     10  O   UNL     1      53.972   9.608  12.926  0.00  0.00    +0.000 OA
ATOM     11  N   UNL     1      51.986   9.992  11.932  0.00  0.00    +0.000 N 
ATOM     12  H   UNL     1      53.021   8.851  10.036  0.00  0.00    +0.000 HD
ATOM     13  H   UNL     1      51.723  10.460  12.792  0.00  0.00    +0.000 HD
BRANCH   8  14
ATOM     14  C   UNL     1      54.913   8.305  10.584  0.00  0.00    +0.000 C 
BRANCH  14  21
ATOM     15  C   UNL     1      54.553   5.843   6.107  0.00  0.00    +0.000 A 
ATOM     16  C   UNL     1      53.927   4.769   6.635  0.00  0.00    +0.000 A 
ATOM     17  N   UNL     1      53.635   4.659   7.979  0.00  0.00    +0.000 N 
ATOM     18  C   UNL     1      53.962   5.606   8.940  0.00  0.00    +0.000 A 
ATOM     19  O   UNL     1      53.778   5.400  10.135  0.00  0.00    +0.000 OA
ATOM     20  C   UNL     1      54.571   6.829   8.412  0.00  0.00    +0.000 A 
ATOM     21  C   UNL     1      54.994   8.027   9.112  0.00  0.00    +0.000 A 
ATOM     22  C   UNL     1      55.544   8.932   8.220  0.00  0.00    +0.000 A 
ATOM     23  S   UNL     1      55.545   8.380   6.614  0.00  0.00    +0.000 S 
ATOM     24  C   UNL     1      54.833   6.892   7.050  0.00  0.00    +0.000 A 
ATOM     25  H   UNL     1      53.201   3.812   8.328  0.00  0.00    +0.000 HD
BRANCH  15  27
ATOM     26  C   UNL     1      54.803   4.454   4.035  0.00  0.00    +0.000 C 
ATOM     27  C   UNL     1      54.920   5.849   4.635  0.00  0.00    +0.000 C 
ENDBRANCH  15  27
ENDBRANCH  14  21
ENDBRANCH   8  14
ENDBRANCH   7  11
ENDBRANCH   1   7
BRANCH   4  28
ATOM     28  C   UNL     1      45.813   8.308  12.988  0.00  0.00    +0.000 C 
BRANCH  28  29
ATOM     29  N   UNL     1      45.510   6.940  12.664  0.00  0.00    +0.000 N 
ATOM     30  C   UNL     1      44.546   6.627  11.741  0.00  0.00    +0.000 C 
ATOM     31  O   UNL     1      43.932   7.489  11.119  0.00  0.00    +0.000 OA
ATOM     32  H   UNL     1      45.812   6.235  13.328  0.00  0.00    +0.000 HD
BRANCH  30  33
ATOM     33  C   UNL     1      44.344   5.198  11.480  0.00  0.00    +0.000 A 
ATOM     34  C   UNL     1      43.647   4.420  12.394  0.00  0.00    +0.000 A 
ATOM     35  S   UNL     1      43.417   2.810  11.882  0.00  0.00    +0.000 S 
ATOM     36  C   UNL     1      44.296   3.081  10.450  0.00  0.00    +0.000 A 
ATOM     37  N   UNL     1      44.483   2.087   9.541  0.00  0.00    +0.000 NA
ATOM     38  C   UNL     1      45.198   2.423   8.521  0.00  0.00    +0.000 A 
ATOM     39  N   UNL     1      45.746   3.665   8.326  0.00  0.00    +0.000 N 
ATOM     40  C   UNL     1      45.564   4.707   9.205  0.00  0.00    +0.000 A 
ATOM     41  O   UNL     1      46.046   5.813   8.987  0.00  0.00    +0.000 OA
ATOM     42  C   UNL     1      44.760   4.382  10.366  0.00  0.00    +0.000 A 
ATOM     43  H   UNL     1      46.301   3.865   7.508  0.00  0.00    +0.000 HD
ENDBRANCH  30  33
ENDBRANCH  28  29
ENDBRANCH   4  28
TORSDOF 8
ENDMDL
MODEL 9
REMARK VINA RESULT:    -6.221      4.003      6.987
REMARK INTER + INTRA:         -10.854
REMARK INTER:                  -8.944
REMARK INTRA:                  -1.910
REMARK UNBOUND:                -1.723
REMARK  Name = 
REMARK  9 active torsions:
REMARK  status: ('A' for Active; 'I' for Inactive)
REMARK    1  A    between atoms: C_1  and  C_2
REMARK    2  A    between atoms: C_2  and  C_3
REMARK    3  A    between atoms: C_9  and  C_10
REMARK    4  A    between atoms: C_10  and  N_11
REMARK    5  A    between atoms: N_14  and  C_15
REMARK    6  A    between atoms: C_15  and  C_16
REMARK    7  A    between atoms: C_19  and  C_20
REMARK    8  A    between atoms: C_20  and  N_21
REMARK    9  A    between atoms: C_22  and  C_24
REMARK                            x       y       z     vdW  Elec       q    Type
REMARK                         _______ _______ _______ _____ _____    ______ ____
ROOT
ATOM      1  C   UNL     1      46.760   7.194  12.782  0.00  0.00    +0.000 A 
ATOM      2  C   UNL     1      47.988   6.858  12.191  0.00  0.00    +0.000 A 
ATOM      3  C   UNL     1      48.842   7.852  11.718  0.00  0.00    +0.000 A 
ATOM      4  C   UNL     1      48.495   9.201  11.856  0.00  0.00    +0.000 A 
ATOM      5  C   UNL     1      47.260   9.533  12.432  0.00  0.00    +0.000 A 
ATOM      6  C   UNL     1      46.403   8.538  12.902  0.00  0.00    +0.000 A 
ENDROOT
BRANCH   1   7
ATOM      7  C   UNL     1      45.837   6.103  13.233  0.00  0.00    +0.000 C 
BRANCH   7  11
ATOM      8  N   UNL     1      46.803   4.594  15.404  0.00  0.00    +0.000 N 
ATOM      9  C   UNL     1      46.911   4.036  14.172  0.00  0.00    +0.000 C 
ATOM     10  O   UNL     1      47.414   2.931  13.961  0.00  0.00    +0.000 OA
ATOM     11  N   UNL     1      46.433   4.790  13.146  0.00  0.00    +0.000 N 
ATOM     12  H   UNL     1      46.151   5.349  15.507  0.00  0.00    +0.000 HD
ATOM     13  H   UNL     1      46.604   4.396  12.228  0.00  0.00    +0.000 HD
BRANCH   8  14
ATOM     14  C   UNL     1      46.973   3.842  16.616  0.00  0.00    +0.000 C 
BRANCH  14  21
ATOM     15  C   UNL     1      51.785   3.890  18.370  0.00  0.00    +0.000 A 
ATOM     16  C   UNL     1      52.096   2.688  17.838  0.00  0.00    +0.000 A 
ATOM     17  N   UNL     1      51.191   1.928  17.125  0.00  0.00    +0.000 N 
ATOM     18  C   UNL     1      49.871   2.286  16.889  0.00  0.00    +0.000 A 
ATOM     19  O   UNL     1      49.084   1.518  16.345  0.00  0.00    +0.000 OA
ATOM     20  C   UNL     1      49.501   3.618  17.373  0.00  0.00    +0.000 A 
ATOM     21  C   UNL     1      48.238   4.323  17.263  0.00  0.00    +0.000 A 
ATOM     22  C   UNL     1      48.324   5.555  17.888  0.00  0.00    +0.000 A 
ATOM     23  S   UNL     1      49.850   5.864  18.567  0.00  0.00    +0.000 S 
ATOM     24  C   UNL     1      50.453   4.344  18.076  0.00  0.00    +0.000 A 
ATOM     25  H   UNL     1      51.465   1.015  16.784  0.00  0.00    +0.000 HD
BRANCH  15  27
ATOM     26  C   UNL     1      52.743   4.167  20.670  0.00  0.00    +0.000 C 
ATOM     27  C   UNL     1      52.808   4.622  19.218  0.00  0.00    +0.000 C 
ENDBRANCH  15  27
ENDBRANCH  14  21
ENDBRANCH   8  14
ENDBRANCH   7  11
ENDBRANCH   1   7
BRANCH   4  28
ATOM     28  C   UNL     1      49.414  10.283  11.358  0.00  0.00    +0.000 C 
BRANCH  28  29
ATOM     29  N   UNL     1      50.666  10.259  12.064  0.00  0.00    +0.000 N 
ATOM     30  C   UNL     1      51.810   9.800  11.463  0.00  0.00    +0.000 C 
ATOM     31  O   UNL     1      51.831   9.432  10.292  0.00  0.00    +0.000 OA
ATOM     32  H   UNL     1      50.623  10.315  13.076  0.00  0.00    +0.000 HD
BRANCH  30  33
ATOM     33  C   UNL     1      53.028   9.847  12.278  0.00  0.00    +0.000 A 
ATOM     34  C   UNL     1      54.145  10.528  11.812  0.00  0.00    +0.000 A 
ATOM     35  S   UNL     1      55.432  10.568  12.930  0.00  0.00    +0.000 S 
ATOM     36  C   UNL     1      54.564   9.626  14.049  0.00  0.00    +0.000 A 
ATOM     37  N   UNL     1      55.105   9.284  15.250  0.00  0.00    +0.000 NA
ATOM     38  C   UNL     1      54.349   8.538  15.983  0.00  0.00    +0.000 A 
ATOM     39  N   UNL     1      53.101   8.098  15.625  0.00  0.00    +0.000 N 
ATOM     40  C   UNL     1      52.504   8.437  14.433  0.00  0.00    +0.000 A 
ATOM     41  O   UNL     1      51.375   8.049  14.155  0.00  0.00    +0.000 OA
ATOM     42  C   UNL     1      53.310   9.283  13.575  0.00  0.00    +0.000 A 
ATOM     43  H   UNL     1      52.560   7.512  16.242  0.00  0.00    +0.000 HD
ENDBRANCH  30  33
ENDBRANCH  28  29
ENDBRANCH   4  28
TORSDOF 8
ENDMDL
