MODEL 1
REMARK VINA RESULT:    -8.149      0.000      0.000
REMARK INTER + INTRA:         -12.490
REMARK INTER:                 -11.483
REMARK INTRA:                  -1.007
REMARK UNBOUND:                -1.007
REMARK  Name = 
REMARK  7 active torsions:
REMARK  status: ('A' for Active; 'I' for Inactive)
REMARK    1  A    between atoms: C_2  and  C_3
REMARK    2  A    between atoms: C_7  and  C_8
REMARK    3  A    between atoms: C_8  and  O_9
REMARK    4  A    between atoms: O_9  and  C_10
REMARK    5  A    between atoms: C_13  and  C_14
REMARK    6  A    between atoms: C_14  and  N_15
REMARK    7  A    between atoms: C_16  and  C_18
REMARK                            x       y       z     vdW  Elec       q    Type
REMARK                         _______ _______ _______ _____ _____    ______ ____
ROOT
ATOM      1  C   UNL     1      45.652   4.057  12.514  0.00  0.00    +0.000 A 
ATOM      2  C   UNL     1      45.681   5.410  12.190  0.00  0.00    +0.000 A 
ATOM      3  C   UNL     1      46.472   6.265  12.968  0.00  0.00    +0.000 A 
ATOM      4  C   UNL     1      47.166   5.767  14.069  0.00  0.00    +0.000 A 
ATOM      5  C   UNL     1      47.041   4.401  14.316  0.00  0.00    +0.000 A 
ATOM      6  N   UNL     1      46.309   3.544  13.568  0.00  0.00    +0.000 NA
ENDROOT
BRANCH   1   7
ATOM      7  O   UNL     1      44.865   3.194  11.775  0.00  0.00    +0.000 OA
BRANCH   7   8
ATOM      8  C   UNL     1      44.315   3.839  10.612  0.00  0.00    +0.000 C 
BRANCH   8  13
ATOM      9  C   UNL     1      46.245   1.796   8.023  0.00  0.00    +0.000 A 
ATOM     10  C   UNL     1      46.734   2.791   7.180  0.00  0.00    +0.000 A 
ATOM     11  C   UNL     1      46.445   4.131   7.437  0.00  0.00    +0.000 A 
ATOM     12  C   UNL     1      45.663   4.477   8.543  0.00  0.00    +0.000 A 
ATOM     13  C   UNL     1      45.166   3.489   9.407  0.00  0.00    +0.000 A 
ATOM     14  C   UNL     1      45.455   2.143   9.129  0.00  0.00    +0.000 A 
BRANCH   9  16
ATOM     15  N   UNL     1      46.807  -0.699   7.579  0.00  0.00    +0.000 NA
ATOM     16  C   UNL     1      46.557   0.426   7.778  0.00  0.00    +0.000 C 
ENDBRANCH   9  16
ENDBRANCH   8  13
ENDBRANCH   7   8
ENDBRANCH   1   7
BRANCH   4  17
ATOM     17  C   UNL     1      48.013   6.611  14.987  0.00  0.00    +0.000 C 
BRANCH  17  18
ATOM     18  N   UNL     1      49.116   5.901  15.599  0.00  0.00    +0.000 N 
ATOM     19  C   UNL     1      49.325   5.912  16.955  0.00  0.00    +0.000 C 
ATOM     20  O   UNL     1      48.586   6.503  17.738  0.00  0.00    +0.000 OA
ATOM     21  H   UNL     1      49.940   5.754  15.022  0.00  0.00    +0.000 HD
BRANCH  19  22
ATOM     22  C   UNL     1      50.461   5.131  17.443  0.00  0.00    +0.000 A 
ATOM     23  C   UNL     1      51.536   5.779  18.034  0.00  0.00    +0.000 A 
ATOM     24  S   UNL     1      52.792   4.724  18.503  0.00  0.00    +0.000 S 
ATOM     25  C   UNL     1      51.948   3.367  17.914  0.00  0.00    +0.000 A 
ATOM     26  N   UNL     1      52.497   2.124  17.960  0.00  0.00    +0.000 NA
ATOM     27  C   UNL     1      51.756   1.192  17.461  0.00  0.00    +0.000 A 
ATOM     28  N   UNL     1      50.505   1.389  16.935  0.00  0.00    +0.000 N 
ATOM     29  C   UNL     1      49.889   2.616  16.921  0.00  0.00    +0.000 A 
ATOM     30  O   UNL     1      48.723   2.748  16.545  0.00  0.00    +0.000 OA
ATOM     31  C   UNL     1      50.703   3.709  17.413  0.00  0.00    +0.000 A 
ATOM     32  H   UNL     1      49.962   0.605  16.599  0.00  0.00    +0.000 HD
ENDBRANCH  19  22
ENDBRANCH  17  18
ENDBRANCH   4  17
TORSDOF 7
ENDMDL
MODEL 2
REMARK VINA RESULT:    -8.145      2.132      2.367
REMARK INTER + INTRA:         -12.485
REMARK INTER:                 -11.652
REMARK INTRA:                  -0.833
REMARK UNBOUND:                -1.007
REMARK  Name = 
REMARK  7 active torsions:
REMARK  status: ('A' for Active; 'I' for Inactive)
REMARK    1  A    between atoms: C_2  and  C_3
REMARK    2  A    between atoms: C_7  and  C_8
REMARK    3  A    between atoms: C_8  and  O_9
REMARK    4  A    between atoms: O_9  and  C_10
REMARK    5  A    between atoms: C_13  and  C_14
REMARK    6  A    between atoms: C_14  and  N_15
REMARK    7  A    between atoms: C_16  and  C_18
REMARK                            x       y       z     vdW  Elec       q    Type
REMARK                         _______ _______ _______ _____ _____    ______ ____
ROOT
ATOM      1  C   UNL     1      45.091   3.837  12.780  0.00  0.00    +0.000 A 
ATOM      2  C   UNL     1      44.759   5.187  12.705  0.00  0.00    +0.000 A 
ATOM      3  C   UNL     1      45.717   6.131  13.097  0.00  0.00    +0.000 A 
ATOM      4  C   UNL     1      46.948   5.712  13.600  0.00  0.00    +0.000 A 
ATOM      5  C   UNL     1      47.159   4.335  13.656  0.00  0.00    +0.000 A 
ATOM      6  N   UNL     1      46.267   3.399  13.259  0.00  0.00    +0.000 NA
ENDROOT
BRANCH   1   7
ATOM      7  O   UNL     1      44.158   2.884  12.418  0.00  0.00    +0.000 OA
BRANCH   7   8
ATOM      8  C   UNL     1      43.420   3.280  11.247  0.00  0.00    +0.000 C 
BRANCH   8  13
ATOM      9  C   UNL     1      45.773   2.102   8.477  0.00  0.00    +0.000 A 
ATOM     10  C   UNL     1      46.102   3.302   7.852  0.00  0.00    +0.000 A 
ATOM     11  C   UNL     1      45.567   4.503   8.317  0.00  0.00    +0.000 A 
ATOM     12  C   UNL     1      44.699   4.504   9.412  0.00  0.00    +0.000 A 
ATOM     13  C   UNL     1      44.360   3.305  10.058  0.00  0.00    +0.000 A 
ATOM     14  C   UNL     1      44.897   2.102   9.571  0.00  0.00    +0.000 A 
BRANCH   9  16
ATOM     15  N   UNL     1      46.804  -0.131   7.647  0.00  0.00    +0.000 NA
ATOM     16  C   UNL     1      46.336   0.874   8.020  0.00  0.00    +0.000 C 
ENDBRANCH   9  16
ENDBRANCH   8  13
ENDBRANCH   7   8
ENDBRANCH   1   7
BRANCH   4  17
ATOM     17  C   UNL     1      48.027   6.647  14.080  0.00  0.00    +0.000 C 
BRANCH  17  18
ATOM     18  N   UNL     1      48.200   6.668  15.517  0.00  0.00    +0.000 N 
ATOM     19  C   UNL     1      49.442   6.694  16.100  0.00  0.00    +0.000 C 
ATOM     20  O   UNL     1      50.483   6.720  15.450  0.00  0.00    +0.000 OA
ATOM     21  H   UNL     1      47.456   6.255  16.072  0.00  0.00    +0.000 HD
BRANCH  19  22
ATOM     22  C   UNL     1      49.472   6.741  17.562  0.00  0.00    +0.000 A 
ATOM     23  C   UNL     1      49.941   7.878  18.203  0.00  0.00    +0.000 A 
ATOM     24  S   UNL     1      49.948   7.746  19.904  0.00  0.00    +0.000 S 
ATOM     25  C   UNL     1      49.343   6.156  19.838  0.00  0.00    +0.000 A 
ATOM     26  N   UNL     1      49.158   5.428  20.972  0.00  0.00    +0.000 NA
ATOM     27  C   UNL     1      48.713   4.232  20.775  0.00  0.00    +0.000 A 
ATOM     28  N   UNL     1      48.418   3.704  19.544  0.00  0.00    +0.000 N 
ATOM     29  C   UNL     1      48.534   4.422  18.379  0.00  0.00    +0.000 A 
ATOM     30  O   UNL     1      48.159   3.964  17.298  0.00  0.00    +0.000 OA
ATOM     31  C   UNL     1      49.089   5.751  18.539  0.00  0.00    +0.000 A 
ATOM     32  H   UNL     1      48.032   2.773  19.465  0.00  0.00    +0.000 HD
ENDBRANCH  19  22
ENDBRANCH  17  18
ENDBRANCH   4  17
TORSDOF 7
ENDMDL
MODEL 3
REMARK VINA RESULT:    -8.121      2.576      3.878
REMARK INTER + INTRA:         -12.451
REMARK INTER:                 -11.429
REMARK INTRA:                  -1.022
REMARK UNBOUND:                -1.007
REMARK  Name = 
REMARK  7 active torsions:
REMARK  status: ('A' for Active; 'I' for Inactive)
REMARK    1  A    between atoms: C_2  and  C_3
REMARK    2  A    between atoms: C_7  and  C_8
REMARK    3  A    between atoms: C_8  and  O_9
REMARK    4  A    between atoms: O_9  and  C_10
REMARK    5  A    between atoms: C_13  and  C_14
REMARK    6  A    between atoms: C_14  and  N_15
REMARK    7  A    between atoms: C_16  and  C_18
REMARK                            x       y       z     vdW  Elec       q    Type
REMARK                         _______ _______ _______ _____ _____    ______ ____
ROOT
ATOM      1  C   UNL     1      45.190   3.824  12.573  0.00  0.00    +0.000 A 
ATOM      2  C   UNL     1      45.021   5.205  12.577  0.00  0.00    +0.000 A 
ATOM      3  C   UNL     1      46.012   5.997  13.171  0.00  0.00    +0.000 A 
ATOM      4  C   UNL     1      47.109   5.397  13.787  0.00  0.00    +0.000 A 
ATOM      5  C   UNL     1      47.160   4.005  13.747  0.00  0.00    +0.000 A 
ATOM      6  N   UNL     1      46.235   3.214  13.157  0.00  0.00    +0.000 NA
ENDROOT
BRANCH   1   7
ATOM      7  O   UNL     1      44.218   3.018  12.011  0.00  0.00    +0.000 OA
BRANCH   7   8
ATOM      8  C   UNL     1      43.659   3.609  10.822  0.00  0.00    +0.000 C 
BRANCH   8  13
ATOM      9  C   UNL     1      45.986   1.998   8.256  0.00  0.00    +0.000 A 
ATOM     10  C   UNL     1      46.472   3.110   7.573  0.00  0.00    +0.000 A 
ATOM     11  C   UNL     1      46.053   4.391   7.932  0.00  0.00    +0.000 A 
ATOM     12  C   UNL     1      45.144   4.560   8.980  0.00  0.00    +0.000 A 
ATOM     13  C   UNL     1      44.647   3.452   9.683  0.00  0.00    +0.000 A 
ATOM     14  C   UNL     1      45.068   2.168   9.303  0.00  0.00    +0.000 A 
BRANCH   9  16
ATOM     15  N   UNL     1      46.787  -0.389   7.624  0.00  0.00    +0.000 NA
ATOM     16  C   UNL     1      46.430   0.688   7.908  0.00  0.00    +0.000 C 
ENDBRANCH   9  16
ENDBRANCH   8  13
ENDBRANCH   7   8
ENDBRANCH   1   7
BRANCH   4  17
ATOM     17  C   UNL     1      48.207   6.159  14.484  0.00  0.00    +0.000 C 
BRANCH  17  18
ATOM     18  N   UNL     1      47.988   6.356  15.901  0.00  0.00    +0.000 N 
ATOM     19  C   UNL     1      48.848   5.856  16.847  0.00  0.00    +0.000 C 
ATOM     20  O   UNL     1      49.862   5.227  16.559  0.00  0.00    +0.000 OA
ATOM     21  H   UNL     1      47.026   6.490  16.200  0.00  0.00    +0.000 HD
BRANCH  19  22
ATOM     22  C   UNL     1      48.521   6.152  18.242  0.00  0.00    +0.000 A 
ATOM     23  C   UNL     1      48.572   5.139  19.189  0.00  0.00    +0.000 A 
ATOM     24  S   UNL     1      48.118   5.647  20.752  0.00  0.00    +0.000 S 
ATOM     25  C   UNL     1      47.821   7.234  20.211  0.00  0.00    +0.000 A 
ATOM     26  N   UNL     1      47.349   8.187  21.058  0.00  0.00    +0.000 NA
ATOM     27  C   UNL     1      47.149   9.339  20.511  0.00  0.00    +0.000 A 
ATOM     28  N   UNL     1      47.398   9.630  19.193  0.00  0.00    +0.000 N 
ATOM     29  C   UNL     1      47.929   8.714  18.318  0.00  0.00    +0.000 A 
ATOM     30  O   UNL     1      48.247   9.029  17.169  0.00  0.00    +0.000 OA
ATOM     31  C   UNL     1      48.114   7.386  18.867  0.00  0.00    +0.000 A 
ATOM     32  H   UNL     1      47.259  10.566  18.840  0.00  0.00    +0.000 HD
ENDBRANCH  19  22
ENDBRANCH  17  18
ENDBRANCH   4  17
TORSDOF 7
ENDMDL
MODEL 4
REMARK VINA RESULT:    -7.400      2.338      2.754
REMARK INTER + INTRA:         -11.435
REMARK INTER:                 -10.347
REMARK INTRA:                  -1.087
REMARK UNBOUND:                -1.007
REMARK  Name = 
REMARK  7 active torsions:
REMARK  status: ('A' for Active; 'I' for Inactive)
REMARK    1  A    between atoms: C_2  and  C_3
REMARK    2  A    between atoms: C_7  and  C_8
REMARK    3  A    between atoms: C_8  and  O_9
REMARK    4  A    between atoms: O_9  and  C_10
REMARK    5  A    between atoms: C_13  and  C_14
REMARK    6  A    between atoms: C_14  and  N_15
REMARK    7  A    between atoms: C_16  and  C_18
REMARK                            x       y       z     vdW  Elec       q    Type
REMARK                         _______ _______ _______ _____ _____    ______ ____
ROOT
ATOM      1  C   UNL     1      44.790   5.623  11.043  0.00  0.00    +0.000 A 
ATOM      2  C   UNL     1      44.139   6.643  11.729  0.00  0.00    +0.000 A 
ATOM      3  C   UNL     1      44.908   7.520  12.506  0.00  0.00    +0.000 A 
ATOM      4  C   UNL     1      46.284   7.329  12.621  0.00  0.00    +0.000 A 
ATOM      5  C   UNL     1      46.823   6.257  11.912  0.00  0.00    +0.000 A 
ATOM      6  N   UNL     1      46.114   5.411  11.132  0.00  0.00    +0.000 NA
ENDROOT
BRANCH   1   7
ATOM      7  O   UNL     1      44.054   4.731  10.285  0.00  0.00    +0.000 OA
BRANCH   7   8
ATOM      8  C   UNL     1      44.453   4.754   8.902  0.00  0.00    +0.000 C 
BRANCH   8  13
ATOM      9  C   UNL     1      46.706   2.145   7.255  0.00  0.00    +0.000 A 
ATOM     10  C   UNL     1      46.275   0.969   7.863  0.00  0.00    +0.000 A 
ATOM     11  C   UNL     1      45.253   1.006   8.812  0.00  0.00    +0.000 A 
ATOM     12  C   UNL     1      44.661   2.225   9.154  0.00  0.00    +0.000 A 
ATOM     13  C   UNL     1      45.079   3.420   8.548  0.00  0.00    +0.000 A 
ATOM     14  C   UNL     1      46.116   3.369   7.603  0.00  0.00    +0.000 A 
BRANCH   9  16
ATOM     15  N   UNL     1      48.579   2.075   5.459  0.00  0.00    +0.000 NA
ATOM     16  C   UNL     1      47.734   2.110   6.267  0.00  0.00    +0.000 C 
ENDBRANCH   9  16
ENDBRANCH   8  13
ENDBRANCH   7   8
ENDBRANCH   1   7
BRANCH   4  17
ATOM     17  C   UNL     1      47.189   8.194  13.459  0.00  0.00    +0.000 C 
BRANCH  17  18
ATOM     18  N   UNL     1      47.624   7.579  14.694  0.00  0.00    +0.000 N 
ATOM     19  C   UNL     1      48.878   7.039  14.836  0.00  0.00    +0.000 C 
ATOM     20  O   UNL     1      49.716   7.055  13.939  0.00  0.00    +0.000 OA
ATOM     21  H   UNL     1      46.900   7.185  15.288  0.00  0.00    +0.000 HD
BRANCH  19  22
ATOM     22  C   UNL     1      49.196   6.472  16.147  0.00  0.00    +0.000 A 
ATOM     23  C   UNL     1      50.148   7.087  16.948  0.00  0.00    +0.000 A 
ATOM     24  S   UNL     1      50.428   6.272  18.419  0.00  0.00    +0.000 S 
ATOM     25  C   UNL     1      49.299   5.059  18.026  0.00  0.00    +0.000 A 
ATOM     26  N   UNL     1      49.085   4.004  18.857  0.00  0.00    +0.000 NA
ATOM     27  C   UNL     1      48.218   3.150  18.426  0.00  0.00    +0.000 A 
ATOM     28  N   UNL     1      47.530   3.266  17.245  0.00  0.00    +0.000 N 
ATOM     29  C   UNL     1      47.672   4.343  16.405  0.00  0.00    +0.000 A 
ATOM     30  O   UNL     1      46.963   4.480  15.406  0.00  0.00    +0.000 OA
ATOM     31  C   UNL     1      48.679   5.301  16.812  0.00  0.00    +0.000 A 
ATOM     32  H   UNL     1      46.833   2.581  16.989  0.00  0.00    +0.000 HD
ENDBRANCH  19  22
ENDBRANCH  17  18
ENDBRANCH   4  17
TORSDOF 7
ENDMDL
MODEL 5
REMARK VINA RESULT:    -7.377      3.341      8.318
REMARK INTER + INTRA:         -11.403
REMARK INTER:                 -10.255
REMARK INTRA:                  -1.148
REMARK UNBOUND:                -1.007
REMARK  Name = 
REMARK  7 active torsions:
REMARK  status: ('A' for Active; 'I' for Inactive)
REMARK    1  A    between atoms: C_2  and  C_3
REMARK    2  A    between atoms: C_7  and  C_8
REMARK    3  A    between atoms: C_8  and  O_9
REMARK    4  A    between atoms: O_9  and  C_10
REMARK    5  A    between atoms: C_13  and  C_14
REMARK    6  A    between atoms: C_14  and  N_15
REMARK    7  A    between atoms: C_16  and  C_18
REMARK                            x       y       z     vdW  Elec       q    Type
REMARK                         _______ _______ _______ _____ _____    ______ ____
ROOT
ATOM      1  C   UNL     1      49.524   7.447  16.347  0.00  0.00    +0.000 A 
ATOM      2  C   UNL     1      48.693   8.558  16.233  0.00  0.00    +0.000 A 
ATOM      3  C   UNL     1      48.163   8.868  14.973  0.00  0.00    +0.000 A 
ATOM      4  C   UNL     1      48.513   8.104  13.861  0.00  0.00    +0.000 A 
ATOM      5  C   UNL     1      49.375   7.032  14.089  0.00  0.00    +0.000 A 
ATOM      6  N   UNL     1      49.880   6.690  15.296  0.00  0.00    +0.000 NA
ENDROOT
BRANCH   1   7
ATOM      7  O   UNL     1      50.075   7.130  17.574  0.00  0.00    +0.000 OA
BRANCH   7   8
ATOM      8  C   UNL     1      49.107   6.528  18.453  0.00  0.00    +0.000 C 
BRANCH   8  13
ATOM      9  C   UNL     1      49.488   2.883  17.372  0.00  0.00    +0.000 A 
ATOM     10  C   UNL     1      48.188   2.559  16.995  0.00  0.00    +0.000 A 
ATOM     11  C   UNL     1      47.174   3.513  17.086  0.00  0.00    +0.000 A 
ATOM     12  C   UNL     1      47.463   4.796  17.558  0.00  0.00    +0.000 A 
ATOM     13  C   UNL     1      48.768   5.143  17.938  0.00  0.00    +0.000 A 
ATOM     14  C   UNL     1      49.777   4.169  17.851  0.00  0.00    +0.000 A 
BRANCH   9  16
ATOM     15  N   UNL     1      51.394   1.132  17.168  0.00  0.00    +0.000 NA
ATOM     16  C   UNL     1      50.533   1.919  17.257  0.00  0.00    +0.000 C 
ENDBRANCH   9  16
ENDBRANCH   8  13
ENDBRANCH   7   8
ENDBRANCH   1   7
BRANCH   4  17
ATOM     17  C   UNL     1      48.026   8.378  12.462  0.00  0.00    +0.000 C 
BRANCH  17  18
ATOM     18  N   UNL     1      47.426   7.235  11.806  0.00  0.00    +0.000 N 
ATOM     19  C   UNL     1      46.068   7.033  11.794  0.00  0.00    +0.000 C 
ATOM     20  O   UNL     1      45.275   7.810  12.318  0.00  0.00    +0.000 OA
ATOM     21  H   UNL     1      48.001   6.401  11.725  0.00  0.00    +0.000 HD
BRANCH  19  22
ATOM     22  C   UNL     1      45.594   5.853  11.072  0.00  0.00    +0.000 A 
ATOM     23  C   UNL     1      45.842   5.734   9.712  0.00  0.00    +0.000 A 
ATOM     24  S   UNL     1      45.182   4.321   9.022  0.00  0.00    +0.000 S 
ATOM     25  C   UNL     1      44.526   3.831  10.515  0.00  0.00    +0.000 A 
ATOM     26  N   UNL     1      43.778   2.700  10.615  0.00  0.00    +0.000 NA
ATOM     27  C   UNL     1      43.327   2.459  11.800  0.00  0.00    +0.000 A 
ATOM     28  N   UNL     1      43.573   3.239  12.901  0.00  0.00    +0.000 N 
ATOM     29  C   UNL     1      44.370   4.356  12.857  0.00  0.00    +0.000 A 
ATOM     30  O   UNL     1      44.666   4.978  13.879  0.00  0.00    +0.000 OA
ATOM     31  C   UNL     1      44.851   4.707  11.536  0.00  0.00    +0.000 A 
ATOM     32  H   UNL     1      43.223   2.967  13.809  0.00  0.00    +0.000 HD
ENDBRANCH  19  22
ENDBRANCH  17  18
ENDBRANCH   4  17
TORSDOF 7
ENDMDL
MODEL 6
REMARK VINA RESULT:    -7.330      4.662      5.397
REMARK INTER + INTRA:         -11.336
REMARK INTER:                  -9.973
REMARK INTRA:                  -1.364
REMARK UNBOUND:                -1.007
REMARK  Name = 
REMARK  7 active torsions:
REMARK  status: ('A' for Active; 'I' for Inactive)
REMARK    1  A    between atoms: C_2  and  C_3
REMARK    2  A    between atoms: C_7  and  C_8
REMARK    3  A    between atoms: C_8  and  O_9
REMARK    4  A    between atoms: O_9  and  C_10
REMARK    5  A    between atoms: C_13  and  C_14
REMARK    6  A    between atoms: C_14  and  N_15
REMARK    7  A    between atoms: C_16  and  C_18
REMARK                            x       y       z     vdW  Elec       q    Type
REMARK                         _______ _______ _______ _____ _____    ______ ____
ROOT
ATOM      1  C   UNL     1      45.121   4.978  11.808  0.00  0.00    +0.000 A 
ATOM      2  C   UNL     1      44.428   6.134  11.463  0.00  0.00    +0.000 A 
ATOM      3  C   UNL     1      44.873   7.358  11.980  0.00  0.00    +0.000 A 
ATOM      4  C   UNL     1      45.953   7.394  12.859  0.00  0.00    +0.000 A 
ATOM      5  C   UNL     1      46.554   6.171  13.156  0.00  0.00    +0.000 A 
ATOM      6  N   UNL     1      46.167   4.978  12.652  0.00  0.00    +0.000 NA
ENDROOT
BRANCH   1   7
ATOM      7  O   UNL     1      44.693   3.755  11.328  0.00  0.00    +0.000 OA
BRANCH   7   8
ATOM      8  C   UNL     1      44.111   3.873  10.016  0.00  0.00    +0.000 C 
BRANCH   8  13
ATOM      9  C   UNL     1      46.332   1.637   7.856  0.00  0.00    +0.000 A 
ATOM     10  C   UNL     1      47.009   2.572   7.078  0.00  0.00    +0.000 A 
ATOM     11  C   UNL     1      46.755   3.934   7.242  0.00  0.00    +0.000 A 
ATOM     12  C   UNL     1      45.820   4.361   8.188  0.00  0.00    +0.000 A 
ATOM     13  C   UNL     1      45.131   3.434   8.984  0.00  0.00    +0.000 A 
ATOM     14  C   UNL     1      45.388   2.066   8.800  0.00  0.00    +0.000 A 
BRANCH   9  16
ATOM     15  N   UNL     1      46.831  -0.896   7.583  0.00  0.00    +0.000 NA
ATOM     16  C   UNL     1      46.605   0.245   7.709  0.00  0.00    +0.000 C 
ENDBRANCH   9  16
ENDBRANCH   8  13
ENDBRANCH   7   8
ENDBRANCH   1   7
BRANCH   4  17
ATOM     17  C   UNL     1      46.483   8.653  13.495  0.00  0.00    +0.000 C 
BRANCH  17  18
ATOM     18  N   UNL     1      47.858   8.956  13.159  0.00  0.00    +0.000 N 
ATOM     19  C   UNL     1      48.186   9.887  12.205  0.00  0.00    +0.000 C 
ATOM     20  O   UNL     1      47.343  10.534  11.589  0.00  0.00    +0.000 OA
ATOM     21  H   UNL     1      48.539   8.218  13.313  0.00  0.00    +0.000 HD
BRANCH  19  22
ATOM     22  C   UNL     1      49.614  10.115  11.984  0.00  0.00    +0.000 A 
ATOM     23  C   UNL     1      50.133  11.395  12.115  0.00  0.00    +0.000 A 
ATOM     24  S   UNL     1      51.803  11.488  11.779  0.00  0.00    +0.000 S 
ATOM     25  C   UNL     1      51.882   9.824  11.428  0.00  0.00    +0.000 A 
ATOM     26  N   UNL     1      53.043   9.249  11.014  0.00  0.00    +0.000 NA
ATOM     27  C   UNL     1      52.955   7.985  10.764  0.00  0.00    +0.000 A 
ATOM     28  N   UNL     1      51.813   7.239  10.908  0.00  0.00    +0.000 N 
ATOM     29  C   UNL     1      50.635   7.767  11.378  0.00  0.00    +0.000 A 
ATOM     30  O   UNL     1      49.655   7.056  11.604  0.00  0.00    +0.000 OA
ATOM     31  C   UNL     1      50.663   9.196  11.615  0.00  0.00    +0.000 A 
ATOM     32  H   UNL     1      51.826   6.244  10.735  0.00  0.00    +0.000 HD
ENDBRANCH  19  22
ENDBRANCH  17  18
ENDBRANCH   4  17
TORSDOF 7
ENDMDL
MODEL 7
REMARK VINA RESULT:    -7.258      3.058      8.630
REMARK INTER + INTRA:         -11.236
REMARK INTER:                 -10.103
REMARK INTRA:                  -1.133
REMARK UNBOUND:                -1.007
REMARK  Name = 
REMARK  7 active torsions:
REMARK  status: ('A' for Active; 'I' for Inactive)
REMARK    1  A    between atoms: C_2  and  C_3
REMARK    2  A    between atoms: C_7  and  C_8
REMARK    3  A    between atoms: C_8  and  O_9
REMARK    4  A    between atoms: O_9  and  C_10
REMARK    5  A    between atoms: C_13  and  C_14
REMARK    6  A    between atoms: C_14  and  N_15
REMARK    7  A    between atoms: C_16  and  C_18
REMARK                            x       y       z     vdW  Elec       q    Type
REMARK                         _______ _______ _______ _____ _____    ______ ____
ROOT
ATOM      1  C   UNL     1      49.443   7.518  15.801  0.00  0.00    +0.000 A 
ATOM      2  C   UNL     1      48.525   8.555  15.668  0.00  0.00    +0.000 A 
ATOM      3  C   UNL     1      47.795   8.650  14.477  0.00  0.00    +0.000 A 
ATOM      4  C   UNL     1      48.032   7.751  13.437  0.00  0.00    +0.000 A 
ATOM      5  C   UNL     1      48.995   6.771  13.672  0.00  0.00    +0.000 A 
ATOM      6  N   UNL     1      49.696   6.635  14.820  0.00  0.00    +0.000 NA
ENDROOT
BRANCH   1   7
ATOM      7  O   UNL     1      50.191   7.412  16.959  0.00  0.00    +0.000 OA
BRANCH   7   8
ATOM      8  C   UNL     1      49.396   6.948  18.066  0.00  0.00    +0.000 C 
BRANCH   8  13
ATOM      9  C   UNL     1      49.490   3.184  17.417  0.00  0.00    +0.000 A 
ATOM     10  C   UNL     1      48.138   2.886  17.267  0.00  0.00    +0.000 A 
ATOM     11  C   UNL     1      47.182   3.896  17.375  0.00  0.00    +0.000 A 
ATOM     12  C   UNL     1      47.581   5.210  17.634  0.00  0.00    +0.000 A 
ATOM     13  C   UNL     1      48.939   5.531  17.783  0.00  0.00    +0.000 A 
ATOM     14  C   UNL     1      49.889   4.502  17.683  0.00  0.00    +0.000 A 
BRANCH   9  16
ATOM     15  N   UNL     1      51.277   1.318  17.167  0.00  0.00    +0.000 NA
ATOM     16  C   UNL     1      50.473   2.160  17.283  0.00  0.00    +0.000 C 
ENDBRANCH   9  16
ENDBRANCH   8  13
ENDBRANCH   7   8
ENDBRANCH   1   7
BRANCH   4  17
ATOM     17  C   UNL     1      47.326   7.793  12.107  0.00  0.00    +0.000 C 
BRANCH  17  18
ATOM     18  N   UNL     1      46.662   6.558  11.747  0.00  0.00    +0.000 N 
ATOM     19  C   UNL     1      45.312   6.381  11.923  0.00  0.00    +0.000 C 
ATOM     20  O   UNL     1      44.578   7.255  12.377  0.00  0.00    +0.000 OA
ATOM     21  H   UNL     1      47.227   5.714  11.762  0.00  0.00    +0.000 HD
BRANCH  19  22
ATOM     22  C   UNL     1      44.765   5.094  11.493  0.00  0.00    +0.000 A 
ATOM     23  C   UNL     1      43.940   4.378  12.348  0.00  0.00    +0.000 A 
ATOM     24  S   UNL     1      43.429   2.883  11.705  0.00  0.00    +0.000 S 
ATOM     25  C   UNL     1      44.311   3.134  10.270  0.00  0.00    +0.000 A 
ATOM     26  N   UNL     1      44.345   2.190   9.293  0.00  0.00    +0.000 NA
ATOM     27  C   UNL     1      45.067   2.503   8.270  0.00  0.00    +0.000 A 
ATOM     28  N   UNL     1      45.745   3.687   8.128  0.00  0.00    +0.000 N 
ATOM     29  C   UNL     1      45.691   4.691   9.063  0.00  0.00    +0.000 A 
ATOM     30  O   UNL     1      46.217   5.788   8.863  0.00  0.00    +0.000 OA
ATOM     31  C   UNL     1      44.943   4.366  10.260  0.00  0.00    +0.000 A 
ATOM     32  H   UNL     1      46.258   3.885   7.280  0.00  0.00    +0.000 HD
ENDBRANCH  19  22
ENDBRANCH  17  18
ENDBRANCH   4  17
TORSDOF 7
ENDMDL
MODEL 8
REMARK VINA RESULT:    -7.038      1.569      2.123
REMARK INTER + INTRA:         -10.925
REMARK INTER:                  -9.836
REMARK INTRA:                  -1.089
REMARK UNBOUND:                -1.007
REMARK  Name = 
REMARK  7 active torsions:
REMARK  status: ('A' for Active; 'I' for Inactive)
REMARK    1  A    between atoms: C_2  and  C_3
REMARK    2  A    between atoms: C_7  and  C_8
REMARK    3  A    between atoms: C_8  and  O_9
REMARK    4  A    between atoms: O_9  and  C_10
REMARK    5  A    between atoms: C_13  and  C_14
REMARK    6  A    between atoms: C_14  and  N_15
REMARK    7  A    between atoms: C_16  and  C_18
REMARK                            x       y       z     vdW  Elec       q    Type
REMARK                         _______ _______ _______ _____ _____    ______ ____
ROOT
ATOM      1  C   UNL     1      45.929   6.466  12.831  0.00  0.00    +0.000 A 
ATOM      2  C   UNL     1      46.798   5.513  13.353  0.00  0.00    +0.000 A 
ATOM      3  C   UNL     1      47.876   5.950  14.134  0.00  0.00    +0.000 A 
ATOM      4  C   UNL     1      48.090   7.313  14.329  0.00  0.00    +0.000 A 
ATOM      5  C   UNL     1      47.172   8.177  13.735  0.00  0.00    +0.000 A 
ATOM      6  N   UNL     1      46.106   7.787  13.000  0.00  0.00    +0.000 NA
ENDROOT
BRANCH   1   7
ATOM      7  O   UNL     1      44.868   6.064  12.041  0.00  0.00    +0.000 OA
BRANCH   7   8
ATOM      8  C   UNL     1      45.171   6.192  10.639  0.00  0.00    +0.000 C 
BRANCH   8  13
ATOM      9  C   UNL     1      45.645   3.351   8.129  0.00  0.00    +0.000 A 
ATOM     10  C   UNL     1      44.976   2.302   8.754  0.00  0.00    +0.000 A 
ATOM     11  C   UNL     1      44.366   2.500   9.992  0.00  0.00    +0.000 A 
ATOM     12  C   UNL     1      44.426   3.753  10.608  0.00  0.00    +0.000 A 
ATOM     13  C   UNL     1      45.091   4.824   9.991  0.00  0.00    +0.000 A 
ATOM     14  C   UNL     1      45.711   4.607   8.750  0.00  0.00    +0.000 A 
BRANCH   9  16
ATOM     15  N   UNL     1      46.752   3.005   5.807  0.00  0.00    +0.000 NA
ATOM     16  C   UNL     1      46.250   3.161   6.851  0.00  0.00    +0.000 C 
ENDBRANCH   9  16
ENDBRANCH   8  13
ENDBRANCH   7   8
ENDBRANCH   1   7
BRANCH   4  17
ATOM     17  C   UNL     1      49.239   7.883  15.121  0.00  0.00    +0.000 C 
BRANCH  17  18
ATOM     18  N   UNL     1      50.128   6.887  15.679  0.00  0.00    +0.000 N 
ATOM     19  C   UNL     1      50.088   6.538  17.006  0.00  0.00    +0.000 C 
ATOM     20  O   UNL     1      49.291   7.029  17.801  0.00  0.00    +0.000 OA
ATOM     21  H   UNL     1      51.022   6.760  15.212  0.00  0.00    +0.000 HD
BRANCH  19  22
ATOM     22  C   UNL     1      51.025   5.499  17.432  0.00  0.00    +0.000 A 
ATOM     23  C   UNL     1      52.263   5.859  17.947  0.00  0.00    +0.000 A 
ATOM     24  S   UNL     1      53.245   4.524  18.351  0.00  0.00    +0.000 S 
ATOM     25  C   UNL     1      52.057   3.421  17.832  0.00  0.00    +0.000 A 
ATOM     26  N   UNL     1      52.284   2.081  17.860  0.00  0.00    +0.000 NA
ATOM     27  C   UNL     1      51.306   1.362  17.419  0.00  0.00    +0.000 A 
ATOM     28  N   UNL     1      50.111   1.864  16.969  0.00  0.00    +0.000 N 
ATOM     29  C   UNL     1      49.818   3.205  16.978  0.00  0.00    +0.000 A 
ATOM     30  O   UNL     1      48.699   3.623  16.674  0.00  0.00    +0.000 OA
ATOM     31  C   UNL     1      50.906   4.061  17.406  0.00  0.00    +0.000 A 
ATOM     32  H   UNL     1      49.372   1.240  16.678  0.00  0.00    +0.000 HD
ENDBRANCH  19  22
ENDBRANCH  17  18
ENDBRANCH   4  17
TORSDOF 7
ENDMDL
MODEL 9
REMARK VINA RESULT:    -7.013      3.885      9.356
REMARK INTER + INTRA:         -10.890
REMARK INTER:                 -10.029
REMARK INTRA:                  -0.861
REMARK UNBOUND:                -1.007
REMARK  Name = 
REMARK  7 active torsions:
REMARK  status: ('A' for Active; 'I' for Inactive)
REMARK    1  A    between atoms: C_2  and  C_3
REMARK    2  A    between atoms: C_7  and  C_8
REMARK    3  A    between atoms: C_8  and  O_9
REMARK    4  A    between atoms: O_9  and  C_10
REMARK    5  A    between atoms: C_13  and  C_14
REMARK    6  A    between atoms: C_14  and  N_15
REMARK    7  A    between atoms: C_16  and  C_18
REMARK                            x       y       z     vdW  Elec       q    Type
REMARK                         _______ _______ _______ _____ _____    ______ ____
ROOT
ATOM      1  C   UNL     1      51.351   3.602  17.714  0.00  0.00    +0.000 A 
ATOM      2  C   UNL     1      50.809   2.373  17.352  0.00  0.00    +0.000 A 
ATOM      3  C   UNL     1      49.444   2.311  17.039  0.00  0.00    +0.000 A 
ATOM      4  C   UNL     1      48.651   3.453  17.145  0.00  0.00    +0.000 A 
ATOM      5  C   UNL     1      49.296   4.622  17.545  0.00  0.00    +0.000 A 
ATOM      6  N   UNL     1      50.615   4.721  17.825  0.00  0.00    +0.000 NA
ENDROOT
BRANCH   1   7
ATOM      7  O   UNL     1      52.690   3.688  18.045  0.00  0.00    +0.000 OA
BRANCH   7   8
ATOM      8  C   UNL     1      53.126   2.539  18.797  0.00  0.00    +0.000 C 
BRANCH   8  13
ATOM      9  C   UNL     1      54.901  -0.476  17.262  0.00  0.00    +0.000 A 
ATOM     10  C   UNL     1      55.760   0.132  16.349  0.00  0.00    +0.000 A 
ATOM     11  C   UNL     1      55.774   1.520  16.219  0.00  0.00    +0.000 A 
ATOM     12  C   UNL     1      54.925   2.304  17.005  0.00  0.00    +0.000 A 
ATOM     13  C   UNL     1      54.057   1.711  17.933  0.00  0.00    +0.000 A 
ATOM     14  C   UNL     1      54.045   0.311  18.046  0.00  0.00    +0.000 A 
BRANCH   9  16
ATOM     15  N   UNL     1      54.905  -3.056  17.541  0.00  0.00    +0.000 NA
ATOM     16  C   UNL     1      54.900  -1.894  17.416  0.00  0.00    +0.000 C 
ENDBRANCH   9  16
ENDBRANCH   8  13
ENDBRANCH   7   8
ENDBRANCH   1   7
BRANCH   4  17
ATOM     17  C   UNL     1      47.170   3.481  16.867  0.00  0.00    +0.000 C 
BRANCH  17  18
ATOM     18  N   UNL     1      46.774   4.429  15.847  0.00  0.00    +0.000 N 
ATOM     19  C   UNL     1      46.847   4.130  14.509  0.00  0.00    +0.000 C 
ATOM     20  O   UNL     1      47.232   3.042  14.089  0.00  0.00    +0.000 OA
ATOM     21  H   UNL     1      46.842   5.413  16.088  0.00  0.00    +0.000 HD
BRANCH  19  22
ATOM     22  C   UNL     1      46.390   5.170  13.587  0.00  0.00    +0.000 A 
ATOM     23  C   UNL     1      47.203   6.263  13.328  0.00  0.00    +0.000 A 
ATOM     24  S   UNL     1      46.498   7.399  12.268  0.00  0.00    +0.000 S 
ATOM     25  C   UNL     1      45.074   6.475  12.136  0.00  0.00    +0.000 A 
ATOM     26  N   UNL     1      44.019   6.914  11.399  0.00  0.00    +0.000 NA
ATOM     27  C   UNL     1      42.998   6.124  11.403  0.00  0.00    +0.000 A 
ATOM     28  N   UNL     1      42.943   4.922  12.063  0.00  0.00    +0.000 N 
ATOM     29  C   UNL     1      44.006   4.415  12.770  0.00  0.00    +0.000 A 
ATOM     30  O   UNL     1      43.972   3.285  13.261  0.00  0.00    +0.000 OA
ATOM     31  C   UNL     1      45.156   5.291  12.849  0.00  0.00    +0.000 A 
ATOM     32  H   UNL     1      42.126   4.334  11.988  0.00  0.00    +0.000 HD
ENDBRANCH  19  22
ENDBRANCH  17  18
ENDBRANCH   4  17
TORSDOF 7
ENDMDL
