MODEL 1
REMARK VINA RESULT:    -7.479      0.000      0.000
REMARK INTER + INTRA:         -14.264
REMARK INTER:                 -12.507
REMARK INTRA:                  -1.757
REMARK UNBOUND:                -1.757
REMARK  Name = 
REMARK  12 active torsions:
REMARK  status: ('A' for Active; 'I' for Inactive)
REMARK    1  A    between atoms: N_1  and  C_2
REMARK    2  A    between atoms: C_2  and  C_3
REMARK    3  A    between atoms: C_3  and  N_4
REMARK    4  A    between atoms: N_4  and  C_5
REMARK    5  A    between atoms: C_5  and  C_6
REMARK    6  A    between atoms: C_8  and  C_9
REMARK    7  A    between atoms: C_9  and  N_10
REMARK    8  A    between atoms: C_11  and  C_13
REMARK    9  A    between atoms: C_25  and  C_26
REMARK   10  A    between atoms: C_26  and  N_27
REMARK   11  A    between atoms: N_27  and  C_28
REMARK   12  A    between atoms: C_28  and  C_29
REMARK                            x       y       z     vdW  Elec       q    Type
REMARK                         _______ _______ _______ _____ _____    ______ ____
ROOT
ATOM      1  C   UNL     1      45.799   4.942  12.841  0.00  0.00    +0.000 A 
ATOM      2  C   UNL     1      46.160   6.268  13.169  0.00  0.00    +0.000 A 
ATOM      3  C   UNL     1      45.617   7.379  12.511  0.00  0.00    +0.000 A 
ATOM      4  C   UNL     1      44.675   7.162  11.508  0.00  0.00    +0.000 A 
ATOM      5  C   UNL     1      44.268   5.862  11.197  0.00  0.00    +0.000 A 
ATOM      6  C   UNL     1      44.789   4.737  11.872  0.00  0.00    +0.000 A 
ENDROOT
BRANCH   1   7
ATOM      7  C   UNL     1      46.530   3.835  13.578  0.00  0.00    +0.000 C 
BRANCH   7   8
ATOM      8  N   UNL     1      46.770   4.157  14.987  0.00  0.00    +0.000 NA
ATOM      9  H   UNL     1      47.179   5.085  15.051  0.00  0.00    +0.000 HD
BRANCH   8  10
ATOM     10  C   UNL     1      47.736   3.215  15.572  0.00  0.00    +0.000 C 
BRANCH  10  11
ATOM     11  C   UNL     1      47.780   3.321  17.109  0.00  0.00    +0.000 C 
BRANCH  11  12
ATOM     12  N   UNL     1      46.554   2.820  17.738  0.00  0.00    +0.000 NA
ATOM     13  H   UNL     1      46.605   3.001  18.741  0.00  0.00    +0.000 HD
ATOM     14  H   UNL     1      46.542   1.805  17.651  0.00  0.00    +0.000 HD
ENDBRANCH  11  12
ENDBRANCH  10  11
ENDBRANCH   8  10
ENDBRANCH   7   8
ENDBRANCH   1   7
BRANCH   3  15
ATOM     15  C   UNL     1      46.028   8.772  12.910  0.00  0.00    +0.000 C 
BRANCH  15  16
ATOM     16  N   UNL     1      46.805   8.763  14.126  0.00  0.00    +0.000 N 
ATOM     17  C   UNL     1      48.043   9.352  14.181  0.00  0.00    +0.000 C 
ATOM     18  O   UNL     1      48.518   9.955  13.222  0.00  0.00    +0.000 OA
ATOM     19  H   UNL     1      46.538   8.090  14.838  0.00  0.00    +0.000 HD
BRANCH  17  20
ATOM     20  C   UNL     1      48.752   9.280  15.465  0.00  0.00    +0.000 A 
ATOM     21  C   UNL     1      48.932  10.437  16.213  0.00  0.00    +0.000 A 
ATOM     22  S   UNL     1      49.733  10.178  17.695  0.00  0.00    +0.000 S 
ATOM     23  C   UNL     1      49.915   8.518  17.369  0.00  0.00    +0.000 A 
ATOM     24  N   UNL     1      50.560   7.702  18.245  0.00  0.00    +0.000 NA
ATOM     25  C   UNL     1      50.650   6.474  17.859  0.00  0.00    +0.000 A 
ATOM     26  N   UNL     1      50.154   5.984  16.679  0.00  0.00    +0.000 N 
ATOM     27  C   UNL     1      49.467   6.767  15.778  0.00  0.00    +0.000 A 
ATOM     28  O   UNL     1      48.992   6.290  14.751  0.00  0.00    +0.000 OA
ATOM     29  C   UNL     1      49.351   8.162  16.156  0.00  0.00    +0.000 A 
ATOM     30  H   UNL     1      50.247   5.008  16.442  0.00  0.00    +0.000 HD
ENDBRANCH  17  20
ENDBRANCH  15  16
ENDBRANCH   3  15
BRANCH   6  31
ATOM     31  C   UNL     1      44.211   3.383  11.498  0.00  0.00    +0.000 C 
BRANCH  31  32
ATOM     32  N   UNL     1      45.038   2.552  10.624  0.00  0.00    +0.000 NA
ATOM     33  H   UNL     1      45.105   1.609  10.989  0.00  0.00    +0.000 HD
BRANCH  32  34
ATOM     34  C   UNL     1      44.559   2.500   9.244  0.00  0.00    +0.000 C 
BRANCH  34  35
ATOM     35  C   UNL     1      45.727   2.312   8.312  0.00  0.00    +0.000 A 
ATOM     36  C   UNL     1      46.398   1.143   8.004  0.00  0.00    +0.000 A 
ATOM     37  C   UNL     1      47.451   1.348   7.067  0.00  0.00    +0.000 A 
ATOM     38  C   UNL     1      47.557   2.669   6.694  0.00  0.00    +0.000 A 
ATOM     39  S   UNL     1      46.390   3.651   7.469  0.00  0.00    +0.000 S 
ENDBRANCH  34  35
ENDBRANCH  32  34
ENDBRANCH  31  32
ENDBRANCH   6  31
TORSDOF 12
ENDMDL
MODEL 2
REMARK VINA RESULT:    -7.104      2.180      4.334
REMARK INTER + INTRA:         -13.637
REMARK INTER:                 -12.292
REMARK INTRA:                  -1.345
REMARK UNBOUND:                -1.757
REMARK  Name = 
REMARK  12 active torsions:
REMARK  status: ('A' for Active; 'I' for Inactive)
REMARK    1  A    between atoms: N_1  and  C_2
REMARK    2  A    between atoms: C_2  and  C_3
REMARK    3  A    between atoms: C_3  and  N_4
REMARK    4  A    between atoms: N_4  and  C_5
REMARK    5  A    between atoms: C_5  and  C_6
REMARK    6  A    between atoms: C_8  and  C_9
REMARK    7  A    between atoms: C_9  and  N_10
REMARK    8  A    between atoms: C_11  and  C_13
REMARK    9  A    between atoms: C_25  and  C_26
REMARK   10  A    between atoms: C_26  and  N_27
REMARK   11  A    between atoms: N_27  and  C_28
REMARK   12  A    between atoms: C_28  and  C_29
REMARK                            x       y       z     vdW  Elec       q    Type
REMARK                         _______ _______ _______ _____ _____    ______ ____
ROOT
ATOM      1  C   UNL     1      46.113   6.211  12.477  0.00  0.00    +0.000 A 
ATOM      2  C   UNL     1      46.787   5.789  13.645  0.00  0.00    +0.000 A 
ATOM      3  C   UNL     1      46.781   4.456  14.075  0.00  0.00    +0.000 A 
ATOM      4  C   UNL     1      46.097   3.514  13.309  0.00  0.00    +0.000 A 
ATOM      5  C   UNL     1      45.460   3.899  12.126  0.00  0.00    +0.000 A 
ATOM      6  C   UNL     1      45.482   5.236  11.670  0.00  0.00    +0.000 A 
ENDROOT
BRANCH   1   7
ATOM      7  C   UNL     1      46.133   7.700  12.180  0.00  0.00    +0.000 C 
BRANCH   7   8
ATOM      8  N   UNL     1      44.862   8.356  12.493  0.00  0.00    +0.000 NA
ATOM      9  H   UNL     1      44.097   7.765  12.179  0.00  0.00    +0.000 HD
BRANCH   8  10
ATOM     10  C   UNL     1      44.750   9.632  11.769  0.00  0.00    +0.000 C 
BRANCH  10  11
ATOM     11  C   UNL     1      43.536   9.647  10.820  0.00  0.00    +0.000 C 
BRANCH  11  12
ATOM     12  N   UNL     1      42.736   8.423  10.918  0.00  0.00    +0.000 NA
ATOM     13  H   UNL     1      43.124   7.839  11.658  0.00  0.00    +0.000 HD
ATOM     14  H   UNL     1      42.865   7.889  10.060  0.00  0.00    +0.000 HD
ENDBRANCH  11  12
ENDBRANCH  10  11
ENDBRANCH   8  10
ENDBRANCH   7   8
ENDBRANCH   1   7
BRANCH   3  15
ATOM     15  C   UNL     1      47.528   4.057  15.320  0.00  0.00    +0.000 C 
BRANCH  15  16
ATOM     16  N   UNL     1      47.459   5.088  16.326  0.00  0.00    +0.000 N 
ATOM     17  C   UNL     1      48.597   5.638  16.858  0.00  0.00    +0.000 C 
ATOM     18  O   UNL     1      49.716   5.320  16.465  0.00  0.00    +0.000 OA
ATOM     19  H   UNL     1      46.575   5.196  16.815  0.00  0.00    +0.000 HD
BRANCH  17  20
ATOM     20  C   UNL     1      48.415   6.677  17.880  0.00  0.00    +0.000 A 
ATOM     21  C   UNL     1      48.380   6.319  19.222  0.00  0.00    +0.000 A 
ATOM     22  S   UNL     1      48.207   7.643  20.281  0.00  0.00    +0.000 S 
ATOM     23  C   UNL     1      48.118   8.739  18.983  0.00  0.00    +0.000 A 
ATOM     24  N   UNL     1      47.936  10.069  19.205  0.00  0.00    +0.000 NA
ATOM     25  C   UNL     1      47.859  10.780  18.132  0.00  0.00    +0.000 A 
ATOM     26  N   UNL     1      47.949  10.288  16.855  0.00  0.00    +0.000 N 
ATOM     27  C   UNL     1      48.166   8.955  16.586  0.00  0.00    +0.000 A 
ATOM     28  O   UNL     1      48.291   8.550  15.433  0.00  0.00    +0.000 OA
ATOM     29  C   UNL     1      48.243   8.106  17.759  0.00  0.00    +0.000 A 
ATOM     30  H   UNL     1      47.894  10.902  16.057  0.00  0.00    +0.000 HD
ENDBRANCH  17  20
ENDBRANCH  15  16
ENDBRANCH   3  15
BRANCH   6  31
ATOM     31  C   UNL     1      44.821   5.515  10.331  0.00  0.00    +0.000 C 
BRANCH  31  32
ATOM     32  N   UNL     1      45.569   5.095   9.147  0.00  0.00    +0.000 NA
ATOM     33  H   UNL     1      46.472   4.720   9.412  0.00  0.00    +0.000 HD
BRANCH  32  34
ATOM     34  C   UNL     1      44.862   4.111   8.329  0.00  0.00    +0.000 C 
BRANCH  34  35
ATOM     35  C   UNL     1      45.855   3.157   7.719  0.00  0.00    +0.000 A 
ATOM     36  C   UNL     1      46.726   3.381   6.670  0.00  0.00    +0.000 A 
ATOM     37  C   UNL     1      47.531   2.243   6.375  0.00  0.00    +0.000 A 
ATOM     38  C   UNL     1      47.243   1.182   7.202  0.00  0.00    +0.000 A 
ATOM     39  S   UNL     1      46.013   1.561   8.330  0.00  0.00    +0.000 S 
ENDBRANCH  34  35
ENDBRANCH  32  34
ENDBRANCH  31  32
ENDBRANCH   6  31
TORSDOF 12
ENDMDL
MODEL 3
REMARK VINA RESULT:    -7.024      2.005      3.247
REMARK INTER + INTRA:         -13.503
REMARK INTER:                 -12.177
REMARK INTRA:                  -1.326
REMARK UNBOUND:                -1.757
REMARK  Name = 
REMARK  12 active torsions:
REMARK  status: ('A' for Active; 'I' for Inactive)
REMARK    1  A    between atoms: N_1  and  C_2
REMARK    2  A    between atoms: C_2  and  C_3
REMARK    3  A    between atoms: C_3  and  N_4
REMARK    4  A    between atoms: N_4  and  C_5
REMARK    5  A    between atoms: C_5  and  C_6
REMARK    6  A    between atoms: C_8  and  C_9
REMARK    7  A    between atoms: C_9  and  N_10
REMARK    8  A    between atoms: C_11  and  C_13
REMARK    9  A    between atoms: C_25  and  C_26
REMARK   10  A    between atoms: C_26  and  N_27
REMARK   11  A    between atoms: N_27  and  C_28
REMARK   12  A    between atoms: C_28  and  C_29
REMARK                            x       y       z     vdW  Elec       q    Type
REMARK                         _______ _______ _______ _____ _____    ______ ____
ROOT
ATOM      1  C   UNL     1      46.564   5.911  12.809  0.00  0.00    +0.000 A 
ATOM      2  C   UNL     1      47.636   6.401  13.589  0.00  0.00    +0.000 A 
ATOM      3  C   UNL     1      48.636   7.226  13.058  0.00  0.00    +0.000 A 
ATOM      4  C   UNL     1      48.555   7.587  11.714  0.00  0.00    +0.000 A 
ATOM      5  C   UNL     1      47.480   7.151  10.934  0.00  0.00    +0.000 A 
ATOM      6  C   UNL     1      46.454   6.341  11.466  0.00  0.00    +0.000 A 
ENDROOT
BRANCH   1   7
ATOM      7  C   UNL     1      45.602   4.959  13.496  0.00  0.00    +0.000 C 
BRANCH   7   8
ATOM      8  N   UNL     1      46.021   3.560  13.389  0.00  0.00    +0.000 NA
ATOM      9  H   UNL     1      47.014   3.525  13.178  0.00  0.00    +0.000 HD
BRANCH   8  10
ATOM     10  C   UNL     1      45.318   2.896  12.280  0.00  0.00    +0.000 C 
BRANCH  10  11
ATOM     11  C   UNL     1      43.799   3.147  12.335  0.00  0.00    +0.000 C 
BRANCH  11  12
ATOM     12  N   UNL     1      43.035   2.102  11.644  0.00  0.00    +0.000 NA
ATOM     13  H   UNL     1      43.640   1.662  10.951  0.00  0.00    +0.000 HD
ATOM     14  H   UNL     1      42.295   2.551  11.107  0.00  0.00    +0.000 HD
ENDBRANCH  11  12
ENDBRANCH  10  11
ENDBRANCH   8  10
ENDBRANCH   7   8
ENDBRANCH   1   7
BRANCH   3  15
ATOM     15  C   UNL     1      49.748   7.731  13.938  0.00  0.00    +0.000 C 
BRANCH  15  16
ATOM     16  N   UNL     1      49.673   7.161  15.260  0.00  0.00    +0.000 N 
ATOM     17  C   UNL     1      49.109   7.854  16.301  0.00  0.00    +0.000 C 
ATOM     18  O   UNL     1      48.598   8.960  16.143  0.00  0.00    +0.000 OA
ATOM     19  H   UNL     1      50.278   6.369  15.455  0.00  0.00    +0.000 HD
BRANCH  17  20
ATOM     20  C   UNL     1      49.088   7.183  17.608  0.00  0.00    +0.000 A 
ATOM     21  C   UNL     1      49.347   7.916  18.758  0.00  0.00    +0.000 A 
ATOM     22  S   UNL     1      49.241   7.003  20.193  0.00  0.00    +0.000 S 
ATOM     23  C   UNL     1      48.896   5.581  19.325  0.00  0.00    +0.000 A 
ATOM     24  N   UNL     1      48.718   4.397  19.971  0.00  0.00    +0.000 NA
ATOM     25  C   UNL     1      48.490   3.395  19.190  0.00  0.00    +0.000 A 
ATOM     26  N   UNL     1      48.423   3.466  17.822  0.00  0.00    +0.000 N 
ATOM     27  C   UNL     1      48.564   4.648  17.131  0.00  0.00    +0.000 A 
ATOM     28  O   UNL     1      48.450   4.689  15.909  0.00  0.00    +0.000 OA
ATOM     29  C   UNL     1      48.839   5.805  17.961  0.00  0.00    +0.000 A 
ATOM     30  H   UNL     1      48.227   2.645  17.269  0.00  0.00    +0.000 HD
ENDBRANCH  17  20
ENDBRANCH  15  16
ENDBRANCH   3  15
BRANCH   6  31
ATOM     31  C   UNL     1      45.299   5.998  10.540  0.00  0.00    +0.000 C 
BRANCH  31  32
ATOM     32  N   UNL     1      45.663   5.393   9.260  0.00  0.00    +0.000 NA
ATOM     33  H   UNL     1      46.611   5.037   9.292  0.00  0.00    +0.000 HD
BRANCH  32  34
ATOM     34  C   UNL     1      44.761   4.320   8.843  0.00  0.00    +0.000 C 
BRANCH  34  35
ATOM     35  C   UNL     1      45.567   3.160   8.321  0.00  0.00    +0.000 A 
ATOM     36  C   UNL     1      45.514   1.835   8.712  0.00  0.00    +0.000 A 
ATOM     37  C   UNL     1      46.421   1.013   7.982  0.00  0.00    +0.000 A 
ATOM     38  C   UNL     1      47.144   1.737   7.062  0.00  0.00    +0.000 A 
ATOM     39  S   UNL     1      46.726   3.396   7.078  0.00  0.00    +0.000 S 
ENDBRANCH  34  35
ENDBRANCH  32  34
ENDBRANCH  31  32
ENDBRANCH   6  31
TORSDOF 12
ENDMDL
MODEL 4
REMARK VINA RESULT:    -7.022      3.003      3.478
REMARK INTER + INTRA:         -13.499
REMARK INTER:                 -11.898
REMARK INTRA:                  -1.601
REMARK UNBOUND:                -1.757
REMARK  Name = 
REMARK  12 active torsions:
REMARK  status: ('A' for Active; 'I' for Inactive)
REMARK    1  A    between atoms: N_1  and  C_2
REMARK    2  A    between atoms: C_2  and  C_3
REMARK    3  A    between atoms: C_3  and  N_4
REMARK    4  A    between atoms: N_4  and  C_5
REMARK    5  A    between atoms: C_5  and  C_6
REMARK    6  A    between atoms: C_8  and  C_9
REMARK    7  A    between atoms: C_9  and  N_10
REMARK    8  A    between atoms: C_11  and  C_13
REMARK    9  A    between atoms: C_25  and  C_26
REMARK   10  A    between atoms: C_26  and  N_27
REMARK   11  A    between atoms: N_27  and  C_28
REMARK   12  A    between atoms: C_28  and  C_29
REMARK                            x       y       z     vdW  Elec       q    Type
REMARK                         _______ _______ _______ _____ _____    ______ ____
ROOT
ATOM      1  C   UNL     1      45.976   5.350  13.114  0.00  0.00    +0.000 A 
ATOM      2  C   UNL     1      46.357   6.710  13.183  0.00  0.00    +0.000 A 
ATOM      3  C   UNL     1      45.715   7.708  12.439  0.00  0.00    +0.000 A 
ATOM      4  C   UNL     1      44.652   7.343  11.615  0.00  0.00    +0.000 A 
ATOM      5  C   UNL     1      44.228   6.012  11.564  0.00  0.00    +0.000 A 
ATOM      6  C   UNL     1      44.851   5.003  12.330  0.00  0.00    +0.000 A 
ENDROOT
BRANCH   1   7
ATOM      7  C   UNL     1      46.816   4.367  13.909  0.00  0.00    +0.000 C 
BRANCH   7   8
ATOM      8  N   UNL     1      46.537   4.421  15.346  0.00  0.00    +0.000 NA
ATOM      9  H   UNL     1      45.934   5.215  15.539  0.00  0.00    +0.000 HD
BRANCH   8  10
ATOM     10  C   UNL     1      47.782   4.627  16.103  0.00  0.00    +0.000 C 
BRANCH  10  11
ATOM     11  C   UNL     1      47.791   3.826  17.418  0.00  0.00    +0.000 C 
BRANCH  11  12
ATOM     12  N   UNL     1      46.590   3.000  17.578  0.00  0.00    +0.000 NA
ATOM     13  H   UNL     1      46.659   2.200  16.948  0.00  0.00    +0.000 HD
ATOM     14  H   UNL     1      45.790   3.534  17.245  0.00  0.00    +0.000 HD
ENDBRANCH  11  12
ENDBRANCH  10  11
ENDBRANCH   8  10
ENDBRANCH   7   8
ENDBRANCH   1   7
BRANCH   3  15
ATOM     15  C   UNL     1      46.152   9.144  12.561  0.00  0.00    +0.000 C 
BRANCH  15  16
ATOM     16  N   UNL     1      47.431   9.359  11.929  0.00  0.00    +0.000 N 
ATOM     17  C   UNL     1      48.460   9.970  12.600  0.00  0.00    +0.000 C 
ATOM     18  O   UNL     1      48.357  10.309  13.776  0.00  0.00    +0.000 OA
ATOM     19  H   UNL     1      47.460   9.297  10.916  0.00  0.00    +0.000 HD
BRANCH  17  20
ATOM     20  C   UNL     1      49.718  10.145  11.862  0.00  0.00    +0.000 A 
ATOM     21  C   UNL     1      50.167  11.426  11.569  0.00  0.00    +0.000 A 
ATOM     22  S   UNL     1      51.662  11.458  10.749  0.00  0.00    +0.000 S 
ATOM     23  C   UNL     1      51.738   9.759  10.710  0.00  0.00    +0.000 A 
ATOM     24  N   UNL     1      52.777   9.121  10.107  0.00  0.00    +0.000 NA
ATOM     25  C   UNL     1      52.694   7.834  10.126  0.00  0.00    +0.000 A 
ATOM     26  N   UNL     1      51.668   7.123  10.693  0.00  0.00    +0.000 N 
ATOM     27  C   UNL     1      50.614   7.725  11.341  0.00  0.00    +0.000 A 
ATOM     28  O   UNL     1      49.734   7.061  11.882  0.00  0.00    +0.000 OA
ATOM     29  C   UNL     1      50.649   9.175  11.334  0.00  0.00    +0.000 A 
ATOM     30  H   UNL     1      51.670   6.114  10.685  0.00  0.00    +0.000 HD
ENDBRANCH  17  20
ENDBRANCH  15  16
ENDBRANCH   3  15
BRANCH   6  31
ATOM     31  C   UNL     1      44.250   3.610  12.248  0.00  0.00    +0.000 C 
BRANCH  31  32
ATOM     32  N   UNL     1      44.935   2.667  11.366  0.00  0.00    +0.000 NA
ATOM     33  H   UNL     1      45.039   1.767  11.819  0.00  0.00    +0.000 HD
BRANCH  32  34
ATOM     34  C   UNL     1      44.267   2.481  10.078  0.00  0.00    +0.000 C 
BRANCH  34  35
ATOM     35  C   UNL     1      45.264   2.664   8.964  0.00  0.00    +0.000 A 
ATOM     36  C   UNL     1      46.036   1.703   8.339  0.00  0.00    +0.000 A 
ATOM     37  C   UNL     1      46.860   2.247   7.312  0.00  0.00    +0.000 A 
ATOM     38  C   UNL     1      46.697   3.608   7.189  0.00  0.00    +0.000 A 
ATOM     39  S   UNL     1      45.553   4.221   8.304  0.00  0.00    +0.000 S 
ENDBRANCH  34  35
ENDBRANCH  32  34
ENDBRANCH  31  32
ENDBRANCH   6  31
TORSDOF 12
ENDMDL
MODEL 5
REMARK VINA RESULT:    -6.849      2.224      4.305
REMARK INTER + INTRA:         -13.210
REMARK INTER:                 -12.011
REMARK INTRA:                  -1.199
REMARK UNBOUND:                -1.757
REMARK  Name = 
REMARK  12 active torsions:
REMARK  status: ('A' for Active; 'I' for Inactive)
REMARK    1  A    between atoms: N_1  and  C_2
REMARK    2  A    between atoms: C_2  and  C_3
REMARK    3  A    between atoms: C_3  and  N_4
REMARK    4  A    between atoms: N_4  and  C_5
REMARK    5  A    between atoms: C_5  and  C_6
REMARK    6  A    between atoms: C_8  and  C_9
REMARK    7  A    between atoms: C_9  and  N_10
REMARK    8  A    between atoms: C_11  and  C_13
REMARK    9  A    between atoms: C_25  and  C_26
REMARK   10  A    between atoms: C_26  and  N_27
REMARK   11  A    between atoms: N_27  and  C_28
REMARK   12  A    between atoms: C_28  and  C_29
REMARK                            x       y       z     vdW  Elec       q    Type
REMARK                         _______ _______ _______ _____ _____    ______ ____
ROOT
ATOM      1  C   UNL     1      44.432   6.736  11.490  0.00  0.00    +0.000 A 
ATOM      2  C   UNL     1      45.451   7.468  12.141  0.00  0.00    +0.000 A 
ATOM      3  C   UNL     1      46.535   6.847  12.774  0.00  0.00    +0.000 A 
ATOM      4  C   UNL     1      46.614   5.456  12.743  0.00  0.00    +0.000 A 
ATOM      5  C   UNL     1      45.643   4.712  12.067  0.00  0.00    +0.000 A 
ATOM      6  C   UNL     1      44.560   5.330  11.404  0.00  0.00    +0.000 A 
ENDROOT
BRANCH   1   7
ATOM      7  C   UNL     1      43.275   7.537  10.922  0.00  0.00    +0.000 C 
BRANCH   7   8
ATOM      8  N   UNL     1      43.594   8.958  10.768  0.00  0.00    +0.000 NA
ATOM      9  H   UNL     1      44.100   9.277  11.590  0.00  0.00    +0.000 HD
BRANCH   8  10
ATOM     10  C   UNL     1      42.360   9.756  10.682  0.00  0.00    +0.000 C 
BRANCH  10  11
ATOM     11  C   UNL     1      42.525  11.137  11.344  0.00  0.00    +0.000 C 
BRANCH  11  12
ATOM     12  N   UNL     1      41.650  11.307  12.508  0.00  0.00    +0.000 NA
ATOM     13  H   UNL     1      41.426  12.297  12.606  0.00  0.00    +0.000 HD
ATOM     14  H   UNL     1      42.181  11.069  13.344  0.00  0.00    +0.000 HD
ENDBRANCH  11  12
ENDBRANCH  10  11
ENDBRANCH   8  10
ENDBRANCH   7   8
ENDBRANCH   1   7
BRANCH   3  15
ATOM     15  C   UNL     1      47.600   7.676  13.441  0.00  0.00    +0.000 C 
BRANCH  15  16
ATOM     16  N   UNL     1      47.919   7.166  14.752  0.00  0.00    +0.000 N 
ATOM     17  C   UNL     1      49.215   6.899  15.113  0.00  0.00    +0.000 C 
ATOM     18  O   UNL     1      50.159   7.132  14.362  0.00  0.00    +0.000 OA
ATOM     19  H   UNL     1      47.157   6.761  15.287  0.00  0.00    +0.000 HD
BRANCH  17  20
ATOM     20  C   UNL     1      49.430   6.377  16.469  0.00  0.00    +0.000 A 
ATOM     21  C   UNL     1      50.240   7.078  17.353  0.00  0.00    +0.000 A 
ATOM     22  S   UNL     1      50.351   6.364  18.897  0.00  0.00    +0.000 S 
ATOM     23  C   UNL     1      49.361   5.062  18.424  0.00  0.00    +0.000 A 
ATOM     24  N   UNL     1      49.077   4.053  19.291  0.00  0.00    +0.000 NA
ATOM     25  C   UNL     1      48.340   3.118  18.794  0.00  0.00    +0.000 A 
ATOM     26  N   UNL     1      47.859   3.098  17.510  0.00  0.00    +0.000 N 
ATOM     27  C   UNL     1      48.094   4.113  16.611  0.00  0.00    +0.000 A 
ATOM     28  O   UNL     1      47.609   4.091  15.483  0.00  0.00    +0.000 OA
ATOM     29  C   UNL     1      48.933   5.183  17.114  0.00  0.00    +0.000 A 
ATOM     30  H   UNL     1      47.274   2.341  17.187  0.00  0.00    +0.000 HD
ENDBRANCH  17  20
ENDBRANCH  15  16
ENDBRANCH   3  15
BRANCH   6  31
ATOM     31  C   UNL     1      43.614   4.420  10.639  0.00  0.00    +0.000 C 
BRANCH  31  32
ATOM     32  N   UNL     1      44.081   3.965   9.330  0.00  0.00    +0.000 NA
ATOM     33  H   UNL     1      44.857   4.535   9.012  0.00  0.00    +0.000 HD
BRANCH  32  34
ATOM     34  C   UNL     1      44.479   2.558   9.309  0.00  0.00    +0.000 C 
BRANCH  34  35
ATOM     35  C   UNL     1      45.659   2.383   8.390  0.00  0.00    +0.000 A 
ATOM     36  C   UNL     1      46.331   1.218   8.071  0.00  0.00    +0.000 A 
ATOM     37  C   UNL     1      47.398   1.436   7.152  0.00  0.00    +0.000 A 
ATOM     38  C   UNL     1      47.513   2.763   6.804  0.00  0.00    +0.000 A 
ATOM     39  S   UNL     1      46.338   3.735   7.580  0.00  0.00    +0.000 S 
ENDBRANCH  34  35
ENDBRANCH  32  34
ENDBRANCH  31  32
ENDBRANCH   6  31
TORSDOF 12
ENDMDL
MODEL 6
REMARK VINA RESULT:    -6.805      2.471      3.812
REMARK INTER + INTRA:         -13.136
REMARK INTER:                 -11.764
REMARK INTRA:                  -1.372
REMARK UNBOUND:                -1.757
REMARK  Name = 
REMARK  12 active torsions:
REMARK  status: ('A' for Active; 'I' for Inactive)
REMARK    1  A    between atoms: N_1  and  C_2
REMARK    2  A    between atoms: C_2  and  C_3
REMARK    3  A    between atoms: C_3  and  N_4
REMARK    4  A    between atoms: N_4  and  C_5
REMARK    5  A    between atoms: C_5  and  C_6
REMARK    6  A    between atoms: C_8  and  C_9
REMARK    7  A    between atoms: C_9  and  N_10
REMARK    8  A    between atoms: C_11  and  C_13
REMARK    9  A    between atoms: C_25  and  C_26
REMARK   10  A    between atoms: C_26  and  N_27
REMARK   11  A    between atoms: N_27  and  C_28
REMARK   12  A    between atoms: C_28  and  C_29
REMARK                            x       y       z     vdW  Elec       q    Type
REMARK                         _______ _______ _______ _____ _____    ______ ____
ROOT
ATOM      1  C   UNL     1      46.552   5.643  12.786  0.00  0.00    +0.000 A 
ATOM      2  C   UNL     1      47.548   6.067  13.695  0.00  0.00    +0.000 A 
ATOM      3  C   UNL     1      48.498   7.043  13.367  0.00  0.00    +0.000 A 
ATOM      4  C   UNL     1      48.443   7.623  12.101  0.00  0.00    +0.000 A 
ATOM      5  C   UNL     1      47.441   7.252  11.201  0.00  0.00    +0.000 A 
ATOM      6  C   UNL     1      46.463   6.289  11.532  0.00  0.00    +0.000 A 
ENDROOT
BRANCH   1   7
ATOM      7  C   UNL     1      45.644   4.517  13.248  0.00  0.00    +0.000 C 
BRANCH   7   8
ATOM      8  N   UNL     1      44.298   4.983  13.590  0.00  0.00    +0.000 NA
ATOM      9  H   UNL     1      44.179   4.948  14.598  0.00  0.00    +0.000 HD
BRANCH   8  10
ATOM     10  C   UNL     1      43.283   4.095  13.003  0.00  0.00    +0.000 C 
BRANCH  10  11
ATOM     11  C   UNL     1      43.923   2.943  12.204  0.00  0.00    +0.000 C 
BRANCH  11  12
ATOM     12  N   UNL     1      42.926   2.132  11.497  0.00  0.00    +0.000 NA
ATOM     13  H   UNL     1      42.275   2.758  11.023  0.00  0.00    +0.000 HD
ATOM     14  H   UNL     1      42.367   1.639  12.190  0.00  0.00    +0.000 HD
ENDBRANCH  11  12
ENDBRANCH  10  11
ENDBRANCH   8  10
ENDBRANCH   7   8
ENDBRANCH   1   7
BRANCH   3  15
ATOM     15  C   UNL     1      49.528   7.468  14.379  0.00  0.00    +0.000 C 
BRANCH  15  16
ATOM     16  N   UNL     1      49.041   7.303  15.726  0.00  0.00    +0.000 N 
ATOM     17  C   UNL     1      49.670   6.463  16.610  0.00  0.00    +0.000 C 
ATOM     18  O   UNL     1      50.699   5.862  16.313  0.00  0.00    +0.000 OA
ATOM     19  H   UNL     1      48.089   7.603  15.912  0.00  0.00    +0.000 HD
BRANCH  17  20
ATOM     20  C   UNL     1      49.089   6.364  17.955  0.00  0.00    +0.000 A 
ATOM     21  C   UNL     1      49.021   5.127  18.583  0.00  0.00    +0.000 A 
ATOM     22  S   UNL     1      48.362   5.189  20.153  0.00  0.00    +0.000 S 
ATOM     23  C   UNL     1      48.094   6.865  20.033  0.00  0.00    +0.000 A 
ATOM     24  N   UNL     1      47.512   7.552  21.052  0.00  0.00    +0.000 NA
ATOM     25  C   UNL     1      47.343   8.809  20.816  0.00  0.00    +0.000 A 
ATOM     26  N   UNL     1      47.704   9.445  19.656  0.00  0.00    +0.000 N 
ATOM     27  C   UNL     1      48.325   8.795  18.613  0.00  0.00    +0.000 A 
ATOM     28  O   UNL     1      48.681   9.401  17.606  0.00  0.00    +0.000 OA
ATOM     29  C   UNL     1      48.523   7.374  18.820  0.00  0.00    +0.000 A 
ATOM     30  H   UNL     1      47.556  10.437  19.540  0.00  0.00    +0.000 HD
ENDBRANCH  17  20
ENDBRANCH  15  16
ENDBRANCH   3  15
BRANCH   6  31
ATOM     31  C   UNL     1      45.379   6.028  10.499  0.00  0.00    +0.000 C 
BRANCH  31  32
ATOM     32  N   UNL     1      45.811   5.362   9.272  0.00  0.00    +0.000 NA
ATOM     33  H   UNL     1      46.735   4.962   9.390  0.00  0.00    +0.000 HD
BRANCH  32  34
ATOM     34  C   UNL     1      44.892   4.319   8.818  0.00  0.00    +0.000 C 
BRANCH  34  35
ATOM     35  C   UNL     1      45.679   3.155   8.276  0.00  0.00    +0.000 A 
ATOM     36  C   UNL     1      45.633   1.831   8.669  0.00  0.00    +0.000 A 
ATOM     37  C   UNL     1      46.517   1.006   7.915  0.00  0.00    +0.000 A 
ATOM     38  C   UNL     1      47.216   1.726   6.975  0.00  0.00    +0.000 A 
ATOM     39  S   UNL     1      46.804   3.387   7.000  0.00  0.00    +0.000 S 
ENDBRANCH  34  35
ENDBRANCH  32  34
ENDBRANCH  31  32
ENDBRANCH   6  31
TORSDOF 12
ENDMDL
MODEL 7
REMARK VINA RESULT:    -6.697      3.134      5.238
REMARK INTER + INTRA:         -12.955
REMARK INTER:                 -11.314
REMARK INTRA:                  -1.641
REMARK UNBOUND:                -1.757
REMARK  Name = 
REMARK  12 active torsions:
REMARK  status: ('A' for Active; 'I' for Inactive)
REMARK    1  A    between atoms: N_1  and  C_2
REMARK    2  A    between atoms: C_2  and  C_3
REMARK    3  A    between atoms: C_3  and  N_4
REMARK    4  A    between atoms: N_4  and  C_5
REMARK    5  A    between atoms: C_5  and  C_6
REMARK    6  A    between atoms: C_8  and  C_9
REMARK    7  A    between atoms: C_9  and  N_10
REMARK    8  A    between atoms: C_11  and  C_13
REMARK    9  A    between atoms: C_25  and  C_26
REMARK   10  A    between atoms: C_26  and  N_27
REMARK   11  A    between atoms: N_27  and  C_28
REMARK   12  A    between atoms: C_28  and  C_29
REMARK                            x       y       z     vdW  Elec       q    Type
REMARK                         _______ _______ _______ _____ _____    ______ ____
ROOT
ATOM      1  C   UNL     1      47.281   5.979  13.213  0.00  0.00    +0.000 A 
ATOM      2  C   UNL     1      48.122   6.552  14.193  0.00  0.00    +0.000 A 
ATOM      3  C   UNL     1      48.276   5.995  15.469  0.00  0.00    +0.000 A 
ATOM      4  C   UNL     1      47.583   4.824  15.771  0.00  0.00    +0.000 A 
ATOM      5  C   UNL     1      46.779   4.215  14.803  0.00  0.00    +0.000 A 
ATOM      6  C   UNL     1      46.638   4.754  13.506  0.00  0.00    +0.000 A 
ENDROOT
BRANCH   1   7
ATOM      7  C   UNL     1      47.145   6.738  11.905  0.00  0.00    +0.000 C 
BRANCH   7   8
ATOM      8  N   UNL     1      46.874   8.163  12.105  0.00  0.00    +0.000 NA
ATOM      9  H   UNL     1      47.457   8.510  12.861  0.00  0.00    +0.000 HD
BRANCH   8  10
ATOM     10  C   UNL     1      45.474   8.368  12.507  0.00  0.00    +0.000 C 
BRANCH  10  11
ATOM     11  C   UNL     1      44.543   8.505  11.287  0.00  0.00    +0.000 C 
BRANCH  11  12
ATOM     12  N   UNL     1      43.574   7.408  11.198  0.00  0.00    +0.000 NA
ATOM     13  H   UNL     1      43.958   6.683  10.592  0.00  0.00    +0.000 HD
ATOM     14  H   UNL     1      42.747   7.752  10.714  0.00  0.00    +0.000 HD
ENDBRANCH  11  12
ENDBRANCH  10  11
ENDBRANCH   8  10
ENDBRANCH   7   8
ENDBRANCH   1   7
BRANCH   3  15
ATOM     15  C   UNL     1      49.197   6.639  16.471  0.00  0.00    +0.000 C 
BRANCH  15  16
ATOM     16  N   UNL     1      50.247   5.736  16.876  0.00  0.00    +0.000 N 
ATOM     17  C   UNL     1      50.445   5.426  18.198  0.00  0.00    +0.000 C 
ATOM     18  O   UNL     1      49.711   5.858  19.083  0.00  0.00    +0.000 OA
ATOM     19  H   UNL     1      50.986   5.557  16.204  0.00  0.00    +0.000 HD
BRANCH  17  20
ATOM     20  C   UNL     1      51.544   4.501  18.502  0.00  0.00    +0.000 A 
ATOM     21  C   UNL     1      52.613   4.937  19.275  0.00  0.00    +0.000 A 
ATOM     22  S   UNL     1      53.781   3.732  19.574  0.00  0.00    +0.000 S 
ATOM     23  C   UNL     1      52.928   2.597  18.637  0.00  0.00    +0.000 A 
ATOM     24  N   UNL     1      53.412   1.339  18.454  0.00  0.00    +0.000 NA
ATOM     25  C   UNL     1      52.679   0.592  17.700  0.00  0.00    +0.000 A 
ATOM     26  N   UNL     1      51.505   0.984  17.111  0.00  0.00    +0.000 N 
ATOM     27  C   UNL     1      50.961   2.236  17.295  0.00  0.00    +0.000 A 
ATOM     28  O   UNL     1      49.883   2.543  16.794  0.00  0.00    +0.000 OA
ATOM     29  C   UNL     1      51.756   3.123  18.123  0.00  0.00    +0.000 A 
ATOM     30  H   UNL     1      50.971   0.345  16.542  0.00  0.00    +0.000 HD
ENDBRANCH  17  20
ENDBRANCH  15  16
ENDBRANCH   3  15
BRANCH   6  31
ATOM     31  C   UNL     1      45.800   3.959  12.519  0.00  0.00    +0.000 C 
BRANCH  31  32
ATOM     32  N   UNL     1      44.565   4.597  12.068  0.00  0.00    +0.000 NA
ATOM     33  H   UNL     1      44.758   5.517  11.689  0.00  0.00    +0.000 HD
BRANCH  32  34
ATOM     34  C   UNL     1      43.832   3.813  11.074  0.00  0.00    +0.000 C 
BRANCH  34  35
ATOM     35  C   UNL     1      44.663   3.681   9.825  0.00  0.00    +0.000 A 
ATOM     36  C   UNL     1      45.304   4.677   9.113  0.00  0.00    +0.000 A 
ATOM     37  C   UNL     1      46.011   4.172   7.984  0.00  0.00    +0.000 A 
ATOM     38  C   UNL     1      45.882   2.808   7.864  0.00  0.00    +0.000 A 
ATOM     39  S   UNL     1      44.916   2.142   9.109  0.00  0.00    +0.000 S 
ENDBRANCH  34  35
ENDBRANCH  32  34
ENDBRANCH  31  32
ENDBRANCH   6  31
TORSDOF 12
ENDMDL
MODEL 8
REMARK VINA RESULT:    -6.561      2.579      4.065
REMARK INTER + INTRA:         -12.728
REMARK INTER:                 -11.588
REMARK INTRA:                  -1.140
REMARK UNBOUND:                -1.757
REMARK  Name = 
REMARK  12 active torsions:
REMARK  status: ('A' for Active; 'I' for Inactive)
REMARK    1  A    between atoms: N_1  and  C_2
REMARK    2  A    between atoms: C_2  and  C_3
REMARK    3  A    between atoms: C_3  and  N_4
REMARK    4  A    between atoms: N_4  and  C_5
REMARK    5  A    between atoms: C_5  and  C_6
REMARK    6  A    between atoms: C_8  and  C_9
REMARK    7  A    between atoms: C_9  and  N_10
REMARK    8  A    between atoms: C_11  and  C_13
REMARK    9  A    between atoms: C_25  and  C_26
REMARK   10  A    between atoms: C_26  and  N_27
REMARK   11  A    between atoms: N_27  and  C_28
REMARK   12  A    between atoms: C_28  and  C_29
REMARK                            x       y       z     vdW  Elec       q    Type
REMARK                         _______ _______ _______ _____ _____    ______ ____
ROOT
ATOM      1  C   UNL     1      46.686   5.409  12.920  0.00  0.00    +0.000 A 
ATOM      2  C   UNL     1      47.397   5.895  14.040  0.00  0.00    +0.000 A 
ATOM      3  C   UNL     1      48.009   7.155  14.053  0.00  0.00    +0.000 A 
ATOM      4  C   UNL     1      47.896   7.960  12.922  0.00  0.00    +0.000 A 
ATOM      5  C   UNL     1      47.160   7.520  11.818  0.00  0.00    +0.000 A 
ATOM      6  C   UNL     1      46.518   6.263  11.805  0.00  0.00    +0.000 A 
ENDROOT
BRANCH   1   7
ATOM      7  C   UNL     1      46.149   3.993  13.016  0.00  0.00    +0.000 C 
BRANCH   7   8
ATOM      8  N   UNL     1      44.798   3.940  13.579  0.00  0.00    +0.000 NA
ATOM      9  H   UNL     1      44.780   3.264  14.337  0.00  0.00    +0.000 HD
BRANCH   8  10
ATOM     10  C   UNL     1      43.836   3.481  12.565  0.00  0.00    +0.000 C 
BRANCH  10  11
ATOM     11  C   UNL     1      42.870   4.603  12.143  0.00  0.00    +0.000 C 
BRANCH  11  12
ATOM     12  N   UNL     1      42.594   5.543  13.234  0.00  0.00    +0.000 NA
ATOM     13  H   UNL     1      43.306   5.422  13.955  0.00  0.00    +0.000 HD
ATOM     14  H   UNL     1      41.718   5.270  13.676  0.00  0.00    +0.000 HD
ENDBRANCH  11  12
ENDBRANCH  10  11
ENDBRANCH   8  10
ENDBRANCH   7   8
ENDBRANCH   1   7
BRANCH   3  15
ATOM     15  C   UNL     1      48.743   7.629  15.280  0.00  0.00    +0.000 C 
BRANCH  15  16
ATOM     16  N   UNL     1      49.686   6.641  15.743  0.00  0.00    +0.000 N 
ATOM     17  C   UNL     1      49.918   6.453  17.081  0.00  0.00    +0.000 C 
ATOM     18  O   UNL     1      49.299   7.075  17.941  0.00  0.00    +0.000 OA
ATOM     19  H   UNL     1      50.356   6.291  15.064  0.00  0.00    +0.000 HD
BRANCH  17  20
ATOM     20  C   UNL     1      50.903   5.425  17.444  0.00  0.00    +0.000 A 
ATOM     21  C   UNL     1      52.140   5.808  17.944  0.00  0.00    +0.000 A 
ATOM     22  S   UNL     1      53.149   4.498  18.358  0.00  0.00    +0.000 S 
ATOM     23  C   UNL     1      51.989   3.370  17.834  0.00  0.00    +0.000 A 
ATOM     24  N   UNL     1      52.241   2.034  17.887  0.00  0.00    +0.000 NA
ATOM     25  C   UNL     1      51.287   1.295  17.433  0.00  0.00    +0.000 A 
ATOM     26  N   UNL     1      50.101   1.765  16.930  0.00  0.00    +0.000 N 
ATOM     27  C   UNL     1      49.791   3.106  16.888  0.00  0.00    +0.000 A 
ATOM     28  O   UNL     1      48.701   3.495  16.477  0.00  0.00    +0.000 OA
ATOM     29  C   UNL     1      50.838   3.984  17.372  0.00  0.00    +0.000 A 
ATOM     30  H   UNL     1      49.389   1.131  16.602  0.00  0.00    +0.000 HD
ENDBRANCH  17  20
ENDBRANCH  15  16
ENDBRANCH   3  15
BRANCH   6  31
ATOM     31  C   UNL     1      45.684   5.931  10.579  0.00  0.00    +0.000 C 
BRANCH  31  32
ATOM     32  N   UNL     1      45.952   4.638   9.953  0.00  0.00    +0.000 NA
ATOM     33  H   UNL     1      45.763   3.883  10.601  0.00  0.00    +0.000 HD
BRANCH  32  34
ATOM     34  C   UNL     1      45.193   4.416   8.723  0.00  0.00    +0.000 C 
BRANCH  34  35
ATOM     35  C   UNL     1      45.894   3.383   7.879  0.00  0.00    +0.000 A 
ATOM     36  C   UNL     1      46.575   3.567   6.690  0.00  0.00    +0.000 A 
ATOM     37  C   UNL     1      47.124   2.354   6.182  0.00  0.00    +0.000 A 
ATOM     38  C   UNL     1      46.837   1.280   6.994  0.00  0.00    +0.000 A 
ATOM     39  S   UNL     1      45.917   1.737   8.362  0.00  0.00    +0.000 S 
ENDBRANCH  34  35
ENDBRANCH  32  34
ENDBRANCH  31  32
ENDBRANCH   6  31
TORSDOF 12
ENDMDL
MODEL 9
REMARK VINA RESULT:    -6.234      4.252      8.742
REMARK INTER + INTRA:         -12.181
REMARK INTER:                 -10.789
REMARK INTRA:                  -1.392
REMARK UNBOUND:                -1.757
REMARK  Name = 
REMARK  12 active torsions:
REMARK  status: ('A' for Active; 'I' for Inactive)
REMARK    1  A    between atoms: N_1  and  C_2
REMARK    2  A    between atoms: C_2  and  C_3
REMARK    3  A    between atoms: C_3  and  N_4
REMARK    4  A    between atoms: N_4  and  C_5
REMARK    5  A    between atoms: C_5  and  C_6
REMARK    6  A    between atoms: C_8  and  C_9
REMARK    7  A    between atoms: C_9  and  N_10
REMARK    8  A    between atoms: C_11  and  C_13
REMARK    9  A    between atoms: C_25  and  C_26
REMARK   10  A    between atoms: C_26  and  N_27
REMARK   11  A    between atoms: N_27  and  C_28
REMARK   12  A    between atoms: C_28  and  C_29
REMARK                            x       y       z     vdW  Elec       q    Type
REMARK                         _______ _______ _______ _____ _____    ______ ____
ROOT
ATOM      1  C   UNL     1      50.534   4.808  17.912  0.00  0.00    +0.000 A 
ATOM      2  C   UNL     1      49.163   4.658  17.602  0.00  0.00    +0.000 A 
ATOM      3  C   UNL     1      48.620   3.444  17.162  0.00  0.00    +0.000 A 
ATOM      4  C   UNL     1      49.466   2.343  17.044  0.00  0.00    +0.000 A 
ATOM      5  C   UNL     1      50.816   2.454  17.387  0.00  0.00    +0.000 A 
ATOM      6  C   UNL     1      51.367   3.667  17.857  0.00  0.00    +0.000 A 
ENDROOT
BRANCH   1   7
ATOM      7  C   UNL     1      50.997   6.202  18.295  0.00  0.00    +0.000 C 
BRANCH   7   8
ATOM      8  N   UNL     1      49.954   7.213  18.112  0.00  0.00    +0.000 NA
ATOM      9  H   UNL     1      49.102   6.759  17.794  0.00  0.00    +0.000 HD
BRANCH   8  10
ATOM     10  C   UNL     1      50.347   8.175  17.070  0.00  0.00    +0.000 C 
BRANCH  10  11
ATOM     11  C   UNL     1      49.837   7.752  15.679  0.00  0.00    +0.000 C 
BRANCH  11  12
ATOM     12  N   UNL     1      50.932   7.419  14.761  0.00  0.00    +0.000 NA
ATOM     13  H   UNL     1      51.487   6.670  15.174  0.00  0.00    +0.000 HD
ATOM     14  H   UNL     1      51.559   8.220  14.710  0.00  0.00    +0.000 HD
ENDBRANCH  11  12
ENDBRANCH  10  11
ENDBRANCH   8  10
ENDBRANCH   7   8
ENDBRANCH   1   7
BRANCH   3  15
ATOM     15  C   UNL     1      47.149   3.337  16.859  0.00  0.00    +0.000 C 
BRANCH  15  16
ATOM     16  N   UNL     1      46.734   4.339  15.908  0.00  0.00    +0.000 N 
ATOM     17  C   UNL     1      46.840   4.123  14.558  0.00  0.00    +0.000 C 
ATOM     18  O   UNL     1      47.237   3.054  14.101  0.00  0.00    +0.000 OA
ATOM     19  H   UNL     1      46.624   5.287  16.257  0.00  0.00    +0.000 HD
BRANCH  17  20
ATOM     20  C   UNL     1      46.394   5.211  13.677  0.00  0.00    +0.000 A 
ATOM     21  C   UNL     1      47.228   6.298  13.456  0.00  0.00    +0.000 A 
ATOM     22  S   UNL     1      46.584   7.450  12.378  0.00  0.00    +0.000 S 
ATOM     23  C   UNL     1      45.142   6.562  12.207  0.00  0.00    +0.000 A 
ATOM     24  N   UNL     1      44.129   7.022  11.424  0.00  0.00    +0.000 NA
ATOM     25  C   UNL     1      43.086   6.264  11.407  0.00  0.00    +0.000 A 
ATOM     26  N   UNL     1      42.959   5.088  12.099  0.00  0.00    +0.000 N 
ATOM     27  C   UNL     1      43.970   4.569  12.877  0.00  0.00    +0.000 A 
ATOM     28  O   UNL     1      43.846   3.489  13.446  0.00  0.00    +0.000 OA
ATOM     29  C   UNL     1      45.162   5.392  12.944  0.00  0.00    +0.000 A 
ATOM     30  H   UNL     1      42.118   4.534  12.032  0.00  0.00    +0.000 HD
ENDBRANCH  17  20
ENDBRANCH  15  16
ENDBRANCH   3  15
BRANCH   6  31
ATOM     31  C   UNL     1      52.828   3.642  18.272  0.00  0.00    +0.000 C 
BRANCH  31  32
ATOM     32  N   UNL     1      53.210   2.586  19.208  0.00  0.00    +0.000 NA
ATOM     33  H   UNL     1      52.633   1.764  19.072  0.00  0.00    +0.000 HD
BRANCH  32  34
ATOM     34  C   UNL     1      54.618   2.203  19.114  0.00  0.00    +0.000 C 
BRANCH  34  35
ATOM     35  C   UNL     1      54.807   1.260  17.955  0.00  0.00    +0.000 A 
ATOM     36  C   UNL     1      55.453   1.495  16.756  0.00  0.00    +0.000 A 
ATOM     37  C   UNL     1      55.445   0.357  15.898  0.00  0.00    +0.000 A 
ATOM     38  C   UNL     1      54.787  -0.710  16.467  0.00  0.00    +0.000 A 
ATOM     39  S   UNL     1      54.188  -0.339  18.026  0.00  0.00    +0.000 S 
ENDBRANCH  34  35
ENDBRANCH  32  34
ENDBRANCH  31  32
ENDBRANCH   6  31
TORSDOF 12
ENDMDL
