MODEL 1
REMARK VINA RESULT:    -7.871      0.000      0.000
REMARK INTER + INTRA:         -11.517
REMARK INTER:                 -10.632
REMARK INTRA:                  -0.884
REMARK UNBOUND:                -0.884
REMARK  Name = 
REMARK  9 active torsions:
REMARK  status: ('A' for Active; 'I' for Inactive)
REMARK    1  A    between atoms: C_1  and  C_2
REMARK    2  A    between atoms: C_2  and  C_3
REMARK    3  A    between atoms: C_2  and  C_4
REMARK    4  A    between atoms: C_2  and  C_5
REMARK    5  A    between atoms: C_6  and  C_7
REMARK    6  A    between atoms: C_10  and  C_11
REMARK    7  A    between atoms: C_11  and  N_12
REMARK    8  A    between atoms: N_12  and  C_13
REMARK    9  A    between atoms: C_16  and  C_17
REMARK                            x       y       z     vdW  Elec       q    Type
REMARK                         _______ _______ _______ _____ _____    ______ ____
ROOT
ATOM      1  C   UNL     1      43.685   4.592  11.379  0.00  0.00    +0.000 C 
ENDROOT
BRANCH   1   5
ATOM      2  C   UNL     1      47.246   6.055  13.363  0.00  0.00    +0.000 A 
ATOM      3  C   UNL     1      46.590   6.839  12.413  0.00  0.00    +0.000 A 
ATOM      4  C   UNL     1      45.459   6.343  11.752  0.00  0.00    +0.000 A 
ATOM      5  C   UNL     1      44.981   5.052  12.013  0.00  0.00    +0.000 A 
ATOM      6  C   UNL     1      45.695   4.248  12.918  0.00  0.00    +0.000 A 
ATOM      7  C   UNL     1      46.812   4.754  13.600  0.00  0.00    +0.000 A 
BRANCH   2   9
ATOM      8  C   UNL     1      49.352   7.034  14.806  0.00  0.00    +0.000 C 
ATOM      9  C   UNL     1      48.346   6.588  14.107  0.00  0.00    +0.000 C 
BRANCH   8  11
ATOM     10  C   UNL     1      51.593   8.102  14.666  0.00  0.00    +0.000 C 
ATOM     11  C   UNL     1      50.525   7.555  15.621  0.00  0.00    +0.000 C 
ATOM     12  C   UNL     1      51.108   6.406  16.452  0.00  0.00    +0.000 C 
ATOM     13  C   UNL     1      50.033   8.673  16.549  0.00  0.00    +0.000 C 
ENDBRANCH   8  11
ENDBRANCH   2   9
ENDBRANCH   1   5
BRANCH   1  14
ATOM     14  N   UNL     1      43.673   4.769   9.926  0.00  0.00    +0.000 N 
ATOM     15  H   UNL     1      43.785   5.751   9.683  0.00  0.00    +0.000 HD
BRANCH  14  16
ATOM     16  C   UNL     1      44.606   3.997   9.200  0.00  0.00    +0.000 A 
ATOM     17  C   UNL     1      45.583   4.576   8.379  0.00  0.00    +0.000 A 
ATOM     18  C   UNL     1      46.501   3.787   7.675  0.00  0.00    +0.000 A 
ATOM     19  C   UNL     1      46.485   2.400   7.804  0.00  0.00    +0.000 A 
ATOM     20  C   UNL     1      45.567   1.813   8.687  0.00  0.00    +0.000 A 
ATOM     21  C   UNL     1      44.649   2.609   9.387  0.00  0.00    +0.000 A 
BRANCH  19  22
ATOM     22  C   UNL     1      47.398   1.497   7.041  0.00  0.00    +0.000 C 
ATOM     23  N   UNL     1      48.461   2.062   6.383  0.00  0.00    +0.000 N 
ATOM     24  O   UNL     1      47.207   0.296   6.975  0.00  0.00    +0.000 OA
ATOM     25  H   UNL     1      48.651   3.047   6.323  0.00  0.00    +0.000 HD
ATOM     26  H   UNL     1      49.031   1.436   5.828  0.00  0.00    +0.000 HD
ENDBRANCH  19  22
ENDBRANCH  14  16
ENDBRANCH   1  14
TORSDOF 6
ENDMDL
MODEL 2
REMARK VINA RESULT:    -7.768      1.886      2.777
REMARK INTER + INTRA:         -11.377
REMARK INTER:                 -10.537
REMARK INTRA:                  -0.841
REMARK UNBOUND:                -0.884
REMARK  Name = 
REMARK  9 active torsions:
REMARK  status: ('A' for Active; 'I' for Inactive)
REMARK    1  A    between atoms: C_1  and  C_2
REMARK    2  A    between atoms: C_2  and  C_3
REMARK    3  A    between atoms: C_2  and  C_4
REMARK    4  A    between atoms: C_2  and  C_5
REMARK    5  A    between atoms: C_6  and  C_7
REMARK    6  A    between atoms: C_10  and  C_11
REMARK    7  A    between atoms: C_11  and  N_12
REMARK    8  A    between atoms: N_12  and  C_13
REMARK    9  A    between atoms: C_16  and  C_17
REMARK                            x       y       z     vdW  Elec       q    Type
REMARK                         _______ _______ _______ _____ _____    ______ ____
ROOT
ATOM      1  C   UNL     1      44.468   6.043  10.658  0.00  0.00    +0.000 C 
ENDROOT
BRANCH   1   5
ATOM      2  C   UNL     1      46.721   4.851  14.161  0.00  0.00    +0.000 A 
ATOM      3  C   UNL     1      45.413   4.400  13.970  0.00  0.00    +0.000 A 
ATOM      4  C   UNL     1      44.682   4.820  12.852  0.00  0.00    +0.000 A 
ATOM      5  C   UNL     1      45.235   5.709  11.921  0.00  0.00    +0.000 A 
ATOM      6  C   UNL     1      46.525   6.210  12.165  0.00  0.00    +0.000 A 
ATOM      7  C   UNL     1      47.268   5.769  13.271  0.00  0.00    +0.000 A 
BRANCH   2   9
ATOM      8  C   UNL     1      48.246   3.942  16.240  0.00  0.00    +0.000 C 
ATOM      9  C   UNL     1      47.505   4.356  15.250  0.00  0.00    +0.000 C 
BRANCH   8  11
ATOM     10  C   UNL     1      49.792   2.145  16.991  0.00  0.00    +0.000 C 
ATOM     11  C   UNL     1      49.109   3.459  17.394  0.00  0.00    +0.000 C 
ATOM     12  C   UNL     1      48.221   3.229  18.623  0.00  0.00    +0.000 C 
ATOM     13  C   UNL     1      50.169   4.522  17.707  0.00  0.00    +0.000 C 
ENDBRANCH   8  11
ENDBRANCH   2   9
ENDBRANCH   1   5
BRANCH   1  14
ATOM     14  N   UNL     1      43.824   4.872  10.063  0.00  0.00    +0.000 N 
ATOM     15  H   UNL     1      43.046   5.153   9.468  0.00  0.00    +0.000 HD
BRANCH  14  16
ATOM     16  C   UNL     1      44.667   3.996   9.348  0.00  0.00    +0.000 A 
ATOM     17  C   UNL     1      44.594   2.603   9.484  0.00  0.00    +0.000 A 
ATOM     18  C   UNL     1      45.439   1.755   8.756  0.00  0.00    +0.000 A 
ATOM     19  C   UNL     1      46.354   2.282   7.847  0.00  0.00    +0.000 A 
ATOM     20  C   UNL     1      46.380   3.669   7.639  0.00  0.00    +0.000 A 
ATOM     21  C   UNL     1      45.532   4.512   8.373  0.00  0.00    +0.000 A 
BRANCH  19  22
ATOM     22  C   UNL     1      47.321   1.441   7.079  0.00  0.00    +0.000 C 
ATOM     23  N   UNL     1      48.406   2.062   6.514  0.00  0.00    +0.000 N 
ATOM     24  O   UNL     1      47.155   0.244   6.930  0.00  0.00    +0.000 OA
ATOM     25  H   UNL     1      48.582   3.051   6.524  0.00  0.00    +0.000 HD
ATOM     26  H   UNL     1      49.015   1.480   5.953  0.00  0.00    +0.000 HD
ENDBRANCH  19  22
ENDBRANCH  14  16
ENDBRANCH   1  14
TORSDOF 6
ENDMDL
MODEL 3
REMARK VINA RESULT:    -6.755      1.510      2.483
REMARK INTER + INTRA:         -10.009
REMARK INTER:                  -9.099
REMARK INTRA:                  -0.911
REMARK UNBOUND:                -0.884
REMARK  Name = 
REMARK  9 active torsions:
REMARK  status: ('A' for Active; 'I' for Inactive)
REMARK    1  A    between atoms: C_1  and  C_2
REMARK    2  A    between atoms: C_2  and  C_3
REMARK    3  A    between atoms: C_2  and  C_4
REMARK    4  A    between atoms: C_2  and  C_5
REMARK    5  A    between atoms: C_6  and  C_7
REMARK    6  A    between atoms: C_10  and  C_11
REMARK    7  A    between atoms: C_11  and  N_12
REMARK    8  A    between atoms: N_12  and  C_13
REMARK    9  A    between atoms: C_16  and  C_17
REMARK                            x       y       z     vdW  Elec       q    Type
REMARK                         _______ _______ _______ _____ _____    ______ ____
ROOT
ATOM      1  C   UNL     1      43.933   5.368  11.794  0.00  0.00    +0.000 C 
ENDROOT
BRANCH   1   5
ATOM      2  C   UNL     1      47.790   7.142  12.654  0.00  0.00    +0.000 A 
ATOM      3  C   UNL     1      47.458   5.883  13.159  0.00  0.00    +0.000 A 
ATOM      4  C   UNL     1      46.196   5.334  12.904  0.00  0.00    +0.000 A 
ATOM      5  C   UNL     1      45.240   6.040  12.161  0.00  0.00    +0.000 A 
ATOM      6  C   UNL     1      45.562   7.335  11.721  0.00  0.00    +0.000 A 
ATOM      7  C   UNL     1      46.836   7.874  11.954  0.00  0.00    +0.000 A 
BRANCH   2   9
ATOM      8  C   UNL     1      50.300   8.181  12.963  0.00  0.00    +0.000 C 
ATOM      9  C   UNL     1      49.107   7.670  12.833  0.00  0.00    +0.000 C 
BRANCH   8  11
ATOM     10  C   UNL     1      52.357   8.175  14.360  0.00  0.00    +0.000 C 
ATOM     11  C   UNL     1      51.690   8.776  13.116  0.00  0.00    +0.000 C 
ATOM     12  C   UNL     1      51.570  10.297  13.272  0.00  0.00    +0.000 C 
ATOM     13  C   UNL     1      52.518   8.443  11.868  0.00  0.00    +0.000 C 
ENDBRANCH   8  11
ENDBRANCH   2   9
ENDBRANCH   1   5
BRANCH   1  14
ATOM     14  N   UNL     1      43.718   5.301  10.349  0.00  0.00    +0.000 N 
ATOM     15  H   UNL     1      43.859   6.215   9.922  0.00  0.00    +0.000 HD
BRANCH  14  16
ATOM     16  C   UNL     1      44.479   4.338   9.652  0.00  0.00    +0.000 A 
ATOM     17  C   UNL     1      44.240   2.962   9.770  0.00  0.00    +0.000 A 
ATOM     18  C   UNL     1      45.005   2.028   9.061  0.00  0.00    +0.000 A 
ATOM     19  C   UNL     1      46.005   2.451   8.188  0.00  0.00    +0.000 A 
ATOM     20  C   UNL     1      46.199   3.827   7.997  0.00  0.00    +0.000 A 
ATOM     21  C   UNL     1      45.431   4.757   8.712  0.00  0.00    +0.000 A 
BRANCH  19  22
ATOM     22  C   UNL     1      46.894   1.509   7.444  0.00  0.00    +0.000 C 
ATOM     23  N   UNL     1      46.756   0.166   7.686  0.00  0.00    +0.000 N 
ATOM     24  O   UNL     1      47.738   1.904   6.659  0.00  0.00    +0.000 OA
ATOM     25  H   UNL     1      46.140  -0.242   8.368  0.00  0.00    +0.000 HD
ATOM     26  H   UNL     1      47.407  -0.447   7.212  0.00  0.00    +0.000 HD
ENDBRANCH  19  22
ENDBRANCH  14  16
ENDBRANCH   1  14
TORSDOF 6
ENDMDL
MODEL 4
REMARK VINA RESULT:    -6.241      2.149      2.514
REMARK INTER + INTRA:          -9.314
REMARK INTER:                  -8.939
REMARK INTRA:                  -0.374
REMARK UNBOUND:                -0.884
REMARK  Name = 
REMARK  9 active torsions:
REMARK  status: ('A' for Active; 'I' for Inactive)
REMARK    1  A    between atoms: C_1  and  C_2
REMARK    2  A    between atoms: C_2  and  C_3
REMARK    3  A    between atoms: C_2  and  C_4
REMARK    4  A    between atoms: C_2  and  C_5
REMARK    5  A    between atoms: C_6  and  C_7
REMARK    6  A    between atoms: C_10  and  C_11
REMARK    7  A    between atoms: C_11  and  N_12
REMARK    8  A    between atoms: N_12  and  C_13
REMARK    9  A    between atoms: C_16  and  C_17
REMARK                            x       y       z     vdW  Elec       q    Type
REMARK                         _______ _______ _______ _____ _____    ______ ____
ROOT
ATOM      1  C   UNL     1      43.607   4.239  12.506  0.00  0.00    +0.000 C 
ENDROOT
BRANCH   1   5
ATOM      2  C   UNL     1      46.677   7.273  12.154  0.00  0.00    +0.000 A 
ATOM      3  C   UNL     1      45.354   7.559  11.812  0.00  0.00    +0.000 A 
ATOM      4  C   UNL     1      44.376   6.561  11.896  0.00  0.00    +0.000 A 
ATOM      5  C   UNL     1      44.706   5.260  12.302  0.00  0.00    +0.000 A 
ATOM      6  C   UNL     1      46.054   4.970  12.573  0.00  0.00    +0.000 A 
ATOM      7  C   UNL     1      47.030   5.977  12.514  0.00  0.00    +0.000 A 
BRANCH   2   9
ATOM      8  C   UNL     1      48.555   9.260  12.204  0.00  0.00    +0.000 C 
ATOM      9  C   UNL     1      47.663   8.309  12.157  0.00  0.00    +0.000 C 
BRANCH   8  11
ATOM     10  C   UNL     1      49.149  11.516  11.342  0.00  0.00    +0.000 C 
ATOM     11  C   UNL     1      49.594  10.369  12.258  0.00  0.00    +0.000 C 
ATOM     12  C   UNL     1      50.942   9.815  11.783  0.00  0.00    +0.000 C 
ATOM     13  C   UNL     1      49.715  10.872  13.702  0.00  0.00    +0.000 C 
ENDBRANCH   8  11
ENDBRANCH   2   9
ENDBRANCH   1   5
BRANCH   1  14
ATOM     14  N   UNL     1      43.015   3.786  11.247  0.00  0.00    +0.000 N 
ATOM     15  H   UNL     1      42.315   4.449  10.919  0.00  0.00    +0.000 HD
BRANCH  14  16
ATOM     16  C   UNL     1      43.921   3.508  10.201  0.00  0.00    +0.000 A 
ATOM     17  C   UNL     1      44.416   4.505   9.350  0.00  0.00    +0.000 A 
ATOM     18  C   UNL     1      45.320   4.202   8.324  0.00  0.00    +0.000 A 
ATOM     19  C   UNL     1      45.777   2.897   8.148  0.00  0.00    +0.000 A 
ATOM     20  C   UNL     1      45.354   1.905   9.044  0.00  0.00    +0.000 A 
ATOM     21  C   UNL     1      44.446   2.215  10.068  0.00  0.00    +0.000 A 
BRANCH  19  22
ATOM     22  C   UNL     1      46.696   2.495   7.042  0.00  0.00    +0.000 C 
ATOM     23  N   UNL     1      46.753   3.294   5.928  0.00  0.00    +0.000 N 
ATOM     24  O   UNL     1      47.366   1.479   7.099  0.00  0.00    +0.000 OA
ATOM     25  H   UNL     1      46.183   4.106   5.765  0.00  0.00    +0.000 HD
ATOM     26  H   UNL     1      47.340   2.970   5.170  0.00  0.00    +0.000 HD
ENDBRANCH  19  22
ENDBRANCH  14  16
ENDBRANCH   1  14
TORSDOF 6
ENDMDL
MODEL 5
REMARK VINA RESULT:    -5.652      3.567      5.189
REMARK INTER + INTRA:          -8.519
REMARK INTER:                  -7.764
REMARK INTRA:                  -0.754
REMARK UNBOUND:                -0.884
REMARK  Name = 
REMARK  9 active torsions:
REMARK  status: ('A' for Active; 'I' for Inactive)
REMARK    1  A    between atoms: C_1  and  C_2
REMARK    2  A    between atoms: C_2  and  C_3
REMARK    3  A    between atoms: C_2  and  C_4
REMARK    4  A    between atoms: C_2  and  C_5
REMARK    5  A    between atoms: C_6  and  C_7
REMARK    6  A    between atoms: C_10  and  C_11
REMARK    7  A    between atoms: C_11  and  N_12
REMARK    8  A    between atoms: N_12  and  C_13
REMARK    9  A    between atoms: C_16  and  C_17
REMARK                            x       y       z     vdW  Elec       q    Type
REMARK                         _______ _______ _______ _____ _____    ______ ____
ROOT
ATOM      1  C   UNL     1      45.878   8.514  13.134  0.00  0.00    +0.000 C 
ENDROOT
BRANCH   1   5
ATOM      2  C   UNL     1      49.881   7.954  11.576  0.00  0.00    +0.000 A 
ATOM      3  C   UNL     1      49.275   6.963  12.351  0.00  0.00    +0.000 A 
ATOM      4  C   UNL     1      47.995   7.168  12.879  0.00  0.00    +0.000 A 
ATOM      5  C   UNL     1      47.310   8.371  12.660  0.00  0.00    +0.000 A 
ATOM      6  C   UNL     1      47.962   9.387  11.939  0.00  0.00    +0.000 A 
ATOM      7  C   UNL     1      49.234   9.171  11.388  0.00  0.00    +0.000 A 
BRANCH   2   9
ATOM      8  C   UNL     1      52.325   7.504  10.437  0.00  0.00    +0.000 C 
ATOM      9  C   UNL     1      51.149   7.716  10.959  0.00  0.00    +0.000 C 
BRANCH   8  11
ATOM     10  C   UNL     1      53.741   7.886   8.428  0.00  0.00    +0.000 C 
ATOM     11  C   UNL     1      53.696   7.258   9.827  0.00  0.00    +0.000 C 
ATOM     12  C   UNL     1      53.937   5.747   9.728  0.00  0.00    +0.000 C 
ATOM     13  C   UNL     1      54.765   7.900  10.720  0.00  0.00    +0.000 C 
ENDBRANCH   8  11
ENDBRANCH   2   9
ENDBRANCH   1   5
BRANCH   1  14
ATOM     14  N   UNL     1      44.904   8.245  12.077  0.00  0.00    +0.000 N 
ATOM     15  H   UNL     1      45.192   8.682  11.203  0.00  0.00    +0.000 HD
BRANCH  14  16
ATOM     16  C   UNL     1      44.599   6.887  11.843  0.00  0.00    +0.000 A 
ATOM     17  C   UNL     1      43.631   6.195  12.583  0.00  0.00    +0.000 A 
ATOM     18  C   UNL     1      43.343   4.849  12.325  0.00  0.00    +0.000 A 
ATOM     19  C   UNL     1      43.994   4.173  11.295  0.00  0.00    +0.000 A 
ATOM     20  C   UNL     1      44.904   4.877  10.492  0.00  0.00    +0.000 A 
ATOM     21  C   UNL     1      45.189   6.224  10.758  0.00  0.00    +0.000 A 
BRANCH  19  22
ATOM     22  C   UNL     1      43.776   2.725  11.001  0.00  0.00    +0.000 C 
ATOM     23  N   UNL     1      44.500   2.158   9.983  0.00  0.00    +0.000 N 
ATOM     24  O   UNL     1      42.967   2.057  11.620  0.00  0.00    +0.000 OA
ATOM     25  H   UNL     1      45.132   2.650   9.374  0.00  0.00    +0.000 HD
ATOM     26  H   UNL     1      44.293   1.192   9.767  0.00  0.00    +0.000 HD
ENDBRANCH  19  22
ENDBRANCH  14  16
ENDBRANCH   1  14
TORSDOF 6
ENDMDL
MODEL 6
REMARK VINA RESULT:    -4.999      4.468      8.641
REMARK INTER + INTRA:          -7.636
REMARK INTER:                  -6.716
REMARK INTRA:                  -0.920
REMARK UNBOUND:                -0.884
REMARK  Name = 
REMARK  9 active torsions:
REMARK  status: ('A' for Active; 'I' for Inactive)
REMARK    1  A    between atoms: C_1  and  C_2
REMARK    2  A    between atoms: C_2  and  C_3
REMARK    3  A    between atoms: C_2  and  C_4
REMARK    4  A    between atoms: C_2  and  C_5
REMARK    5  A    between atoms: C_6  and  C_7
REMARK    6  A    between atoms: C_10  and  C_11
REMARK    7  A    between atoms: C_11  and  N_12
REMARK    8  A    between atoms: N_12  and  C_13
REMARK    9  A    between atoms: C_16  and  C_17
REMARK                            x       y       z     vdW  Elec       q    Type
REMARK                         _______ _______ _______ _____ _____    ______ ____
ROOT
ATOM      1  C   UNL     1      50.319   9.503  14.127  0.00  0.00    +0.000 C 
ENDROOT
BRANCH   1   5
ATOM      2  C   UNL     1      47.032   7.132  12.599  0.00  0.00    +0.000 A 
ATOM      3  C   UNL     1      48.354   6.771  12.330  0.00  0.00    +0.000 A 
ATOM      4  C   UNL     1      49.408   7.563  12.799  0.00  0.00    +0.000 A 
ATOM      5  C   UNL     1      49.160   8.737  13.524  0.00  0.00    +0.000 A 
ATOM      6  C   UNL     1      47.824   9.126  13.724  0.00  0.00    +0.000 A 
ATOM      7  C   UNL     1      46.768   8.317  13.277  0.00  0.00    +0.000 A 
BRANCH   2   9
ATOM      8  C   UNL     1      44.948   5.517  11.876  0.00  0.00    +0.000 C 
ATOM      9  C   UNL     1      45.954   6.280  12.201  0.00  0.00    +0.000 C 
BRANCH   8  11
ATOM     10  C   UNL     1      43.874   4.281  10.004  0.00  0.00    +0.000 C 
ATOM     11  C   UNL     1      43.776   4.626  11.496  0.00  0.00    +0.000 C 
ATOM     12  C   UNL     1      42.467   5.374  11.773  0.00  0.00    +0.000 C 
ATOM     13  C   UNL     1      43.831   3.342  12.332  0.00  0.00    +0.000 C 
ENDBRANCH   8  11
ENDBRANCH   2   9
ENDBRANCH   1   5
BRANCH   1  14
ATOM     14  N   UNL     1      50.384   9.375  15.583  0.00  0.00    +0.000 N 
ATOM     15  H   UNL     1      49.583   9.826  16.020  0.00  0.00    +0.000 HD
BRANCH  14  16
ATOM     16  C   UNL     1      50.513   8.062  16.086  0.00  0.00    +0.000 A 
ATOM     17  C   UNL     1      51.738   7.382  16.107  0.00  0.00    +0.000 A 
ATOM     18  C   UNL     1      51.839   6.083  16.619  0.00  0.00    +0.000 A 
ATOM     19  C   UNL     1      50.722   5.446  17.155  0.00  0.00    +0.000 A 
ATOM     20  C   UNL     1      49.508   6.146  17.216  0.00  0.00    +0.000 A 
ATOM     21  C   UNL     1      49.413   7.447  16.700  0.00  0.00    +0.000 A 
BRANCH  19  22
ATOM     22  C   UNL     1      50.746   4.043  17.666  0.00  0.00    +0.000 C 
ATOM     23  N   UNL     1      51.309   3.816  18.897  0.00  0.00    +0.000 N 
ATOM     24  O   UNL     1      50.306   3.112  17.015  0.00  0.00    +0.000 OA
ATOM     25  H   UNL     1      51.760   4.509  19.468  0.00  0.00    +0.000 HD
ATOM     26  H   UNL     1      51.364   2.850  19.195  0.00  0.00    +0.000 HD
ENDBRANCH  19  22
ENDBRANCH  14  16
ENDBRANCH   1  14
TORSDOF 6
ENDMDL
MODEL 7
REMARK VINA RESULT:    -4.993      4.593      8.945
REMARK INTER + INTRA:          -7.629
REMARK INTER:                  -6.690
REMARK INTRA:                  -0.939
REMARK UNBOUND:                -0.884
REMARK  Name = 
REMARK  9 active torsions:
REMARK  status: ('A' for Active; 'I' for Inactive)
REMARK    1  A    between atoms: C_1  and  C_2
REMARK    2  A    between atoms: C_2  and  C_3
REMARK    3  A    between atoms: C_2  and  C_4
REMARK    4  A    between atoms: C_2  and  C_5
REMARK    5  A    between atoms: C_6  and  C_7
REMARK    6  A    between atoms: C_10  and  C_11
REMARK    7  A    between atoms: C_11  and  N_12
REMARK    8  A    between atoms: N_12  and  C_13
REMARK    9  A    between atoms: C_16  and  C_17
REMARK                            x       y       z     vdW  Elec       q    Type
REMARK                         _______ _______ _______ _____ _____    ______ ____
ROOT
ATOM      1  C   UNL     1      50.241   9.712  14.385  0.00  0.00    +0.000 C 
ENDROOT
BRANCH   1   5
ATOM      2  C   UNL     1      47.404   7.182  12.309  0.00  0.00    +0.000 A 
ATOM      3  C   UNL     1      48.770   7.088  12.038  0.00  0.00    +0.000 A 
ATOM      4  C   UNL     1      49.675   7.935  12.689  0.00  0.00    +0.000 A 
ATOM      5  C   UNL     1      49.230   8.900  13.603  0.00  0.00    +0.000 A 
ATOM      6  C   UNL     1      47.846   9.031  13.811  0.00  0.00    +0.000 A 
ATOM      7  C   UNL     1      46.941   8.165  13.179  0.00  0.00    +0.000 A 
BRANCH   2   9
ATOM      8  C   UNL     1      45.610   5.444  11.196  0.00  0.00    +0.000 C 
ATOM      9  C   UNL     1      46.484   6.261  11.717  0.00  0.00    +0.000 C 
BRANCH   8  11
ATOM     10  C   UNL     1      43.184   5.047  10.827  0.00  0.00    +0.000 C 
ATOM     11  C   UNL     1      44.594   4.492  10.588  0.00  0.00    +0.000 C 
ATOM     12  C   UNL     1      44.733   3.118  11.254  0.00  0.00    +0.000 C 
ATOM     13  C   UNL     1      44.858   4.371   9.082  0.00  0.00    +0.000 C 
ENDBRANCH   8  11
ENDBRANCH   2   9
ENDBRANCH   1   5
BRANCH   1  14
ATOM     14  N   UNL     1      50.998   8.903  15.340  0.00  0.00    +0.000 N 
ATOM     15  H   UNL     1      51.653   9.482  15.863  0.00  0.00    +0.000 HD
BRANCH  14  16
ATOM     16  C   UNL     1      50.234   8.131  16.242  0.00  0.00    +0.000 A 
ATOM     17  C   UNL     1      49.337   8.706  17.151  0.00  0.00    +0.000 A 
ATOM     18  C   UNL     1      48.585   7.916  18.030  0.00  0.00    +0.000 A 
ATOM     19  C   UNL     1      48.689   6.527  17.993  0.00  0.00    +0.000 A 
ATOM     20  C   UNL     1      49.520   5.935  17.032  0.00  0.00    +0.000 A 
ATOM     21  C   UNL     1      50.271   6.733  16.156  0.00  0.00    +0.000 A 
BRANCH  19  22
ATOM     22  C   UNL     1      47.959   5.627  18.937  0.00  0.00    +0.000 C 
ATOM     23  N   UNL     1      46.610   5.458  18.752  0.00  0.00    +0.000 N 
ATOM     24  O   UNL     1      48.523   5.071  19.862  0.00  0.00    +0.000 OA
ATOM     25  H   UNL     1      46.052   5.934  18.064  0.00  0.00    +0.000 HD
ATOM     26  H   UNL     1      46.130   4.889  19.438  0.00  0.00    +0.000 HD
ENDBRANCH  19  22
ENDBRANCH  14  16
ENDBRANCH   1  14
TORSDOF 6
ENDMDL
