MODEL 1
REMARK VINA RESULT:    -7.003      0.000      0.000
REMARK INTER + INTRA:          -9.106
REMARK INTER:                  -8.846
REMARK INTRA:                  -0.260
REMARK UNBOUND:                -0.260
REMARK  Name = 
REMARK  5 active torsions:
REMARK  status: ('A' for Active; 'I' for Inactive)
REMARK    1  A    between atoms: N_1  and  C_2
REMARK    2  A    between atoms: C_2  and  C_3
REMARK    3  A    between atoms: C_6  and  C_7
REMARK    4  A    between atoms: C_7  and  O_8
REMARK    5  A    between atoms: O_8  and  C_9
REMARK                            x       y       z     vdW  Elec       q    Type
REMARK                         _______ _______ _______ _____ _____    ______ ____
ROOT
ATOM      1  C   UNL     1      46.613   2.789   6.930  0.00  0.00    +0.000 A 
ATOM      2  C   UNL     1      46.444   1.676   7.743  0.00  0.00    +0.000 A 
ATOM      3  N   UNL     1      45.690   1.691   8.868  0.00  0.00    +0.000 NA
ATOM      4  C   UNL     1      45.090   2.874   9.158  0.00  0.00    +0.000 A 
ATOM      5  C   UNL     1      45.268   3.991   8.350  0.00  0.00    +0.000 A 
ATOM      6  N   UNL     1      46.017   3.976   7.223  0.00  0.00    +0.000 NA
ENDROOT
BRANCH   1   7
ATOM      7  C   UNL     1      47.409   2.691   5.652  0.00  0.00    +0.000 C 
BRANCH   7   8
ATOM      8  N   UNL     1      48.535   1.763   5.777  0.00  0.00    +0.000 NA
ATOM      9  H   UNL     1      48.747   1.376   4.860  0.00  0.00    +0.000 HD
ATOM     10  H   UNL     1      48.220   0.974   6.347  0.00  0.00    +0.000 HD
ENDBRANCH   7   8
ENDBRANCH   1   7
BRANCH   4  11
ATOM     11  C   UNL     1      44.165   2.930  10.343  0.00  0.00    +0.000 C 
BRANCH  11  12
ATOM     12  O   UNL     1      44.214   4.213  10.968  0.00  0.00    +0.000 OA
BRANCH  12  13
ATOM     13  C   UNL     1      45.223   4.388  11.877  0.00  0.00    +0.000 A 
ATOM     14  C   UNL     1      45.915   5.570  12.102  0.00  0.00    +0.000 A 
ATOM     15  C   UNL     1      46.919   5.566  13.053  0.00  0.00    +0.000 A 
ATOM     16  N   UNL     1      47.254   4.472  13.760  0.00  0.00    +0.000 NA
ATOM     17  N   UNL     1      46.578   3.313  13.550  0.00  0.00    +0.000 NA
ATOM     18  C   UNL     1      45.587   3.284  12.630  0.00  0.00    +0.000 A 
ENDBRANCH  12  13
ENDBRANCH  11  12
ENDBRANCH   4  11
TORSDOF 5
ENDMDL
MODEL 2
REMARK VINA RESULT:    -6.727      1.648      5.795
REMARK INTER + INTRA:          -8.756
REMARK INTER:                  -8.780
REMARK INTRA:                   0.023
REMARK UNBOUND:                -0.260
REMARK  Name = 
REMARK  5 active torsions:
REMARK  status: ('A' for Active; 'I' for Inactive)
REMARK    1  A    between atoms: N_1  and  C_2
REMARK    2  A    between atoms: C_2  and  C_3
REMARK    3  A    between atoms: C_6  and  C_7
REMARK    4  A    between atoms: C_7  and  O_8
REMARK    5  A    between atoms: O_8  and  C_9
REMARK                            x       y       z     vdW  Elec       q    Type
REMARK                         _______ _______ _______ _____ _____    ______ ____
ROOT
ATOM      1  C   UNL     1      46.080   4.542  13.121  0.00  0.00    +0.000 A 
ATOM      2  C   UNL     1      46.168   5.536  12.154  0.00  0.00    +0.000 A 
ATOM      3  N   UNL     1      45.627   5.413  10.918  0.00  0.00    +0.000 NA
ATOM      4  C   UNL     1      44.974   4.248  10.674  0.00  0.00    +0.000 A 
ATOM      5  C   UNL     1      44.895   3.249  11.638  0.00  0.00    +0.000 A 
ATOM      6  N   UNL     1      45.431   3.372  12.875  0.00  0.00    +0.000 NA
ENDROOT
BRANCH   1   7
ATOM      7  C   UNL     1      46.643   4.765  14.502  0.00  0.00    +0.000 C 
BRANCH   7   8
ATOM      8  N   UNL     1      47.390   3.601  14.985  0.00  0.00    +0.000 NA
ATOM      9  H   UNL     1      47.425   2.902  14.246  0.00  0.00    +0.000 HD
ATOM     10  H   UNL     1      46.846   3.180  15.742  0.00  0.00    +0.000 HD
ENDBRANCH   7   8
ENDBRANCH   1   7
BRANCH   4  11
ATOM     11  C   UNL     1      44.272   4.090   9.353  0.00  0.00    +0.000 C 
BRANCH  11  12
ATOM     12  O   UNL     1      45.164   4.348   8.268  0.00  0.00    +0.000 OA
BRANCH  12  13
ATOM     13  C   UNL     1      45.942   3.290   7.880  0.00  0.00    +0.000 A 
ATOM     14  C   UNL     1      46.984   3.344   6.964  0.00  0.00    +0.000 A 
ATOM     15  C   UNL     1      47.659   2.173   6.676  0.00  0.00    +0.000 A 
ATOM     16  N   UNL     1      47.347   0.990   7.237  0.00  0.00    +0.000 NA
ATOM     17  N   UNL     1      46.333   0.930   8.138  0.00  0.00    +0.000 NA
ATOM     18  C   UNL     1      45.655   2.060   8.446  0.00  0.00    +0.000 A 
ENDBRANCH  12  13
ENDBRANCH  11  12
ENDBRANCH   4  11
TORSDOF 5
ENDMDL
MODEL 3
REMARK VINA RESULT:    -6.414      1.513      5.762
REMARK INTER + INTRA:          -8.362
REMARK INTER:                  -7.990
REMARK INTRA:                  -0.371
REMARK UNBOUND:                -0.260
REMARK  Name = 
REMARK  5 active torsions:
REMARK  status: ('A' for Active; 'I' for Inactive)
REMARK    1  A    between atoms: N_1  and  C_2
REMARK    2  A    between atoms: C_2  and  C_3
REMARK    3  A    between atoms: C_6  and  C_7
REMARK    4  A    between atoms: C_7  and  O_8
REMARK    5  A    between atoms: O_8  and  C_9
REMARK                            x       y       z     vdW  Elec       q    Type
REMARK                         _______ _______ _______ _____ _____    ______ ____
ROOT
ATOM      1  C   UNL     1      46.564   5.246  13.533  0.00  0.00    +0.000 A 
ATOM      2  C   UNL     1      46.686   3.864  13.468  0.00  0.00    +0.000 A 
ATOM      3  N   UNL     1      45.787   3.073  12.836  0.00  0.00    +0.000 NA
ATOM      4  C   UNL     1      44.744   3.717  12.251  0.00  0.00    +0.000 A 
ATOM      5  C   UNL     1      44.617   5.099  12.326  0.00  0.00    +0.000 A 
ATOM      6  N   UNL     1      45.517   5.892  12.952  0.00  0.00    +0.000 NA
ENDROOT
BRANCH   1   7
ATOM      7  C   UNL     1      47.636   6.079  14.191  0.00  0.00    +0.000 C 
BRANCH   7   8
ATOM      8  N   UNL     1      48.115   5.473  15.436  0.00  0.00    +0.000 NA
ATOM      9  H   UNL     1      47.339   4.997  15.891  0.00  0.00    +0.000 HD
ATOM     10  H   UNL     1      48.383   6.234  16.064  0.00  0.00    +0.000 HD
ENDBRANCH   7   8
ENDBRANCH   1   7
BRANCH   4  11
ATOM     11  C   UNL     1      43.762   2.902  11.455  0.00  0.00    +0.000 C 
BRANCH  11  12
ATOM     12  O   UNL     1      43.606   3.436  10.140  0.00  0.00    +0.000 OA
BRANCH  12  13
ATOM     13  C   UNL     1      44.619   3.150   9.264  0.00  0.00    +0.000 A 
ATOM     14  C   UNL     1      45.153   1.892   9.026  0.00  0.00    +0.000 A 
ATOM     15  C   UNL     1      46.186   1.785   8.113  0.00  0.00    +0.000 A 
ATOM     16  N   UNL     1      46.696   2.844   7.456  0.00  0.00    +0.000 NA
ATOM     17  N   UNL     1      46.174   4.077   7.680  0.00  0.00    +0.000 NA
ATOM     18  C   UNL     1      45.159   4.215   8.563  0.00  0.00    +0.000 A 
ENDBRANCH  12  13
ENDBRANCH  11  12
ENDBRANCH   4  11
TORSDOF 5
ENDMDL
MODEL 4
REMARK VINA RESULT:    -6.302      2.264      6.015
REMARK INTER + INTRA:          -8.221
REMARK INTER:                  -7.963
REMARK INTRA:                  -0.258
REMARK UNBOUND:                -0.260
REMARK  Name = 
REMARK  5 active torsions:
REMARK  status: ('A' for Active; 'I' for Inactive)
REMARK    1  A    between atoms: N_1  and  C_2
REMARK    2  A    between atoms: C_2  and  C_3
REMARK    3  A    between atoms: C_6  and  C_7
REMARK    4  A    between atoms: C_7  and  O_8
REMARK    5  A    between atoms: O_8  and  C_9
REMARK                            x       y       z     vdW  Elec       q    Type
REMARK                         _______ _______ _______ _____ _____    ______ ____
ROOT
ATOM      1  C   UNL     1      45.500   6.853  12.271  0.00  0.00    +0.000 A 
ATOM      2  C   UNL     1      46.128   6.596  11.058  0.00  0.00    +0.000 A 
ATOM      3  N   UNL     1      45.842   5.515  10.294  0.00  0.00    +0.000 NA
ATOM      4  C   UNL     1      44.886   4.685  10.781  0.00  0.00    +0.000 A 
ATOM      5  C   UNL     1      44.265   4.936  12.000  0.00  0.00    +0.000 A 
ATOM      6  N   UNL     1      44.545   6.018  12.763  0.00  0.00    +0.000 NA
ENDROOT
BRANCH   1   7
ATOM      7  C   UNL     1      45.812   8.110  13.044  0.00  0.00    +0.000 C 
BRANCH   7   8
ATOM      8  N   UNL     1      44.826   9.165  12.795  0.00  0.00    +0.000 NA
ATOM      9  H   UNL     1      43.927   8.734  12.589  0.00  0.00    +0.000 HD
ATOM     10  H   UNL     1      45.106   9.650  11.939  0.00  0.00    +0.000 HD
ENDBRANCH   7   8
ENDBRANCH   1   7
BRANCH   4  11
ATOM     11  C   UNL     1      44.458   3.518   9.934  0.00  0.00    +0.000 C 
BRANCH  11  12
ATOM     12  O   UNL     1      44.767   3.746   8.559  0.00  0.00    +0.000 OA
BRANCH  12  13
ATOM     13  C   UNL     1      45.759   2.958   8.039  0.00  0.00    +0.000 A 
ATOM     14  C   UNL     1      46.746   3.375   7.157  0.00  0.00    +0.000 A 
ATOM     15  C   UNL     1      47.665   2.440   6.718  0.00  0.00    +0.000 A 
ATOM     16  N   UNL     1      47.639   1.150   7.103  0.00  0.00    +0.000 NA
ATOM     17  N   UNL     1      46.680   0.736   7.971  0.00  0.00    +0.000 NA
ATOM     18  C   UNL     1      45.768   1.628   8.422  0.00  0.00    +0.000 A 
ENDBRANCH  12  13
ENDBRANCH  11  12
ENDBRANCH   4  11
TORSDOF 5
ENDMDL
MODEL 5
REMARK VINA RESULT:    -6.104      1.816      6.025
REMARK INTER + INTRA:          -7.970
REMARK INTER:                  -7.746
REMARK INTRA:                  -0.224
REMARK UNBOUND:                -0.260
REMARK  Name = 
REMARK  5 active torsions:
REMARK  status: ('A' for Active; 'I' for Inactive)
REMARK    1  A    between atoms: N_1  and  C_2
REMARK    2  A    between atoms: C_2  and  C_3
REMARK    3  A    between atoms: C_6  and  C_7
REMARK    4  A    between atoms: C_7  and  O_8
REMARK    5  A    between atoms: O_8  and  C_9
REMARK                            x       y       z     vdW  Elec       q    Type
REMARK                         _______ _______ _______ _____ _____    ______ ____
ROOT
ATOM      1  C   UNL     1      45.316   5.115  12.356  0.00  0.00    +0.000 A 
ATOM      2  C   UNL     1      45.348   5.482  11.016  0.00  0.00    +0.000 A 
ATOM      3  N   UNL     1      45.107   4.612  10.007  0.00  0.00    +0.000 NA
ATOM      4  C   UNL     1      44.820   3.339  10.382  0.00  0.00    +0.000 A 
ATOM      5  C   UNL     1      44.799   2.969  11.722  0.00  0.00    +0.000 A 
ATOM      6  N   UNL     1      45.034   3.839  12.733  0.00  0.00    +0.000 NA
ENDROOT
BRANCH   1   7
ATOM      7  C   UNL     1      45.524   6.145  13.438  0.00  0.00    +0.000 C 
BRANCH   7   8
ATOM      8  N   UNL     1      45.117   7.484  13.005  0.00  0.00    +0.000 NA
ATOM      9  H   UNL     1      44.111   7.490  12.851  0.00  0.00    +0.000 HD
ATOM     10  H   UNL     1      45.541   7.653  12.090  0.00  0.00    +0.000 HD
ENDBRANCH   7   8
ENDBRANCH   1   7
BRANCH   4  11
ATOM     11  C   UNL     1      44.453   2.348   9.312  0.00  0.00    +0.000 C 
BRANCH  11  12
ATOM     12  O   UNL     1      45.578   1.548   8.951  0.00  0.00    +0.000 OA
BRANCH  12  13
ATOM     13  C   UNL     1      46.249   1.947   7.826  0.00  0.00    +0.000 A 
ATOM     14  C   UNL     1      45.910   3.024   7.020  0.00  0.00    +0.000 A 
ATOM     15  C   UNL     1      46.693   3.279   5.909  0.00  0.00    +0.000 A 
ATOM     16  N   UNL     1      47.759   2.527   5.576  0.00  0.00    +0.000 NA
ATOM     17  N   UNL     1      48.100   1.474   6.363  0.00  0.00    +0.000 NA
ATOM     18  C   UNL     1      47.357   1.201   7.460  0.00  0.00    +0.000 A 
ENDBRANCH  12  13
ENDBRANCH  11  12
ENDBRANCH   4  11
TORSDOF 5
ENDMDL
MODEL 6
REMARK VINA RESULT:    -5.965      1.459      5.790
REMARK INTER + INTRA:          -7.795
REMARK INTER:                  -7.550
REMARK INTRA:                  -0.245
REMARK UNBOUND:                -0.260
REMARK  Name = 
REMARK  5 active torsions:
REMARK  status: ('A' for Active; 'I' for Inactive)
REMARK    1  A    between atoms: N_1  and  C_2
REMARK    2  A    between atoms: C_2  and  C_3
REMARK    3  A    between atoms: C_6  and  C_7
REMARK    4  A    between atoms: C_7  and  O_8
REMARK    5  A    between atoms: O_8  and  C_9
REMARK                            x       y       z     vdW  Elec       q    Type
REMARK                         _______ _______ _______ _____ _____    ______ ____
ROOT
ATOM      1  C   UNL     1      46.758   5.483  13.098  0.00  0.00    +0.000 A 
ATOM      2  C   UNL     1      46.482   6.287  11.999  0.00  0.00    +0.000 A 
ATOM      3  N   UNL     1      45.556   5.966  11.064  0.00  0.00    +0.000 NA
ATOM      4  C   UNL     1      44.895   4.798  11.266  0.00  0.00    +0.000 A 
ATOM      5  C   UNL     1      45.178   3.988  12.360  0.00  0.00    +0.000 A 
ATOM      6  N   UNL     1      46.099   4.310  13.299  0.00  0.00    +0.000 NA
ENDROOT
BRANCH   1   7
ATOM      7  C   UNL     1      47.750   5.928  14.143  0.00  0.00    +0.000 C 
BRANCH   7   8
ATOM      8  N   UNL     1      47.501   5.296  15.440  0.00  0.00    +0.000 NA
ATOM      9  H   UNL     1      48.342   4.804  15.735  0.00  0.00    +0.000 HD
ATOM     10  H   UNL     1      46.790   4.574  15.299  0.00  0.00    +0.000 HD
ENDBRANCH   7   8
ENDBRANCH   1   7
BRANCH   4  11
ATOM     11  C   UNL     1      43.790   4.432  10.313  0.00  0.00    +0.000 C 
BRANCH  11  12
ATOM     12  O   UNL     1      43.955   3.099   9.830  0.00  0.00    +0.000 OA
BRANCH  12  13
ATOM     13  C   UNL     1      44.941   2.928   8.894  0.00  0.00    +0.000 A 
ATOM     14  C   UNL     1      45.409   3.903   8.024  0.00  0.00    +0.000 A 
ATOM     15  C   UNL     1      46.404   3.554   7.130  0.00  0.00    +0.000 A 
ATOM     16  N   UNL     1      46.929   2.317   7.064  0.00  0.00    +0.000 NA
ATOM     17  N   UNL     1      46.480   1.359   7.915  0.00  0.00    +0.000 NA
ATOM     18  C   UNL     1      45.510   1.669   8.806  0.00  0.00    +0.000 A 
ENDBRANCH  12  13
ENDBRANCH  11  12
ENDBRANCH   4  11
TORSDOF 5
ENDMDL
MODEL 7
REMARK VINA RESULT:    -5.609      1.913      2.677
REMARK INTER + INTRA:          -7.344
REMARK INTER:                  -7.024
REMARK INTRA:                  -0.321
REMARK UNBOUND:                -0.260
REMARK  Name = 
REMARK  5 active torsions:
REMARK  status: ('A' for Active; 'I' for Inactive)
REMARK    1  A    between atoms: N_1  and  C_2
REMARK    2  A    between atoms: C_2  and  C_3
REMARK    3  A    between atoms: C_6  and  C_7
REMARK    4  A    between atoms: C_7  and  O_8
REMARK    5  A    between atoms: O_8  and  C_9
REMARK                            x       y       z     vdW  Elec       q    Type
REMARK                         _______ _______ _______ _____ _____    ______ ____
ROOT
ATOM      1  C   UNL     1      45.581   3.790   8.299  0.00  0.00    +0.000 A 
ATOM      2  C   UNL     1      44.882   3.078   9.267  0.00  0.00    +0.000 A 
ATOM      3  N   UNL     1      44.605   3.578  10.494  0.00  0.00    +0.000 NA
ATOM      4  C   UNL     1      45.048   4.839  10.730  0.00  0.00    +0.000 A 
ATOM      5  C   UNL     1      45.757   5.548   9.766  0.00  0.00    +0.000 A 
ATOM      6  N   UNL     1      46.030   5.052   8.537  0.00  0.00    +0.000 NA
ENDROOT
BRANCH   1   7
ATOM      7  C   UNL     1      45.798   3.206   6.926  0.00  0.00    +0.000 C 
BRANCH   7   8
ATOM      8  N   UNL     1      46.882   3.880   6.208  0.00  0.00    +0.000 NA
ATOM      9  H   UNL     1      46.681   3.858   5.210  0.00  0.00    +0.000 HD
ATOM     10  H   UNL     1      47.729   3.319   6.334  0.00  0.00    +0.000 HD
ENDBRANCH   7   8
ENDBRANCH   1   7
BRANCH   4  11
ATOM     11  C   UNL     1      44.691   5.485  12.041  0.00  0.00    +0.000 C 
BRANCH  11  12
ATOM     12  O   UNL     1      45.746   6.331  12.496  0.00  0.00    +0.000 OA
BRANCH  12  13
ATOM     13  C   UNL     1      46.525   5.817  13.499  0.00  0.00    +0.000 A 
ATOM     14  C   UNL     1      46.261   4.658  14.215  0.00  0.00    +0.000 A 
ATOM     15  C   UNL     1      47.150   4.289  15.207  0.00  0.00    +0.000 A 
ATOM     16  N   UNL     1      48.249   5.005  15.510  0.00  0.00    +0.000 NA
ATOM     17  N   UNL     1      48.517   6.138  14.810  0.00  0.00    +0.000 NA
ATOM     18  C   UNL     1      47.669   6.523  13.828  0.00  0.00    +0.000 A 
ENDBRANCH  12  13
ENDBRANCH  11  12
ENDBRANCH   4  11
TORSDOF 5
ENDMDL
MODEL 8
REMARK VINA RESULT:    -5.455      3.641      7.835
REMARK INTER + INTRA:          -7.150
REMARK INTER:                  -6.912
REMARK INTRA:                  -0.238
REMARK UNBOUND:                -0.260
REMARK  Name = 
REMARK  5 active torsions:
REMARK  status: ('A' for Active; 'I' for Inactive)
REMARK    1  A    between atoms: N_1  and  C_2
REMARK    2  A    between atoms: C_2  and  C_3
REMARK    3  A    between atoms: C_6  and  C_7
REMARK    4  A    between atoms: C_7  and  O_8
REMARK    5  A    between atoms: O_8  and  C_9
REMARK                            x       y       z     vdW  Elec       q    Type
REMARK                         _______ _______ _______ _____ _____    ______ ____
ROOT
ATOM      1  C   UNL     1      48.396   4.472  17.789  0.00  0.00    +0.000 A 
ATOM      2  C   UNL     1      47.448   3.556  17.350  0.00  0.00    +0.000 A 
ATOM      3  N   UNL     1      46.863   3.629  16.130  0.00  0.00    +0.000 NA
ATOM      4  C   UNL     1      47.266   4.659  15.344  0.00  0.00    +0.000 A 
ATOM      5  C   UNL     1      48.207   5.581  15.788  0.00  0.00    +0.000 A 
ATOM      6  N   UNL     1      48.797   5.507  17.003  0.00  0.00    +0.000 NA
ENDROOT
BRANCH   1   7
ATOM      7  C   UNL     1      49.064   4.298  19.131  0.00  0.00    +0.000 C 
BRANCH   7   8
ATOM      8  N   UNL     1      48.410   3.267  19.939  0.00  0.00    +0.000 NA
ATOM      9  H   UNL     1      48.906   2.387  19.815  0.00  0.00    +0.000 HD
ATOM     10  H   UNL     1      47.476   3.118  19.550  0.00  0.00    +0.000 HD
ENDBRANCH   7   8
ENDBRANCH   1   7
BRANCH   4  11
ATOM     11  C   UNL     1      46.721   4.740  13.944  0.00  0.00    +0.000 C 
BRANCH  11  12
ATOM     12  O   UNL     1      45.569   3.910  13.797  0.00  0.00    +0.000 OA
BRANCH  12  13
ATOM     13  C   UNL     1      44.956   3.962  12.573  0.00  0.00    +0.000 A 
ATOM     14  C   UNL     1      45.326   4.783  11.517  0.00  0.00    +0.000 A 
ATOM     15  C   UNL     1      44.586   4.718  10.351  0.00  0.00    +0.000 A 
ATOM     16  N   UNL     1      43.526   3.902  10.201  0.00  0.00    +0.000 NA
ATOM     17  N   UNL     1      43.161   3.092  11.228  0.00  0.00    +0.000 NA
ATOM     18  C   UNL     1      43.869   3.128  12.381  0.00  0.00    +0.000 A 
ENDBRANCH  12  13
ENDBRANCH  11  12
ENDBRANCH   4  11
TORSDOF 5
ENDMDL
MODEL 9
REMARK VINA RESULT:    -5.109      3.414      5.047
REMARK INTER + INTRA:          -6.713
REMARK INTER:                  -6.480
REMARK INTRA:                  -0.233
REMARK UNBOUND:                -0.260
REMARK  Name = 
REMARK  5 active torsions:
REMARK  status: ('A' for Active; 'I' for Inactive)
REMARK    1  A    between atoms: N_1  and  C_2
REMARK    2  A    between atoms: C_2  and  C_3
REMARK    3  A    between atoms: C_6  and  C_7
REMARK    4  A    between atoms: C_7  and  O_8
REMARK    5  A    between atoms: O_8  and  C_9
REMARK                            x       y       z     vdW  Elec       q    Type
REMARK                         _______ _______ _______ _____ _____    ______ ____
ROOT
ATOM      1  C   UNL     1      44.808   4.377  10.661  0.00  0.00    +0.000 A 
ATOM      2  C   UNL     1      45.497   5.546  10.961  0.00  0.00    +0.000 A 
ATOM      3  N   UNL     1      46.189   5.719  12.112  0.00  0.00    +0.000 NA
ATOM      4  C   UNL     1      46.179   4.668  12.970  0.00  0.00    +0.000 A 
ATOM      5  C   UNL     1      45.480   3.502  12.675  0.00  0.00    +0.000 A 
ATOM      6  N   UNL     1      44.793   3.324  11.523  0.00  0.00    +0.000 NA
ENDROOT
BRANCH   1   7
ATOM      7  C   UNL     1      44.114   4.216   9.332  0.00  0.00    +0.000 C 
BRANCH   7   8
ATOM      8  N   UNL     1      44.397   2.917   8.718  0.00  0.00    +0.000 NA
ATOM      9  H   UNL     1      45.070   3.047   7.966  0.00  0.00    +0.000 HD
ATOM     10  H   UNL     1      43.536   2.595   8.269  0.00  0.00    +0.000 HD
ENDBRANCH   7   8
ENDBRANCH   1   7
BRANCH   4  11
ATOM     11  C   UNL     1      47.005   4.765  14.223  0.00  0.00    +0.000 C 
BRANCH  11  12
ATOM     12  O   UNL     1      46.858   3.591  15.022  0.00  0.00    +0.000 OA
BRANCH  12  13
ATOM     13  C   UNL     1      47.600   3.564  16.173  0.00  0.00    +0.000 A 
ATOM     14  C   UNL     1      48.593   2.642  16.475  0.00  0.00    +0.000 A 
ATOM     15  C   UNL     1      49.236   2.754  17.694  0.00  0.00    +0.000 A 
ATOM     16  N   UNL     1      48.937   3.708  18.596  0.00  0.00    +0.000 NA
ATOM     17  N   UNL     1      47.971   4.617  18.305  0.00  0.00    +0.000 NA
ATOM     18  C   UNL     1      47.326   4.538  17.118  0.00  0.00    +0.000 A 
ENDBRANCH  12  13
ENDBRANCH  11  12
ENDBRANCH   4  11
TORSDOF 5
ENDMDL
