MODEL 1
REMARK VINA RESULT:    -7.019      0.000      0.000
REMARK INTER + INTRA:         -10.026
REMARK INTER:                  -9.480
REMARK INTRA:                  -0.546
REMARK UNBOUND:                -0.546
REMARK  Name = 
REMARK  10 active torsions:
REMARK  status: ('A' for Active; 'I' for Inactive)
REMARK    1  A    between atoms: C_1  and  O_2
REMARK    2  A    between atoms: O_2  and  C_3
REMARK    3  A    between atoms: C_3  and  C_5
REMARK    4  A    between atoms: N_9  and  C_10
REMARK    5  A    between atoms: C_10  and  C_11
REMARK    6  A    between atoms: C_11  and  C_12
REMARK    7  A    between atoms: C_11  and  C_13
REMARK    8  A    between atoms: C_11  and  C_14
REMARK    9  A    between atoms: C_17  and  O_18
REMARK   10  A    between atoms: O_18  and  C_19
REMARK                            x       y       z     vdW  Elec       q    Type
REMARK                         _______ _______ _______ _____ _____    ______ ____
ROOT
ATOM      1  C   UNL     1      48.538   5.531  16.127  0.00  0.00    +0.000 A 
ATOM      2  C   UNL     1      48.316   6.265  14.968  0.00  0.00    +0.000 A 
ATOM      3  C   UNL     1      47.327   5.846  14.082  0.00  0.00    +0.000 A 
ATOM      4  C   UNL     1      46.579   4.704  14.355  0.00  0.00    +0.000 A 
ATOM      5  N   UNL     1      45.600   4.234  13.517  0.00  0.00    +0.000 N 
ATOM      6  N   UNL     1      46.783   3.987  15.479  0.00  0.00    +0.000 NA
ATOM      7  C   UNL     1      47.747   4.413  16.338  0.00  0.00    +0.000 A 
ATOM      8  H   UNL     1      45.182   3.361  13.809  0.00  0.00    +0.000 HD
ENDROOT
BRANCH   1   9
ATOM      9  C   UNL     1      49.576   5.876  17.120  0.00  0.00    +0.000 C 
ATOM     10  O   UNL     1      49.449   6.763  17.943  0.00  0.00    +0.000 OA
BRANCH   9  12
ATOM     11  C   UNL     1      50.969   4.308  18.150  0.00  0.00    +0.000 C 
ATOM     12  O   UNL     1      50.656   5.064  16.980  0.00  0.00    +0.000 OA
ENDBRANCH   9  12
ENDBRANCH   1   9
BRANCH   5  13
ATOM     13  C   UNL     1      45.231   4.907  12.284  0.00  0.00    +0.000 C 
BRANCH  13  14
ATOM     14  C   UNL     1      44.161   4.170  11.436  0.00  0.00    +0.000 C 
ATOM     15  C   UNL     1      43.654   2.933  12.203  0.00  0.00    +0.000 C 
ATOM     16  C   UNL     1      42.975   5.114  11.142  0.00  0.00    +0.000 C 
BRANCH  14  17
ATOM     17  C   UNL     1      44.802   3.742  10.100  0.00  0.00    +0.000 A 
ATOM     18  C   UNL     1      45.328   4.689   9.223  0.00  0.00    +0.000 A 
ATOM     19  C   UNL     1      45.941   4.275   8.040  0.00  0.00    +0.000 A 
ATOM     20  C   UNL     1      46.019   2.920   7.738  0.00  0.00    +0.000 A 
ATOM     21  C   UNL     1      45.464   2.042   8.655  0.00  0.00    +0.000 A 
ATOM     22  N   UNL     1      44.865   2.418   9.814  0.00  0.00    +0.000 NA
BRANCH  20  23
ATOM     23  O   UNL     1      46.590   2.374   6.627  0.00  0.00    +0.000 OA
ATOM     24  C   UNL     1      47.831   1.703   6.825  0.00  0.00    +0.000 C 
ENDBRANCH  20  23
ENDBRANCH  14  17
ENDBRANCH  13  14
ENDBRANCH   5  13
TORSDOF 6
ENDMDL
MODEL 2
REMARK VINA RESULT:    -6.465      2.824      8.260
REMARK INTER + INTRA:          -9.278
REMARK INTER:                  -8.559
REMARK INTRA:                  -0.719
REMARK UNBOUND:                -0.546
REMARK  Name = 
REMARK  10 active torsions:
REMARK  status: ('A' for Active; 'I' for Inactive)
REMARK    1  A    between atoms: C_1  and  O_2
REMARK    2  A    between atoms: O_2  and  C_3
REMARK    3  A    between atoms: C_3  and  C_5
REMARK    4  A    between atoms: N_9  and  C_10
REMARK    5  A    between atoms: C_10  and  C_11
REMARK    6  A    between atoms: C_11  and  C_12
REMARK    7  A    between atoms: C_11  and  C_13
REMARK    8  A    between atoms: C_11  and  C_14
REMARK    9  A    between atoms: C_17  and  O_18
REMARK   10  A    between atoms: O_18  and  C_19
REMARK                            x       y       z     vdW  Elec       q    Type
REMARK                         _______ _______ _______ _____ _____    ______ ____
ROOT
ATOM      1  C   UNL     1      45.537   5.009  11.780  0.00  0.00    +0.000 A 
ATOM      2  C   UNL     1      46.433   6.018  12.113  0.00  0.00    +0.000 A 
ATOM      3  C   UNL     1      47.051   5.988  13.361  0.00  0.00    +0.000 A 
ATOM      4  C   UNL     1      46.767   4.963  14.259  0.00  0.00    +0.000 A 
ATOM      5  N   UNL     1      47.335   4.885  15.506  0.00  0.00    +0.000 N 
ATOM      6  N   UNL     1      45.904   3.976  13.945  0.00  0.00    +0.000 NA
ATOM      7  C   UNL     1      45.313   4.015  12.720  0.00  0.00    +0.000 A 
ATOM      8  H   UNL     1      46.990   4.124  16.075  0.00  0.00    +0.000 HD
ENDROOT
BRANCH   1   9
ATOM      9  C   UNL     1      44.812   4.959  10.494  0.00  0.00    +0.000 C 
ATOM     10  O   UNL     1      45.360   5.031   9.411  0.00  0.00    +0.000 OA
BRANCH   9  12
ATOM     11  C   UNL     1      42.843   5.975  11.238  0.00  0.00    +0.000 C 
ATOM     12  O   UNL     1      43.478   4.812  10.707  0.00  0.00    +0.000 OA
ENDBRANCH   9  12
ENDBRANCH   1   9
BRANCH   5  13
ATOM     13  C   UNL     1      48.310   5.847  15.988  0.00  0.00    +0.000 C 
BRANCH  13  14
ATOM     14  C   UNL     1      48.838   5.575  17.421  0.00  0.00    +0.000 C 
ATOM     15  C   UNL     1      49.675   6.778  17.901  0.00  0.00    +0.000 C 
ATOM     16  C   UNL     1      47.657   5.353  18.389  0.00  0.00    +0.000 C 
BRANCH  14  17
ATOM     17  C   UNL     1      49.707   4.301  17.391  0.00  0.00    +0.000 A 
ATOM     18  C   UNL     1      51.033   4.329  17.821  0.00  0.00    +0.000 A 
ATOM     19  C   UNL     1      51.786   3.154  17.825  0.00  0.00    +0.000 A 
ATOM     20  C   UNL     1      51.214   1.963  17.393  0.00  0.00    +0.000 A 
ATOM     21  C   UNL     1      49.895   2.020  16.972  0.00  0.00    +0.000 A 
ATOM     22  N   UNL     1      49.139   3.147  16.961  0.00  0.00    +0.000 NA
BRANCH  20  23
ATOM     23  O   UNL     1      51.827   0.747  17.348  0.00  0.00    +0.000 OA
ATOM     24  C   UNL     1      53.182   0.710  17.784  0.00  0.00    +0.000 C 
ENDBRANCH  20  23
ENDBRANCH  14  17
ENDBRANCH  13  14
ENDBRANCH   5  13
TORSDOF 6
ENDMDL
MODEL 3
REMARK VINA RESULT:    -6.351      2.899      3.519
REMARK INTER + INTRA:          -9.125
REMARK INTER:                  -8.232
REMARK INTRA:                  -0.893
REMARK UNBOUND:                -0.546
REMARK  Name = 
REMARK  10 active torsions:
REMARK  status: ('A' for Active; 'I' for Inactive)
REMARK    1  A    between atoms: C_1  and  O_2
REMARK    2  A    between atoms: O_2  and  C_3
REMARK    3  A    between atoms: C_3  and  C_5
REMARK    4  A    between atoms: N_9  and  C_10
REMARK    5  A    between atoms: C_10  and  C_11
REMARK    6  A    between atoms: C_11  and  C_12
REMARK    7  A    between atoms: C_11  and  C_13
REMARK    8  A    between atoms: C_11  and  C_14
REMARK    9  A    between atoms: C_17  and  O_18
REMARK   10  A    between atoms: O_18  and  C_19
REMARK                            x       y       z     vdW  Elec       q    Type
REMARK                         _______ _______ _______ _____ _____    ______ ____
ROOT
ATOM      1  C   UNL     1      49.487   7.814  12.727  0.00  0.00    +0.000 A 
ATOM      2  C   UNL     1      48.502   8.093  11.786  0.00  0.00    +0.000 A 
ATOM      3  C   UNL     1      47.228   7.559  11.963  0.00  0.00    +0.000 A 
ATOM      4  C   UNL     1      46.952   6.753  13.064  0.00  0.00    +0.000 A 
ATOM      5  N   UNL     1      45.722   6.189  13.288  0.00  0.00    +0.000 N 
ATOM      6  N   UNL     1      47.898   6.480  13.986  0.00  0.00    +0.000 NA
ATOM      7  C   UNL     1      49.136   7.015  13.803  0.00  0.00    +0.000 A 
ATOM      8  H   UNL     1      45.682   5.577  14.091  0.00  0.00    +0.000 HD
ENDROOT
BRANCH   1   9
ATOM      9  C   UNL     1      50.873   8.311  12.622  0.00  0.00    +0.000 C 
ATOM     10  O   UNL     1      51.572   8.561  13.586  0.00  0.00    +0.000 OA
BRANCH   9  12
ATOM     11  C   UNL     1      52.503   9.064  11.124  0.00  0.00    +0.000 C 
ATOM     12  O   UNL     1      51.237   8.431  11.319  0.00  0.00    +0.000 OA
ENDBRANCH   9  12
ENDBRANCH   1   9
BRANCH   5  13
ATOM     13  C   UNL     1      44.585   6.411  12.412  0.00  0.00    +0.000 C 
BRANCH  13  14
ATOM     14  C   UNL     1      43.791   5.131  12.040  0.00  0.00    +0.000 C 
ATOM     15  C   UNL     1      43.871   4.117  13.198  0.00  0.00    +0.000 C 
ATOM     16  C   UNL     1      42.313   5.484  11.767  0.00  0.00    +0.000 C 
BRANCH  14  17
ATOM     17  C   UNL     1      44.406   4.527  10.761  0.00  0.00    +0.000 A 
ATOM     18  C   UNL     1      44.149   3.205  10.399  0.00  0.00    +0.000 A 
ATOM     19  C   UNL     1      44.682   2.694   9.215  0.00  0.00    +0.000 A 
ATOM     20  C   UNL     1      45.471   3.503   8.404  0.00  0.00    +0.000 A 
ATOM     21  C   UNL     1      45.688   4.801   8.838  0.00  0.00    +0.000 A 
ATOM     22  N   UNL     1      45.180   5.324   9.982  0.00  0.00    +0.000 NA
BRANCH  20  23
ATOM     23  O   UNL     1      46.049   3.139   7.225  0.00  0.00    +0.000 OA
ATOM     24  C   UNL     1      46.909   2.004   7.271  0.00  0.00    +0.000 C 
ENDBRANCH  20  23
ENDBRANCH  14  17
ENDBRANCH  13  14
ENDBRANCH   5  13
TORSDOF 6
ENDMDL
MODEL 4
REMARK VINA RESULT:    -6.228      2.464      8.156
REMARK INTER + INTRA:          -8.958
REMARK INTER:                  -7.841
REMARK INTRA:                  -1.117
REMARK UNBOUND:                -0.546
REMARK  Name = 
REMARK  10 active torsions:
REMARK  status: ('A' for Active; 'I' for Inactive)
REMARK    1  A    between atoms: C_1  and  O_2
REMARK    2  A    between atoms: O_2  and  C_3
REMARK    3  A    between atoms: C_3  and  C_5
REMARK    4  A    between atoms: N_9  and  C_10
REMARK    5  A    between atoms: C_10  and  C_11
REMARK    6  A    between atoms: C_11  and  C_12
REMARK    7  A    between atoms: C_11  and  C_13
REMARK    8  A    between atoms: C_11  and  C_14
REMARK    9  A    between atoms: C_17  and  O_18
REMARK   10  A    between atoms: O_18  and  C_19
REMARK                            x       y       z     vdW  Elec       q    Type
REMARK                         _______ _______ _______ _____ _____    ______ ____
ROOT
ATOM      1  C   UNL     1      44.776   4.389  11.214  0.00  0.00    +0.000 A 
ATOM      2  C   UNL     1      45.554   5.350  10.580  0.00  0.00    +0.000 A 
ATOM      3  C   UNL     1      46.116   6.374  11.339  0.00  0.00    +0.000 A 
ATOM      4  C   UNL     1      45.893   6.431  12.712  0.00  0.00    +0.000 A 
ATOM      5  N   UNL     1      46.409   7.418  13.512  0.00  0.00    +0.000 N 
ATOM      6  N   UNL     1      45.145   5.500  13.339  0.00  0.00    +0.000 NA
ATOM      7  C   UNL     1      44.609   4.503  12.585  0.00  0.00    +0.000 A 
ATOM      8  H   UNL     1      46.115   7.371  14.478  0.00  0.00    +0.000 HD
ENDROOT
BRANCH   1   9
ATOM      9  C   UNL     1      44.118   3.277  10.499  0.00  0.00    +0.000 C 
ATOM     10  O   UNL     1      43.263   2.570  10.998  0.00  0.00    +0.000 OA
BRANCH   9  12
ATOM     11  C   UNL     1      45.242   1.939   8.946  0.00  0.00    +0.000 C 
ATOM     12  O   UNL     1      44.594   3.180   9.230  0.00  0.00    +0.000 OA
ENDBRANCH   9  12
ENDBRANCH   1   9
BRANCH   5  13
ATOM     13  C   UNL     1      47.264   8.476  13.002  0.00  0.00    +0.000 C 
BRANCH  13  14
ATOM     14  C   UNL     1      48.743   8.396  13.464  0.00  0.00    +0.000 C 
ATOM     15  C   UNL     1      49.535   7.479  12.511  0.00  0.00    +0.000 C 
ATOM     16  C   UNL     1      49.376   9.804  13.465  0.00  0.00    +0.000 C 
BRANCH  14  17
ATOM     17  C   UNL     1      48.780   7.831  14.898  0.00  0.00    +0.000 A 
ATOM     18  C   UNL     1      48.700   8.677  16.004  0.00  0.00    +0.000 A 
ATOM     19  C   UNL     1      48.691   8.138  17.291  0.00  0.00    +0.000 A 
ATOM     20  C   UNL     1      48.771   6.762  17.466  0.00  0.00    +0.000 A 
ATOM     21  C   UNL     1      48.859   5.989  16.319  0.00  0.00    +0.000 A 
ATOM     22  N   UNL     1      48.865   6.486  15.056  0.00  0.00    +0.000 NA
BRANCH  20  23
ATOM     23  O   UNL     1      48.769   6.101  18.658  0.00  0.00    +0.000 OA
ATOM     24  C   UNL     1      48.595   4.689  18.592  0.00  0.00    +0.000 C 
ENDBRANCH  20  23
ENDBRANCH  14  17
ENDBRANCH  13  14
ENDBRANCH   5  13
TORSDOF 6
ENDMDL
MODEL 5
REMARK VINA RESULT:    -6.082      2.384      8.540
REMARK INTER + INTRA:          -8.760
REMARK INTER:                  -8.185
REMARK INTRA:                  -0.575
REMARK UNBOUND:                -0.546
REMARK  Name = 
REMARK  10 active torsions:
REMARK  status: ('A' for Active; 'I' for Inactive)
REMARK    1  A    between atoms: C_1  and  O_2
REMARK    2  A    between atoms: O_2  and  C_3
REMARK    3  A    between atoms: C_3  and  C_5
REMARK    4  A    between atoms: N_9  and  C_10
REMARK    5  A    between atoms: C_10  and  C_11
REMARK    6  A    between atoms: C_11  and  C_12
REMARK    7  A    between atoms: C_11  and  C_13
REMARK    8  A    between atoms: C_11  and  C_14
REMARK    9  A    between atoms: C_17  and  O_18
REMARK   10  A    between atoms: O_18  and  C_19
REMARK                            x       y       z     vdW  Elec       q    Type
REMARK                         _______ _______ _______ _____ _____    ______ ____
ROOT
ATOM      1  C   UNL     1      45.010   4.203  11.373  0.00  0.00    +0.000 A 
ATOM      2  C   UNL     1      45.432   3.190  12.225  0.00  0.00    +0.000 A 
ATOM      3  C   UNL     1      46.101   3.529  13.398  0.00  0.00    +0.000 A 
ATOM      4  C   UNL     1      46.348   4.864  13.705  0.00  0.00    +0.000 A 
ATOM      5  N   UNL     1      47.011   5.260  14.838  0.00  0.00    +0.000 N 
ATOM      6  N   UNL     1      45.939   5.856  12.887  0.00  0.00    +0.000 NA
ATOM      7  C   UNL     1      45.280   5.510  11.749  0.00  0.00    +0.000 A 
ATOM      8  H   UNL     1      47.175   6.256  14.901  0.00  0.00    +0.000 HD
ENDROOT
BRANCH   1   9
ATOM      9  C   UNL     1      44.313   3.952  10.095  0.00  0.00    +0.000 C 
ATOM     10  O   UNL     1      43.628   4.783   9.529  0.00  0.00    +0.000 OA
BRANCH   9  12
ATOM     11  C   UNL     1      45.294   2.629   8.436  0.00  0.00    +0.000 C 
ATOM     12  O   UNL     1      44.560   2.689   9.660  0.00  0.00    +0.000 OA
ENDBRANCH   9  12
ENDBRANCH   1   9
BRANCH   5  13
ATOM     13  C   UNL     1      47.486   4.322  15.839  0.00  0.00    +0.000 C 
BRANCH  13  14
ATOM     14  C   UNL     1      48.354   4.952  16.961  0.00  0.00    +0.000 C 
ATOM     15  C   UNL     1      48.854   6.339  16.512  0.00  0.00    +0.000 C 
ATOM     16  C   UNL     1      47.524   5.099  18.254  0.00  0.00    +0.000 C 
BRANCH  14  17
ATOM     17  C   UNL     1      49.551   4.019  17.238  0.00  0.00    +0.000 A 
ATOM     18  C   UNL     1      49.439   2.640  17.063  0.00  0.00    +0.000 A 
ATOM     19  C   UNL     1      50.548   1.821  17.278  0.00  0.00    +0.000 A 
ATOM     20  C   UNL     1      51.757   2.382  17.673  0.00  0.00    +0.000 A 
ATOM     21  C   UNL     1      51.785   3.758  17.835  0.00  0.00    +0.000 A 
ATOM     22  N   UNL     1      50.723   4.578  17.629  0.00  0.00    +0.000 NA
BRANCH  20  23
ATOM     23  O   UNL     1      52.917   1.707  17.913  0.00  0.00    +0.000 OA
ATOM     24  C   UNL     1      54.122   2.422  17.660  0.00  0.00    +0.000 C 
ENDBRANCH  20  23
ENDBRANCH  14  17
ENDBRANCH  13  14
ENDBRANCH   5  13
TORSDOF 6
ENDMDL
MODEL 6
REMARK VINA RESULT:    -5.917      2.200      8.598
REMARK INTER + INTRA:          -8.538
REMARK INTER:                  -7.952
REMARK INTRA:                  -0.586
REMARK UNBOUND:                -0.546
REMARK  Name = 
REMARK  10 active torsions:
REMARK  status: ('A' for Active; 'I' for Inactive)
REMARK    1  A    between atoms: C_1  and  O_2
REMARK    2  A    between atoms: O_2  and  C_3
REMARK    3  A    between atoms: C_3  and  C_5
REMARK    4  A    between atoms: N_9  and  C_10
REMARK    5  A    between atoms: C_10  and  C_11
REMARK    6  A    between atoms: C_11  and  C_12
REMARK    7  A    between atoms: C_11  and  C_13
REMARK    8  A    between atoms: C_11  and  C_14
REMARK    9  A    between atoms: C_17  and  O_18
REMARK   10  A    between atoms: O_18  and  C_19
REMARK                            x       y       z     vdW  Elec       q    Type
REMARK                         _______ _______ _______ _____ _____    ______ ____
ROOT
ATOM      1  C   UNL     1      45.294   4.642  11.188  0.00  0.00    +0.000 A 
ATOM      2  C   UNL     1      45.975   5.677  11.816  0.00  0.00    +0.000 A 
ATOM      3  C   UNL     1      46.527   5.457  13.076  0.00  0.00    +0.000 A 
ATOM      4  C   UNL     1      46.389   4.217  13.694  0.00  0.00    +0.000 A 
ATOM      5  N   UNL     1      46.900   3.941  14.937  0.00  0.00    +0.000 N 
ATOM      6  N   UNL     1      45.735   3.203  13.091  0.00  0.00    +0.000 NA
ATOM      7  C   UNL     1      45.207   3.432  11.859  0.00  0.00    +0.000 A 
ATOM      8  H   UNL     1      46.671   3.022  15.290  0.00  0.00    +0.000 HD
ENDROOT
BRANCH   1   9
ATOM      9  C   UNL     1      44.653   4.778   9.864  0.00  0.00    +0.000 C 
ATOM     10  O   UNL     1      43.450   4.729   9.691  0.00  0.00    +0.000 OA
BRANCH   9  12
ATOM     11  C   UNL     1      45.697   3.896   7.967  0.00  0.00    +0.000 C 
ATOM     12  O   UNL     1      45.592   4.971   8.901  0.00  0.00    +0.000 OA
ENDBRANCH   9  12
ENDBRANCH   1   9
BRANCH   5  13
ATOM     13  C   UNL     1      47.661   4.910  15.707  0.00  0.00    +0.000 C 
BRANCH  13  14
ATOM     14  C   UNL     1      48.200   4.384  17.063  0.00  0.00    +0.000 C 
ATOM     15  C   UNL     1      47.298   4.884  18.208  0.00  0.00    +0.000 C 
ATOM     16  C   UNL     1      48.222   2.840  17.063  0.00  0.00    +0.000 C 
BRANCH  14  17
ATOM     17  C   UNL     1      49.639   4.905  17.254  0.00  0.00    +0.000 A 
ATOM     18  C   UNL     1      50.471   4.365  18.235  0.00  0.00    +0.000 A 
ATOM     19  C   UNL     1      51.783   4.823  18.361  0.00  0.00    +0.000 A 
ATOM     20  C   UNL     1      52.253   5.820  17.513  0.00  0.00    +0.000 A 
ATOM     21  C   UNL     1      51.363   6.312  16.572  0.00  0.00    +0.000 A 
ATOM     22  N   UNL     1      50.083   5.882  16.426  0.00  0.00    +0.000 NA
BRANCH  20  23
ATOM     23  O   UNL     1      53.506   6.357  17.519  0.00  0.00    +0.000 OA
ATOM     24  C   UNL     1      53.727   7.443  16.625  0.00  0.00    +0.000 C 
ENDBRANCH  20  23
ENDBRANCH  14  17
ENDBRANCH  13  14
ENDBRANCH   5  13
TORSDOF 6
ENDMDL
MODEL 7
REMARK VINA RESULT:    -5.688      3.925      7.617
REMARK INTER + INTRA:          -8.229
REMARK INTER:                  -7.533
REMARK INTRA:                  -0.696
REMARK UNBOUND:                -0.546
REMARK  Name = 
REMARK  10 active torsions:
REMARK  status: ('A' for Active; 'I' for Inactive)
REMARK    1  A    between atoms: C_1  and  O_2
REMARK    2  A    between atoms: O_2  and  C_3
REMARK    3  A    between atoms: C_3  and  C_5
REMARK    4  A    between atoms: N_9  and  C_10
REMARK    5  A    between atoms: C_10  and  C_11
REMARK    6  A    between atoms: C_11  and  C_12
REMARK    7  A    between atoms: C_11  and  C_13
REMARK    8  A    between atoms: C_11  and  C_14
REMARK    9  A    between atoms: C_17  and  O_18
REMARK   10  A    between atoms: O_18  and  C_19
REMARK                            x       y       z     vdW  Elec       q    Type
REMARK                         _______ _______ _______ _____ _____    ______ ____
ROOT
ATOM      1  C   UNL     1      44.751   3.932  11.622  0.00  0.00    +0.000 A 
ATOM      2  C   UNL     1      45.093   5.207  11.187  0.00  0.00    +0.000 A 
ATOM      3  C   UNL     1      45.922   5.992  11.983  0.00  0.00    +0.000 A 
ATOM      4  C   UNL     1      46.393   5.506  13.200  0.00  0.00    +0.000 A 
ATOM      5  N   UNL     1      47.203   6.234  14.033  0.00  0.00    +0.000 N 
ATOM      6  N   UNL     1      46.072   4.268  13.629  0.00  0.00    +0.000 NA
ATOM      7  C   UNL     1      45.267   3.510  12.837  0.00  0.00    +0.000 A 
ATOM      8  H   UNL     1      47.417   5.781  14.911  0.00  0.00    +0.000 HD
ENDROOT
BRANCH   1   9
ATOM      9  C   UNL     1      43.862   3.028  10.865  0.00  0.00    +0.000 C 
ATOM     10  O   UNL     1      43.001   2.342  11.384  0.00  0.00    +0.000 OA
BRANCH   9  12
ATOM     11  C   UNL     1      45.095   2.123   9.098  0.00  0.00    +0.000 C 
ATOM     12  O   UNL     1      44.141   3.090   9.537  0.00  0.00    +0.000 OA
ENDBRANCH   9  12
ENDBRANCH   1   9
BRANCH   5  13
ATOM     13  C   UNL     1      47.671   7.570  13.705  0.00  0.00    +0.000 C 
BRANCH  13  14
ATOM     14  C   UNL     1      49.003   7.978  14.386  0.00  0.00    +0.000 C 
ATOM     15  C   UNL     1      48.838   9.354  15.063  0.00  0.00    +0.000 C 
ATOM     16  C   UNL     1      49.401   6.929  15.447  0.00  0.00    +0.000 C 
BRANCH  14  17
ATOM     17  C   UNL     1      50.105   8.044  13.310  0.00  0.00    +0.000 A 
ATOM     18  C   UNL     1      49.851   7.639  12.000  0.00  0.00    +0.000 A 
ATOM     19  C   UNL     1      50.851   7.748  11.033  0.00  0.00    +0.000 A 
ATOM     20  C   UNL     1      52.099   8.254  11.381  0.00  0.00    +0.000 A 
ATOM     21  C   UNL     1      52.276   8.625  12.705  0.00  0.00    +0.000 A 
ATOM     22  N   UNL     1      51.320   8.532  13.663  0.00  0.00    +0.000 NA
BRANCH  20  23
ATOM     23  O   UNL     1      53.162   8.420  10.544  0.00  0.00    +0.000 OA
ATOM     24  C   UNL     1      53.684   9.741  10.449  0.00  0.00    +0.000 C 
ENDBRANCH  20  23
ENDBRANCH  14  17
ENDBRANCH  13  14
ENDBRANCH   5  13
TORSDOF 6
ENDMDL
MODEL 8
REMARK VINA RESULT:    -5.649      3.357      8.099
REMARK INTER + INTRA:          -8.176
REMARK INTER:                  -7.196
REMARK INTRA:                  -0.980
REMARK UNBOUND:                -0.546
REMARK  Name = 
REMARK  10 active torsions:
REMARK  status: ('A' for Active; 'I' for Inactive)
REMARK    1  A    between atoms: C_1  and  O_2
REMARK    2  A    between atoms: O_2  and  C_3
REMARK    3  A    between atoms: C_3  and  C_5
REMARK    4  A    between atoms: N_9  and  C_10
REMARK    5  A    between atoms: C_10  and  C_11
REMARK    6  A    between atoms: C_11  and  C_12
REMARK    7  A    between atoms: C_11  and  C_13
REMARK    8  A    between atoms: C_11  and  C_14
REMARK    9  A    between atoms: C_17  and  O_18
REMARK   10  A    between atoms: O_18  and  C_19
REMARK                            x       y       z     vdW  Elec       q    Type
REMARK                         _______ _______ _______ _____ _____    ______ ____
ROOT
ATOM      1  C   UNL     1      44.903   5.231  12.796  0.00  0.00    +0.000 A 
ATOM      2  C   UNL     1      46.083   4.917  13.460  0.00  0.00    +0.000 A 
ATOM      3  C   UNL     1      47.231   5.657  13.184  0.00  0.00    +0.000 A 
ATOM      4  C   UNL     1      47.192   6.690  12.252  0.00  0.00    +0.000 A 
ATOM      5  N   UNL     1      48.290   7.447  11.929  0.00  0.00    +0.000 N 
ATOM      6  N   UNL     1      46.051   7.007  11.606  0.00  0.00    +0.000 NA
ATOM      7  C   UNL     1      44.937   6.280  11.891  0.00  0.00    +0.000 A 
ATOM      8  H   UNL     1      48.132   8.120  11.191  0.00  0.00    +0.000 HD
ENDROOT
BRANCH   1   9
ATOM      9  C   UNL     1      43.638   4.496  12.998  0.00  0.00    +0.000 C 
ATOM     10  O   UNL     1      42.577   5.040  13.242  0.00  0.00    +0.000 OA
BRANCH   9  12
ATOM     11  C   UNL     1      43.336   2.619  11.639  0.00  0.00    +0.000 C 
ATOM     12  O   UNL     1      43.839   3.159  12.861  0.00  0.00    +0.000 OA
ENDBRANCH   9  12
ENDBRANCH   1   9
BRANCH   5  13
ATOM     13  C   UNL     1      49.586   7.260  12.558  0.00  0.00    +0.000 C 
BRANCH  13  14
ATOM     14  C   UNL     1      49.993   8.378  13.553  0.00  0.00    +0.000 C 
ATOM     15  C   UNL     1      51.521   8.580  13.508  0.00  0.00    +0.000 C 
ATOM     16  C   UNL     1      49.289   9.701  13.182  0.00  0.00    +0.000 C 
BRANCH  14  17
ATOM     17  C   UNL     1      49.555   7.957  14.970  0.00  0.00    +0.000 A 
ATOM     18  C   UNL     1      48.968   8.876  15.840  0.00  0.00    +0.000 A 
ATOM     19  C   UNL     1      48.540   8.462  17.102  0.00  0.00    +0.000 A 
ATOM     20  C   UNL     1      48.707   7.137  17.489  0.00  0.00    +0.000 A 
ATOM     21  C   UNL     1      49.307   6.288  16.573  0.00  0.00    +0.000 A 
ATOM     22  N   UNL     1      49.729   6.664  15.339  0.00  0.00    +0.000 NA
BRANCH  20  23
ATOM     23  O   UNL     1      48.334   6.596  18.683  0.00  0.00    +0.000 OA
ATOM     24  C   UNL     1      47.668   5.338  18.621  0.00  0.00    +0.000 C 
ENDBRANCH  20  23
ENDBRANCH  14  17
ENDBRANCH  13  14
ENDBRANCH   5  13
TORSDOF 6
ENDMDL
