MODEL 1
REMARK VINA RESULT:    -8.186      0.000      0.000
REMARK INTER + INTRA:         -11.974
REMARK INTER:                 -11.057
REMARK INTRA:                  -0.917
REMARK UNBOUND:                -0.917
REMARK  Name = 
REMARK  6 active torsions:
REMARK  status: ('A' for Active; 'I' for Inactive)
REMARK    1  A    between atoms: C_2  and  C_4
REMARK    2  A    between atoms: C_7  and  N_8
REMARK    3  A    between atoms: N_8  and  C_9
REMARK    4  A    between atoms: C_9  and  C_10
REMARK    5  A    between atoms: C_14  and  O_15
REMARK    6  A    between atoms: O_15  and  C_16
REMARK                            x       y       z     vdW  Elec       q    Type
REMARK                         _______ _______ _______ _____ _____    ______ ____
ROOT
ATOM      1  N   UNL     1      43.819   3.837  10.325  0.00  0.00    +0.000 N 
ATOM      2  H   UNL     1      42.841   3.906  10.053  0.00  0.00    +0.000 HD
ENDROOT
BRANCH   1   6
ATOM      3  C   UNL     1      46.572   2.776   7.363  0.00  0.00    +0.000 A 
ATOM      4  N   UNL     1      46.233   4.091   7.533  0.00  0.00    +0.000 NA
ATOM      5  C   UNL     1      45.312   4.369   8.493  0.00  0.00    +0.000 A 
ATOM      6  C   UNL     1      44.667   3.424   9.299  0.00  0.00    +0.000 A 
ATOM      7  C   UNL     1      45.061   2.096   9.097  0.00  0.00    +0.000 A 
ATOM      8  C   UNL     1      46.006   1.752   8.118  0.00  0.00    +0.000 A 
ATOM      9 CL   UNL     1      46.379   0.075   7.957  0.00  0.00    +0.000 Cl
BRANCH   3  11
ATOM     10  N   UNL     1      47.433   3.230   5.137  0.00  0.00    +0.000 N 
ATOM     11  C   UNL     1      47.626   2.541   6.307  0.00  0.00    +0.000 C 
ATOM     12  O   UNL     1      48.598   1.812   6.432  0.00  0.00    +0.000 OA
ATOM     13  H   UNL     1      48.114   3.149   4.395  0.00  0.00    +0.000 HD
ATOM     14  H   UNL     1      46.641   3.859   5.045  0.00  0.00    +0.000 HD
ENDBRANCH   3  11
ENDBRANCH   1   6
BRANCH   1  15
ATOM     15  C   UNL     1      44.001   3.355  11.691  0.00  0.00    +0.000 C 
BRANCH  15  16
ATOM     16  C   UNL     1      45.148   4.075  12.366  0.00  0.00    +0.000 A 
ATOM     17  C   UNL     1      45.324   5.453  12.203  0.00  0.00    +0.000 A 
ATOM     18  C   UNL     1      46.367   6.116  12.855  0.00  0.00    +0.000 A 
ATOM     19  C   UNL     1      47.235   5.414  13.695  0.00  0.00    +0.000 A 
ATOM     20  C   UNL     1      47.042   4.052  13.913  0.00  0.00    +0.000 A 
ATOM     21  C   UNL     1      46.025   3.385  13.219  0.00  0.00    +0.000 A 
BRANCH  20  22
ATOM     22  O   UNL     1      47.795   3.262  14.726  0.00  0.00    +0.000 OA
BRANCH  22  23
ATOM     23  C   UNL     1      47.766   3.481  16.131  0.00  0.00    +0.000 C 
ATOM     24  F   UNL     1      46.582   3.928  16.602  0.00  0.00    +0.000 F 
ATOM     25  F   UNL     1      48.039   2.311  16.753  0.00  0.00    +0.000 F 
ATOM     26  F   UNL     1      48.729   4.367  16.465  0.00  0.00    +0.000 F 
ENDBRANCH  22  23
ENDBRANCH  20  22
ENDBRANCH  15  16
ENDBRANCH   1  15
TORSDOF 6
ENDMDL
MODEL 2
REMARK VINA RESULT:    -7.535      2.346      2.745
REMARK INTER + INTRA:         -11.096
REMARK INTER:                 -10.284
REMARK INTRA:                  -0.811
REMARK UNBOUND:                -0.917
REMARK  Name = 
REMARK  6 active torsions:
REMARK  status: ('A' for Active; 'I' for Inactive)
REMARK    1  A    between atoms: C_2  and  C_4
REMARK    2  A    between atoms: C_7  and  N_8
REMARK    3  A    between atoms: N_8  and  C_9
REMARK    4  A    between atoms: C_9  and  C_10
REMARK    5  A    between atoms: C_14  and  O_15
REMARK    6  A    between atoms: O_15  and  C_16
REMARK                            x       y       z     vdW  Elec       q    Type
REMARK                         _______ _______ _______ _____ _____    ______ ____
ROOT
ATOM      1  N   UNL     1      43.865   3.253  10.534  0.00  0.00    +0.000 N 
ATOM      2  H   UNL     1      43.005   2.711  10.560  0.00  0.00    +0.000 HD
ENDROOT
BRANCH   1   6
ATOM      3  C   UNL     1      46.405   2.765   7.251  0.00  0.00    +0.000 A 
ATOM      4  N   UNL     1      45.882   3.999   7.523  0.00  0.00    +0.000 NA
ATOM      5  C   UNL     1      45.040   4.088   8.587  0.00  0.00    +0.000 A 
ATOM      6  C   UNL     1      44.649   3.022   9.405  0.00  0.00    +0.000 A 
ATOM      7  C   UNL     1      45.225   1.785   9.093  0.00  0.00    +0.000 A 
ATOM      8  C   UNL     1      46.099   1.636   8.005  0.00  0.00    +0.000 A 
ATOM      9 CL   UNL     1      46.715   0.050   7.717  0.00  0.00    +0.000 Cl
BRANCH   3  11
ATOM     10  N   UNL     1      48.670   2.512   6.407  0.00  0.00    +0.000 N 
ATOM     11  C   UNL     1      47.359   2.744   6.079  0.00  0.00    +0.000 C 
ATOM     12  O   UNL     1      47.043   2.906   4.910  0.00  0.00    +0.000 OA
ATOM     13  H   UNL     1      49.362   2.451   5.673  0.00  0.00    +0.000 HD
ATOM     14  H   UNL     1      48.928   2.347   7.375  0.00  0.00    +0.000 HD
ENDBRANCH   3  11
ENDBRANCH   1   6
BRANCH   1  15
ATOM     15  C   UNL     1      44.474   3.426  11.850  0.00  0.00    +0.000 C 
BRANCH  15  16
ATOM     16  C   UNL     1      44.922   4.857  12.050  0.00  0.00    +0.000 A 
ATOM     17  C   UNL     1      44.145   5.923  11.584  0.00  0.00    +0.000 A 
ATOM     18  C   UNL     1      44.550   7.243  11.801  0.00  0.00    +0.000 A 
ATOM     19  C   UNL     1      45.726   7.515  12.505  0.00  0.00    +0.000 A 
ATOM     20  C   UNL     1      46.484   6.467  13.023  0.00  0.00    +0.000 A 
ATOM     21  C   UNL     1      46.098   5.147  12.762  0.00  0.00    +0.000 A 
BRANCH  20  22
ATOM     22  O   UNL     1      47.629   6.598  13.749  0.00  0.00    +0.000 OA
BRANCH  22  23
ATOM     23  C   UNL     1      48.713   7.345  13.211  0.00  0.00    +0.000 C 
ATOM     24  F   UNL     1      48.563   8.684  13.294  0.00  0.00    +0.000 F 
ATOM     25  F   UNL     1      49.837   7.016  13.887  0.00  0.00    +0.000 F 
ATOM     26  F   UNL     1      48.889   7.006  11.915  0.00  0.00    +0.000 F 
ENDBRANCH  22  23
ENDBRANCH  20  22
ENDBRANCH  15  16
ENDBRANCH   1  15
TORSDOF 6
ENDMDL
MODEL 3
REMARK VINA RESULT:    -7.491      3.034      3.694
REMARK INTER + INTRA:         -11.036
REMARK INTER:                 -10.359
REMARK INTRA:                  -0.677
REMARK UNBOUND:                -0.917
REMARK  Name = 
REMARK  6 active torsions:
REMARK  status: ('A' for Active; 'I' for Inactive)
REMARK    1  A    between atoms: C_2  and  C_4
REMARK    2  A    between atoms: C_7  and  N_8
REMARK    3  A    between atoms: N_8  and  C_9
REMARK    4  A    between atoms: C_9  and  C_10
REMARK    5  A    between atoms: C_14  and  O_15
REMARK    6  A    between atoms: O_15  and  C_16
REMARK                            x       y       z     vdW  Elec       q    Type
REMARK                         _______ _______ _______ _____ _____    ______ ____
ROOT
ATOM      1  N   UNL     1      43.713   4.775   9.884  0.00  0.00    +0.000 N 
ATOM      2  H   UNL     1      42.882   4.971   9.332  0.00  0.00    +0.000 HD
ENDROOT
BRANCH   1   6
ATOM      3  C   UNL     1      46.213   2.025   7.969  0.00  0.00    +0.000 A 
ATOM      4  N   UNL     1      45.510   1.642   9.078  0.00  0.00    +0.000 NA
ATOM      5  C   UNL     1      44.736   2.589   9.672  0.00  0.00    +0.000 A 
ATOM      6  C   UNL     1      44.622   3.921   9.260  0.00  0.00    +0.000 A 
ATOM      7  C   UNL     1      45.348   4.257   8.112  0.00  0.00    +0.000 A 
ATOM      8  C   UNL     1      46.164   3.320   7.460  0.00  0.00    +0.000 A 
ATOM      9 CL   UNL     1      47.026   3.875   6.072  0.00  0.00    +0.000 Cl
BRANCH   3  11
ATOM     10  N   UNL     1      46.633  -0.351   7.686  0.00  0.00    +0.000 N 
ATOM     11  C   UNL     1      47.022   0.917   7.338  0.00  0.00    +0.000 C 
ATOM     12  O   UNL     1      47.955   1.078   6.565  0.00  0.00    +0.000 OA
ATOM     13  H   UNL     1      47.107  -1.145   7.278  0.00  0.00    +0.000 HD
ATOM     14  H   UNL     1      45.839  -0.485   8.304  0.00  0.00    +0.000 HD
ENDBRANCH   3  11
ENDBRANCH   1   6
BRANCH   1  15
ATOM     15  C   UNL     1      43.439   4.666  11.314  0.00  0.00    +0.000 C 
BRANCH  15  16
ATOM     16  C   UNL     1      44.649   5.076  12.125  0.00  0.00    +0.000 A 
ATOM     17  C   UNL     1      45.303   4.155  12.952  0.00  0.00    +0.000 A 
ATOM     18  C   UNL     1      46.438   4.534  13.674  0.00  0.00    +0.000 A 
ATOM     19  C   UNL     1      46.947   5.830  13.563  0.00  0.00    +0.000 A 
ATOM     20  C   UNL     1      46.341   6.743  12.703  0.00  0.00    +0.000 A 
ATOM     21  C   UNL     1      45.177   6.373  12.019  0.00  0.00    +0.000 A 
BRANCH  20  22
ATOM     22  O   UNL     1      46.754   8.022  12.482  0.00  0.00    +0.000 OA
BRANCH  22  23
ATOM     23  C   UNL     1      48.064   8.254  11.979  0.00  0.00    +0.000 C 
ATOM     24  F   UNL     1      48.234   9.463  11.404  0.00  0.00    +0.000 F 
ATOM     25  F   UNL     1      48.939   8.162  13.006  0.00  0.00    +0.000 F 
ATOM     26  F   UNL     1      48.372   7.297  11.078  0.00  0.00    +0.000 F 
ENDBRANCH  22  23
ENDBRANCH  20  22
ENDBRANCH  15  16
ENDBRANCH   1  15
TORSDOF 6
ENDMDL
MODEL 4
REMARK VINA RESULT:    -7.292      4.817      7.544
REMARK INTER + INTRA:         -10.766
REMARK INTER:                 -10.378
REMARK INTRA:                  -0.388
REMARK UNBOUND:                -0.917
REMARK  Name = 
REMARK  6 active torsions:
REMARK  status: ('A' for Active; 'I' for Inactive)
REMARK    1  A    between atoms: C_2  and  C_4
REMARK    2  A    between atoms: C_7  and  N_8
REMARK    3  A    between atoms: N_8  and  C_9
REMARK    4  A    between atoms: C_9  and  C_10
REMARK    5  A    between atoms: C_14  and  O_15
REMARK    6  A    between atoms: O_15  and  C_16
REMARK                            x       y       z     vdW  Elec       q    Type
REMARK                         _______ _______ _______ _____ _____    ______ ____
ROOT
ATOM      1  N   UNL     1      44.859   6.185  10.979  0.00  0.00    +0.000 N 
ATOM      2  H   UNL     1      45.467   6.552  10.251  0.00  0.00    +0.000 HD
ENDROOT
BRANCH   1   6
ATOM      3  C   UNL     1      46.852   4.906  14.425  0.00  0.00    +0.000 A 
ATOM      4  N   UNL     1      45.645   4.351  14.095  0.00  0.00    +0.000 NA
ATOM      5  C   UNL     1      45.034   4.829  12.979  0.00  0.00    +0.000 A 
ATOM      6  C   UNL     1      45.522   5.853  12.160  0.00  0.00    +0.000 A 
ATOM      7  C   UNL     1      46.766   6.375  12.532  0.00  0.00    +0.000 A 
ATOM      8  C   UNL     1      47.441   5.921  13.675  0.00  0.00    +0.000 A 
ATOM      9 CL   UNL     1      48.953   6.671  14.032  0.00  0.00    +0.000 Cl
BRANCH   3  11
ATOM     10  N   UNL     1      47.431   5.090  16.777  0.00  0.00    +0.000 N 
ATOM     11  C   UNL     1      47.493   4.306  15.654  0.00  0.00    +0.000 C 
ATOM     12  O   UNL     1      48.030   3.210  15.704  0.00  0.00    +0.000 OA
ATOM     13  H   UNL     1      47.810   4.741  17.647  0.00  0.00    +0.000 HD
ATOM     14  H   UNL     1      46.958   5.987  16.743  0.00  0.00    +0.000 HD
ENDBRANCH   3  11
ENDBRANCH   1   6
BRANCH   1  15
ATOM     15  C   UNL     1      43.784   5.345  10.459  0.00  0.00    +0.000 C 
BRANCH  15  16
ATOM     16  C   UNL     1      44.345   4.134   9.748  0.00  0.00    +0.000 A 
ATOM     17  C   UNL     1      44.117   2.844  10.241  0.00  0.00    +0.000 A 
ATOM     18  C   UNL     1      44.612   1.728   9.561  0.00  0.00    +0.000 A 
ATOM     19  C   UNL     1      45.322   1.885   8.368  0.00  0.00    +0.000 A 
ATOM     20  C   UNL     1      45.511   3.157   7.833  0.00  0.00    +0.000 A 
ATOM     21  C   UNL     1      45.054   4.274   8.543  0.00  0.00    +0.000 A 
BRANCH  20  22
ATOM     22  O   UNL     1      46.156   3.443   6.669  0.00  0.00    +0.000 OA
BRANCH  22  23
ATOM     23  C   UNL     1      47.200   2.585   6.223  0.00  0.00    +0.000 C 
ATOM     24  F   UNL     1      46.857   1.282   6.148  0.00  0.00    +0.000 F 
ATOM     25  F   UNL     1      47.580   2.981   4.986  0.00  0.00    +0.000 F 
ATOM     26  F   UNL     1      48.262   2.709   7.047  0.00  0.00    +0.000 F 
ENDBRANCH  22  23
ENDBRANCH  20  22
ENDBRANCH  15  16
ENDBRANCH   1  15
TORSDOF 6
ENDMDL
MODEL 5
REMARK VINA RESULT:    -7.184      4.778      7.052
REMARK INTER + INTRA:         -10.621
REMARK INTER:                 -10.214
REMARK INTRA:                  -0.407
REMARK UNBOUND:                -0.917
REMARK  Name = 
REMARK  6 active torsions:
REMARK  status: ('A' for Active; 'I' for Inactive)
REMARK    1  A    between atoms: C_2  and  C_4
REMARK    2  A    between atoms: C_7  and  N_8
REMARK    3  A    between atoms: N_8  and  C_9
REMARK    4  A    between atoms: C_9  and  C_10
REMARK    5  A    between atoms: C_14  and  O_15
REMARK    6  A    between atoms: O_15  and  C_16
REMARK                            x       y       z     vdW  Elec       q    Type
REMARK                         _______ _______ _______ _____ _____    ______ ____
ROOT
ATOM      1  N   UNL     1      44.183   3.625  12.630  0.00  0.00    +0.000 N 
ATOM      2  H   UNL     1      43.615   3.300  13.409  0.00  0.00    +0.000 HD
ENDROOT
BRANCH   1   6
ATOM      3  C   UNL     1      47.383   6.162  13.524  0.00  0.00    +0.000 A 
ATOM      4  N   UNL     1      47.542   4.808  13.634  0.00  0.00    +0.000 NA
ATOM      5  C   UNL     1      46.457   4.038  13.357  0.00  0.00    +0.000 A 
ATOM      6  C   UNL     1      45.193   4.515  12.996  0.00  0.00    +0.000 A 
ATOM      7  C   UNL     1      45.088   5.906  12.882  0.00  0.00    +0.000 A 
ATOM      8  C   UNL     1      46.175   6.749  13.158  0.00  0.00    +0.000 A 
ATOM      9 CL   UNL     1      45.899   8.445  13.004  0.00  0.00    +0.000 Cl
BRANCH   3  11
ATOM     10  N   UNL     1      49.572   6.939  12.808  0.00  0.00    +0.000 N 
ATOM     11  C   UNL     1      48.636   6.957  13.810  0.00  0.00    +0.000 C 
ATOM     12  O   UNL     1      48.849   7.591  14.832  0.00  0.00    +0.000 OA
ATOM     13  H   UNL     1      50.423   7.474  12.914  0.00  0.00    +0.000 HD
ATOM     14  H   UNL     1      49.382   6.436  11.947  0.00  0.00    +0.000 HD
ENDBRANCH   3  11
ENDBRANCH   1   6
BRANCH   1  15
ATOM     15  C   UNL     1      43.418   3.820  11.402  0.00  0.00    +0.000 C 
BRANCH  15  16
ATOM     16  C   UNL     1      44.297   3.635  10.185  0.00  0.00    +0.000 A 
ATOM     17  C   UNL     1      44.769   4.740   9.468  0.00  0.00    +0.000 A 
ATOM     18  C   UNL     1      45.607   4.562   8.364  0.00  0.00    +0.000 A 
ATOM     19  C   UNL     1      46.002   3.280   7.976  0.00  0.00    +0.000 A 
ATOM     20  C   UNL     1      45.587   2.172   8.711  0.00  0.00    +0.000 A 
ATOM     21  C   UNL     1      44.709   2.353   9.786  0.00  0.00    +0.000 A 
BRANCH  20  22
ATOM     22  O   UNL     1      45.923   0.877   8.456  0.00  0.00    +0.000 OA
BRANCH  22  23
ATOM     23  C   UNL     1      46.779   0.583   7.360  0.00  0.00    +0.000 C 
ATOM     24  F   UNL     1      46.829  -0.724   7.027  0.00  0.00    +0.000 F 
ATOM     25  F   UNL     1      46.338   1.264   6.277  0.00  0.00    +0.000 F 
ATOM     26  F   UNL     1      48.029   1.008   7.642  0.00  0.00    +0.000 F 
ENDBRANCH  22  23
ENDBRANCH  20  22
ENDBRANCH  15  16
ENDBRANCH   1  15
TORSDOF 6
ENDMDL
MODEL 6
REMARK VINA RESULT:    -7.007      5.242      8.026
REMARK INTER + INTRA:         -10.383
REMARK INTER:                  -9.675
REMARK INTRA:                  -0.707
REMARK UNBOUND:                -0.917
REMARK  Name = 
REMARK  6 active torsions:
REMARK  status: ('A' for Active; 'I' for Inactive)
REMARK    1  A    between atoms: C_2  and  C_4
REMARK    2  A    between atoms: C_7  and  N_8
REMARK    3  A    between atoms: N_8  and  C_9
REMARK    4  A    between atoms: C_9  and  C_10
REMARK    5  A    between atoms: C_14  and  O_15
REMARK    6  A    between atoms: O_15  and  C_16
REMARK                            x       y       z     vdW  Elec       q    Type
REMARK                         _______ _______ _______ _____ _____    ______ ____
ROOT
ATOM      1  N   UNL     1      46.754   6.400  11.323  0.00  0.00    +0.000 N 
ATOM      2  H   UNL     1      47.376   5.960  10.649  0.00  0.00    +0.000 HD
ENDROOT
BRANCH   1   6
ATOM      3  C   UNL     1      48.263   5.983  15.199  0.00  0.00    +0.000 A 
ATOM      4  N   UNL     1      47.496   4.986  14.660  0.00  0.00    +0.000 NA
ATOM      5  C   UNL     1      47.012   5.193  13.407  0.00  0.00    +0.000 A 
ATOM      6  C   UNL     1      47.210   6.346  12.639  0.00  0.00    +0.000 A 
ATOM      7  C   UNL     1      48.014   7.328  13.229  0.00  0.00    +0.000 A 
ATOM      8  C   UNL     1      48.538   7.167  14.521  0.00  0.00    +0.000 A 
ATOM      9 CL   UNL     1      49.490   8.469  15.138  0.00  0.00    +0.000 Cl
BRANCH   3  11
ATOM     10  N   UNL     1      47.943   5.969  17.607  0.00  0.00    +0.000 N 
ATOM     11  C   UNL     1      48.798   5.674  16.577  0.00  0.00    +0.000 C 
ATOM     12  O   UNL     1      49.895   5.192  16.815  0.00  0.00    +0.000 OA
ATOM     13  H   UNL     1      48.219   5.760  18.557  0.00  0.00    +0.000 HD
ATOM     14  H   UNL     1      47.020   6.342  17.408  0.00  0.00    +0.000 HD
ENDBRANCH   3  11
ENDBRANCH   1   6
BRANCH   1  15
ATOM     15  C   UNL     1      45.340   6.210  11.009  0.00  0.00    +0.000 C 
BRANCH  15  16
ATOM     16  C   UNL     1      45.123   4.900  10.283  0.00  0.00    +0.000 A 
ATOM     17  C   UNL     1      44.492   3.825  10.919  0.00  0.00    +0.000 A 
ATOM     18  C   UNL     1      44.267   2.630  10.232  0.00  0.00    +0.000 A 
ATOM     19  C   UNL     1      44.649   2.500   8.895  0.00  0.00    +0.000 A 
ATOM     20  C   UNL     1      45.229   3.578   8.229  0.00  0.00    +0.000 A 
ATOM     21  C   UNL     1      45.495   4.756   8.937  0.00  0.00    +0.000 A 
BRANCH  20  22
ATOM     22  O   UNL     1      45.618   3.591   6.925  0.00  0.00    +0.000 OA
BRANCH  22  23
ATOM     23  C   UNL     1      46.790   2.883   6.541  0.00  0.00    +0.000 C 
ATOM     24  F   UNL     1      47.902   3.234   7.222  0.00  0.00    +0.000 F 
ATOM     25  F   UNL     1      46.582   1.563   6.750  0.00  0.00    +0.000 F 
ATOM     26  F   UNL     1      47.012   3.068   5.222  0.00  0.00    +0.000 F 
ENDBRANCH  22  23
ENDBRANCH  20  22
ENDBRANCH  15  16
ENDBRANCH   1  15
TORSDOF 6
ENDMDL
MODEL 7
REMARK VINA RESULT:    -6.839      5.133      8.020
REMARK INTER + INTRA:         -10.156
REMARK INTER:                  -9.455
REMARK INTRA:                  -0.700
REMARK UNBOUND:                -0.917
REMARK  Name = 
REMARK  6 active torsions:
REMARK  status: ('A' for Active; 'I' for Inactive)
REMARK    1  A    between atoms: C_2  and  C_4
REMARK    2  A    between atoms: C_7  and  N_8
REMARK    3  A    between atoms: N_8  and  C_9
REMARK    4  A    between atoms: C_9  and  C_10
REMARK    5  A    between atoms: C_14  and  O_15
REMARK    6  A    between atoms: O_15  and  C_16
REMARK                            x       y       z     vdW  Elec       q    Type
REMARK                         _______ _______ _______ _____ _____    ______ ____
ROOT
ATOM      1  N   UNL     1      46.857   5.830  12.931  0.00  0.00    +0.000 N 
ATOM      2  H   UNL     1      47.427   5.540  12.140  0.00  0.00    +0.000 HD
ENDROOT
BRANCH   1   6
ATOM      3  C   UNL     1      48.211   3.992  16.433  0.00  0.00    +0.000 A 
ATOM      4  N   UNL     1      47.563   3.248  15.486  0.00  0.00    +0.000 NA
ATOM      5  C   UNL     1      47.122   3.909  14.383  0.00  0.00    +0.000 A 
ATOM      6  C   UNL     1      47.254   5.282  14.151  0.00  0.00    +0.000 A 
ATOM      7  C   UNL     1      47.938   5.994  15.142  0.00  0.00    +0.000 A 
ATOM      8  C   UNL     1      48.413   5.363  16.302  0.00  0.00    +0.000 A 
ATOM      9 CL   UNL     1      49.215   6.365  17.456  0.00  0.00    +0.000 Cl
BRANCH   3  11
ATOM     10  N   UNL     1      47.872   3.196  18.703  0.00  0.00    +0.000 N 
ATOM     11  C   UNL     1      48.706   3.192  17.615  0.00  0.00    +0.000 C 
ATOM     12  O   UNL     1      49.753   2.564  17.652  0.00  0.00    +0.000 OA
ATOM     13  H   UNL     1      48.120   2.656  19.521  0.00  0.00    +0.000 HD
ATOM     14  H   UNL     1      46.988   3.692  18.662  0.00  0.00    +0.000 HD
ENDBRANCH   3  11
ENDBRANCH   1   6
BRANCH   1  15
ATOM     15  C   UNL     1      45.443   5.975  12.597  0.00  0.00    +0.000 C 
BRANCH  15  16
ATOM     16  C   UNL     1      45.014   4.914  11.607  0.00  0.00    +0.000 A 
ATOM     17  C   UNL     1      44.218   3.836  12.013  0.00  0.00    +0.000 A 
ATOM     18  C   UNL     1      43.800   2.878  11.087  0.00  0.00    +0.000 A 
ATOM     19  C   UNL     1      44.153   2.994   9.740  0.00  0.00    +0.000 A 
ATOM     20  C   UNL     1      44.899   4.089   9.309  0.00  0.00    +0.000 A 
ATOM     21  C   UNL     1      45.355   5.020  10.249  0.00  0.00    +0.000 A 
BRANCH  20  22
ATOM     22  O   UNL     1      45.282   4.334   8.026  0.00  0.00    +0.000 OA
BRANCH  22  23
ATOM     23  C   UNL     1      46.306   3.539   7.441  0.00  0.00    +0.000 C 
ATOM     24  F   UNL     1      46.614   2.425   8.138  0.00  0.00    +0.000 F 
ATOM     25  F   UNL     1      45.899   3.153   6.210  0.00  0.00    +0.000 F 
ATOM     26  F   UNL     1      47.423   4.285   7.298  0.00  0.00    +0.000 F 
ENDBRANCH  22  23
ENDBRANCH  20  22
ENDBRANCH  15  16
ENDBRANCH   1  15
TORSDOF 6
ENDMDL
MODEL 8
REMARK VINA RESULT:    -6.747      4.751      7.496
REMARK INTER + INTRA:         -10.030
REMARK INTER:                  -9.396
REMARK INTRA:                  -0.634
REMARK UNBOUND:                -0.917
REMARK  Name = 
REMARK  6 active torsions:
REMARK  status: ('A' for Active; 'I' for Inactive)
REMARK    1  A    between atoms: C_2  and  C_4
REMARK    2  A    between atoms: C_7  and  N_8
REMARK    3  A    between atoms: N_8  and  C_9
REMARK    4  A    between atoms: C_9  and  C_10
REMARK    5  A    between atoms: C_14  and  O_15
REMARK    6  A    between atoms: O_15  and  C_16
REMARK                            x       y       z     vdW  Elec       q    Type
REMARK                         _______ _______ _______ _____ _____    ______ ____
ROOT
ATOM      1  N   UNL     1      47.582   6.421  12.412  0.00  0.00    +0.000 N 
ATOM      2  H   UNL     1      48.090   5.945  11.671  0.00  0.00    +0.000 HD
ENDROOT
BRANCH   1   6
ATOM      3  C   UNL     1      47.613   4.099  15.888  0.00  0.00    +0.000 A 
ATOM      4  N   UNL     1      47.148   3.561  14.719  0.00  0.00    +0.000 NA
ATOM      5  C   UNL     1      47.137   4.375  13.630  0.00  0.00    +0.000 A 
ATOM      6  C   UNL     1      47.536   5.716  13.614  0.00  0.00    +0.000 A 
ATOM      7  C   UNL     1      48.017   6.213  14.831  0.00  0.00    +0.000 A 
ATOM      8  C   UNL     1      48.049   5.417  15.987  0.00  0.00    +0.000 A 
ATOM      9 CL   UNL     1      48.641   6.164  17.426  0.00  0.00    +0.000 Cl
BRANCH   3  11
ATOM     10  N   UNL     1      48.880   2.709  17.426  0.00  0.00    +0.000 N 
ATOM     11  C   UNL     1      47.631   3.132  17.049  0.00  0.00    +0.000 C 
ATOM     12  O   UNL     1      46.645   2.731  17.647  0.00  0.00    +0.000 OA
ATOM     13  H   UNL     1      48.975   2.085  18.216  0.00  0.00    +0.000 HD
ATOM     14  H   UNL     1      49.701   3.065  16.948  0.00  0.00    +0.000 HD
ENDBRANCH   3  11
ENDBRANCH   1   6
BRANCH   1  15
ATOM     15  C   UNL     1      46.419   7.160  11.928  0.00  0.00    +0.000 C 
BRANCH  15  16
ATOM     16  C   UNL     1      45.252   6.227  11.689  0.00  0.00    +0.000 A 
ATOM     17  C   UNL     1      44.161   6.204  12.566  0.00  0.00    +0.000 A 
ATOM     18  C   UNL     1      43.074   5.363  12.320  0.00  0.00    +0.000 A 
ATOM     19  C   UNL     1      43.051   4.548  11.185  0.00  0.00    +0.000 A 
ATOM     20  C   UNL     1      44.103   4.598  10.273  0.00  0.00    +0.000 A 
ATOM     21  C   UNL     1      45.212   5.407  10.549  0.00  0.00    +0.000 A 
BRANCH  20  22
ATOM     22  O   UNL     1      44.189   3.881   9.119  0.00  0.00    +0.000 OA
BRANCH  22  23
ATOM     23  C   UNL     1      44.967   2.691   9.095  0.00  0.00    +0.000 C 
ATOM     24  F   UNL     1      46.056   2.752   8.300  0.00  0.00    +0.000 F 
ATOM     25  F   UNL     1      45.392   2.431  10.353  0.00  0.00    +0.000 F 
ATOM     26  F   UNL     1      44.192   1.659   8.694  0.00  0.00    +0.000 F 
ENDBRANCH  22  23
ENDBRANCH  20  22
ENDBRANCH  15  16
ENDBRANCH   1  15
TORSDOF 6
ENDMDL
MODEL 9
REMARK VINA RESULT:    -6.516      4.985      7.456
REMARK INTER + INTRA:          -9.719
REMARK INTER:                  -9.018
REMARK INTRA:                  -0.701
REMARK UNBOUND:                -0.917
REMARK  Name = 
REMARK  6 active torsions:
REMARK  status: ('A' for Active; 'I' for Inactive)
REMARK    1  A    between atoms: C_2  and  C_4
REMARK    2  A    between atoms: C_7  and  N_8
REMARK    3  A    between atoms: N_8  and  C_9
REMARK    4  A    between atoms: C_9  and  C_10
REMARK    5  A    between atoms: C_14  and  O_15
REMARK    6  A    between atoms: O_15  and  C_16
REMARK                            x       y       z     vdW  Elec       q    Type
REMARK                         _______ _______ _______ _____ _____    ______ ____
ROOT
ATOM      1  N   UNL     1      44.007   5.268  11.793  0.00  0.00    +0.000 N 
ATOM      2  H   UNL     1      43.188   5.641  12.266  0.00  0.00    +0.000 HD
ENDROOT
BRANCH   1   6
ATOM      3  C   UNL     1      47.493   6.272  13.871  0.00  0.00    +0.000 A 
ATOM      4  N   UNL     1      47.020   7.110  12.899  0.00  0.00    +0.000 NA
ATOM      5  C   UNL     1      45.898   6.714  12.240  0.00  0.00    +0.000 A 
ATOM      6  C   UNL     1      45.209   5.516  12.456  0.00  0.00    +0.000 A 
ATOM      7  C   UNL     1      45.725   4.703  13.471  0.00  0.00    +0.000 A 
ATOM      8  C   UNL     1      46.881   5.061  14.182  0.00  0.00    +0.000 A 
ATOM      9 CL   UNL     1      47.424   3.952  15.388  0.00  0.00    +0.000 Cl
BRANCH   3  11
ATOM     10  N   UNL     1      49.771   7.111  13.769  0.00  0.00    +0.000 N 
ATOM     11  C   UNL     1      48.720   6.787  14.587  0.00  0.00    +0.000 C 
ATOM     12  O   UNL     1      48.820   6.933  15.796  0.00  0.00    +0.000 OA
ATOM     13  H   UNL     1      50.615   7.493  14.174  0.00  0.00    +0.000 HD
ATOM     14  H   UNL     1      49.677   7.018  12.763  0.00  0.00    +0.000 HD
ENDBRANCH   3  11
ENDBRANCH   1   6
BRANCH   1  15
ATOM     15  C   UNL     1      43.919   5.355  10.338  0.00  0.00    +0.000 C 
BRANCH  15  16
ATOM     16  C   UNL     1      44.568   4.153   9.688  0.00  0.00    +0.000 A 
ATOM     17  C   UNL     1      44.169   2.854  10.023  0.00  0.00    +0.000 A 
ATOM     18  C   UNL     1      44.750   1.750   9.395  0.00  0.00    +0.000 A 
ATOM     19  C   UNL     1      45.723   1.929   8.409  0.00  0.00    +0.000 A 
ATOM     20  C   UNL     1      46.094   3.216   8.023  0.00  0.00    +0.000 A 
ATOM     21  C   UNL     1      45.543   4.316   8.690  0.00  0.00    +0.000 A 
BRANCH  20  22
ATOM     22  O   UNL     1      47.004   3.525   7.059  0.00  0.00    +0.000 OA
BRANCH  22  23
ATOM     23  C   UNL     1      47.177   2.645   5.956  0.00  0.00    +0.000 C 
ATOM     24  F   UNL     1      46.026   2.252   5.370  0.00  0.00    +0.000 F 
ATOM     25  F   UNL     1      47.921   3.274   5.018  0.00  0.00    +0.000 F 
ATOM     26  F   UNL     1      47.855   1.549   6.362  0.00  0.00    +0.000 F 
ENDBRANCH  22  23
ENDBRANCH  20  22
ENDBRANCH  15  16
ENDBRANCH   1  15
TORSDOF 6
ENDMDL
