MODEL 1
REMARK VINA RESULT:    -9.157      0.000      0.000
REMARK INTER + INTRA:         -13.357
REMARK INTER:                 -12.904
REMARK INTRA:                  -0.453
REMARK UNBOUND:                -0.453
REMARK  Name = 
REMARK  7 active torsions:
REMARK  status: ('A' for Active; 'I' for Inactive)
REMARK    1  A    between atoms: C_2  and  C_4
REMARK    2  A    between atoms: C_7  and  C_8
REMARK    3  A    between atoms: C_8  and  N_9
REMARK    4  A    between atoms: C_10  and  C_12
REMARK    5  A    between atoms: C_23  and  C_24
REMARK    6  A    between atoms: C_24  and  N_25
REMARK    7  A    between atoms: C_26  and  C_28
REMARK                            x       y       z     vdW  Elec       q    Type
REMARK                         _______ _______ _______ _____ _____    ______ ____
ROOT
ATOM      1  C   UNL     1      45.126   7.137  12.103  0.00  0.00    +0.000 A 
ATOM      2  C   UNL     1      46.253   7.427  12.892  0.00  0.00    +0.000 A 
ATOM      3  C   UNL     1      46.882   6.437  13.643  0.00  0.00    +0.000 A 
ATOM      4  C   UNL     1      46.393   5.132  13.626  0.00  0.00    +0.000 A 
ATOM      5  C   UNL     1      45.314   4.820  12.783  0.00  0.00    +0.000 A 
ATOM      6  C   UNL     1      44.677   5.804  11.993  0.00  0.00    +0.000 A 
ENDROOT
BRANCH   1   8
ATOM      7  N   UNL     1      43.151   8.072  11.035  0.00  0.00    +0.000 N 
ATOM      8  C   UNL     1      44.456   8.274  11.404  0.00  0.00    +0.000 C 
ATOM      9  O   UNL     1      45.013   9.327  11.138  0.00  0.00    +0.000 OA
ATOM     10  H   UNL     1      42.693   8.811  10.518  0.00  0.00    +0.000 HD
ATOM     11  H   UNL     1      42.702   7.168  11.070  0.00  0.00    +0.000 HD
ENDBRANCH   1   8
BRANCH   4  12
ATOM     12  C   UNL     1      47.056   4.075  14.467  0.00  0.00    +0.000 C 
BRANCH  12  13
ATOM     13  N   UNL     1      47.552   4.626  15.700  0.00  0.00    +0.000 N 
ATOM     14  C   UNL     1      47.162   4.177  16.932  0.00  0.00    +0.000 C 
ATOM     15  O   UNL     1      46.366   3.254  17.084  0.00  0.00    +0.000 OA
ATOM     16  H   UNL     1      48.023   5.519  15.623  0.00  0.00    +0.000 HD
BRANCH  14  17
ATOM     17  C   UNL     1      47.817   4.820  18.083  0.00  0.00    +0.000 A 
ATOM     18  C   UNL     1      47.097   5.694  18.889  0.00  0.00    +0.000 A 
ATOM     19  S   UNL     1      47.980   6.271  20.230  0.00  0.00    +0.000 S 
ATOM     20  C   UNL     1      49.373   5.421  19.748  0.00  0.00    +0.000 A 
ATOM     21  N   UNL     1      50.521   5.490  20.475  0.00  0.00    +0.000 NA
ATOM     22  C   UNL     1      51.510   4.826  19.976  0.00  0.00    +0.000 A 
ATOM     23  N   UNL     1      51.455   4.096  18.818  0.00  0.00    +0.000 N 
ATOM     24  C   UNL     1      50.306   3.958  18.079  0.00  0.00    +0.000 A 
ATOM     25  O   UNL     1      50.272   3.231  17.091  0.00  0.00    +0.000 OA
ATOM     26  C   UNL     1      49.166   4.700  18.587  0.00  0.00    +0.000 A 
ATOM     27  H   UNL     1      52.261   3.586  18.486  0.00  0.00    +0.000 HD
ENDBRANCH  14  17
ENDBRANCH  12  13
ENDBRANCH   4  12
BRANCH   6  28
ATOM     28  C   UNL     1      43.558   5.356  11.084  0.00  0.00    +0.000 C 
BRANCH  28  29
ATOM     29  N   UNL     1      44.031   4.810   9.835  0.00  0.00    +0.000 N 
ATOM     30  C   UNL     1      44.152   3.459   9.606  0.00  0.00    +0.000 C 
ATOM     31  O   UNL     1      43.812   2.599  10.416  0.00  0.00    +0.000 OA
ATOM     32  H   UNL     1      44.256   5.440   9.071  0.00  0.00    +0.000 HD
BRANCH  30  33
ATOM     33  C   UNL     1      44.845   3.099   8.283  0.00  0.00    +0.000 C 
ATOM     34  C   UNL     1      45.850   1.975   8.485  0.00  0.00    +0.000 C 
ATOM     35  C   UNL     1      46.788   2.178   7.324  0.00  0.00    +0.000 C 
ATOM     36  C   UNL     1      46.841   3.686   7.220  0.00  0.00    +0.000 C 
ATOM     37  O   UNL     1      45.584   4.188   7.700  0.00  0.00    +0.000 OA
ENDBRANCH  30  33
ENDBRANCH  28  29
ENDBRANCH   6  28
TORSDOF 7
ENDMDL
MODEL 2
REMARK VINA RESULT:    -8.815      2.759      3.600
REMARK INTER + INTRA:         -12.874
REMARK INTER:                 -11.551
REMARK INTRA:                  -1.323
REMARK UNBOUND:                -0.453
REMARK  Name = 
REMARK  7 active torsions:
REMARK  status: ('A' for Active; 'I' for Inactive)
REMARK    1  A    between atoms: C_2  and  C_4
REMARK    2  A    between atoms: C_7  and  C_8
REMARK    3  A    between atoms: C_8  and  N_9
REMARK    4  A    between atoms: C_10  and  C_12
REMARK    5  A    between atoms: C_23  and  C_24
REMARK    6  A    between atoms: C_24  and  N_25
REMARK    7  A    between atoms: C_26  and  C_28
REMARK                            x       y       z     vdW  Elec       q    Type
REMARK                         _______ _______ _______ _____ _____    ______ ____
ROOT
ATOM      1  C   UNL     1      45.824   4.932  12.833  0.00  0.00    +0.000 A 
ATOM      2  C   UNL     1      46.775   4.994  13.867  0.00  0.00    +0.000 A 
ATOM      3  C   UNL     1      47.825   5.908  13.827  0.00  0.00    +0.000 A 
ATOM      4  C   UNL     1      47.951   6.780  12.746  0.00  0.00    +0.000 A 
ATOM      5  C   UNL     1      46.963   6.773  11.748  0.00  0.00    +0.000 A 
ATOM      6  C   UNL     1      45.876   5.870  11.781  0.00  0.00    +0.000 A 
ENDROOT
BRANCH   1   8
ATOM      7  N   UNL     1      45.160   2.624  12.443  0.00  0.00    +0.000 N 
ATOM      8  C   UNL     1      44.787   3.859  12.907  0.00  0.00    +0.000 C 
ATOM      9  O   UNL     1      43.655   4.042  13.325  0.00  0.00    +0.000 OA
ATOM     10  H   UNL     1      44.459   1.896  12.440  0.00  0.00    +0.000 HD
ATOM     11  H   UNL     1      46.015   2.464  11.928  0.00  0.00    +0.000 HD
ENDBRANCH   1   8
BRANCH   4  12
ATOM     12  C   UNL     1      49.107   7.742  12.693  0.00  0.00    +0.000 C 
BRANCH  12  13
ATOM     13  N   UNL     1      50.169   7.327  13.570  0.00  0.00    +0.000 N 
ATOM     14  C   UNL     1      50.334   7.820  14.835  0.00  0.00    +0.000 C 
ATOM     15  O   UNL     1      49.575   8.650  15.330  0.00  0.00    +0.000 OA
ATOM     16  H   UNL     1      50.932   6.827  13.129  0.00  0.00    +0.000 HD
BRANCH  14  17
ATOM     17  C   UNL     1      51.441   7.238  15.610  0.00  0.00    +0.000 A 
ATOM     18  C   UNL     1      52.730   7.734  15.454  0.00  0.00    +0.000 A 
ATOM     19  S   UNL     1      53.870   7.012  16.497  0.00  0.00    +0.000 S 
ATOM     20  C   UNL     1      52.695   5.969  17.151  0.00  0.00    +0.000 A 
ATOM     21  N   UNL     1      53.020   5.065  18.114  0.00  0.00    +0.000 NA
ATOM     22  C   UNL     1      52.040   4.314  18.493  0.00  0.00    +0.000 A 
ATOM     23  N   UNL     1      50.764   4.386  17.999  0.00  0.00    +0.000 N 
ATOM     24  C   UNL     1      50.380   5.315  17.063  0.00  0.00    +0.000 A 
ATOM     25  O   UNL     1      49.210   5.404  16.703  0.00  0.00    +0.000 OA
ATOM     26  C   UNL     1      51.448   6.175  16.589  0.00  0.00    +0.000 A 
ATOM     27  H   UNL     1      50.036   3.779  18.347  0.00  0.00    +0.000 HD
ENDBRANCH  14  17
ENDBRANCH  12  13
ENDBRANCH   4  12
BRANCH   6  28
ATOM     28  C   UNL     1      44.842   5.978  10.686  0.00  0.00    +0.000 C 
BRANCH  28  29
ATOM     29  N   UNL     1      45.189   5.223   9.507  0.00  0.00    +0.000 N 
ATOM     30  C   UNL     1      44.610   4.013   9.196  0.00  0.00    +0.000 C 
ATOM     31  O   UNL     1      43.709   3.501   9.856  0.00  0.00    +0.000 OA
ATOM     32  H   UNL     1      45.864   5.605   8.852  0.00  0.00    +0.000 HD
BRANCH  30  33
ATOM     33  C   UNL     1      45.251   3.292   8.001  0.00  0.00    +0.000 C 
ATOM     34  C   UNL     1      45.905   1.989   8.440  0.00  0.00    +0.000 C 
ATOM     35  C   UNL     1      46.924   1.766   7.354  0.00  0.00    +0.000 C 
ATOM     36  C   UNL     1      47.386   3.175   7.060  0.00  0.00    +0.000 C 
ATOM     37  O   UNL     1      46.287   4.052   7.352  0.00  0.00    +0.000 OA
ENDBRANCH  30  33
ENDBRANCH  28  29
ENDBRANCH   6  28
TORSDOF 7
ENDMDL
MODEL 3
REMARK VINA RESULT:    -8.532      2.826      6.282
REMARK INTER + INTRA:         -12.476
REMARK INTER:                 -10.380
REMARK INTRA:                  -2.096
REMARK UNBOUND:                -0.453
REMARK  Name = 
REMARK  7 active torsions:
REMARK  status: ('A' for Active; 'I' for Inactive)
REMARK    1  A    between atoms: C_2  and  C_4
REMARK    2  A    between atoms: C_7  and  C_8
REMARK    3  A    between atoms: C_8  and  N_9
REMARK    4  A    between atoms: C_10  and  C_12
REMARK    5  A    between atoms: C_23  and  C_24
REMARK    6  A    between atoms: C_24  and  N_25
REMARK    7  A    between atoms: C_26  and  C_28
REMARK                            x       y       z     vdW  Elec       q    Type
REMARK                         _______ _______ _______ _____ _____    ______ ____
ROOT
ATOM      1  C   UNL     1      44.916   4.625  12.103  0.00  0.00    +0.000 A 
ATOM      2  C   UNL     1      44.284   5.668  11.404  0.00  0.00    +0.000 A 
ATOM      3  C   UNL     1      44.602   7.000  11.655  0.00  0.00    +0.000 A 
ATOM      4  C   UNL     1      45.559   7.321  12.617  0.00  0.00    +0.000 A 
ATOM      5  C   UNL     1      46.247   6.282  13.264  0.00  0.00    +0.000 A 
ATOM      6  C   UNL     1      45.957   4.922  13.007  0.00  0.00    +0.000 A 
ENDROOT
BRANCH   1   8
ATOM      7  N   UNL     1      44.881   2.656  10.674  0.00  0.00    +0.000 N 
ATOM      8  C   UNL     1      44.449   3.230  11.842  0.00  0.00    +0.000 C 
ATOM      9  O   UNL     1      43.704   2.616  12.589  0.00  0.00    +0.000 OA
ATOM     10  H   UNL     1      44.537   1.731  10.455  0.00  0.00    +0.000 HD
ATOM     11  H   UNL     1      45.346   3.176   9.944  0.00  0.00    +0.000 HD
ENDBRANCH   1   8
BRANCH   4  12
ATOM     12  C   UNL     1      45.873   8.763  12.907  0.00  0.00    +0.000 C 
BRANCH  12  13
ATOM     13  N   UNL     1      46.794   8.884  14.006  0.00  0.00    +0.000 N 
ATOM     14  C   UNL     1      48.117   9.191  13.844  0.00  0.00    +0.000 C 
ATOM     15  O   UNL     1      48.623   9.402  12.745  0.00  0.00    +0.000 OA
ATOM     16  H   UNL     1      46.476   8.503  14.888  0.00  0.00    +0.000 HD
BRANCH  14  17
ATOM     17  C   UNL     1      48.897   9.330  15.085  0.00  0.00    +0.000 A 
ATOM     18  C   UNL     1      49.057  10.584  15.664  0.00  0.00    +0.000 A 
ATOM     19  S   UNL     1      49.904  10.548  17.144  0.00  0.00    +0.000 S 
ATOM     20  C   UNL     1      50.139   8.867  17.034  0.00  0.00    +0.000 A 
ATOM     21  N   UNL     1      50.816   8.190  18.001  0.00  0.00    +0.000 NA
ATOM     22  C   UNL     1      50.951   6.926  17.772  0.00  0.00    +0.000 A 
ATOM     23  N   UNL     1      50.470   6.277  16.666  0.00  0.00    +0.000 N 
ATOM     24  C   UNL     1      49.739   6.909  15.690  0.00  0.00    +0.000 A 
ATOM     25  O   UNL     1      49.256   6.281  14.754  0.00  0.00    +0.000 OA
ATOM     26  C   UNL     1      49.571   8.337  15.889  0.00  0.00    +0.000 A 
ATOM     27  H   UNL     1      50.597   5.282  16.551  0.00  0.00    +0.000 HD
ENDBRANCH  14  17
ENDBRANCH  12  13
ENDBRANCH   4  12
BRANCH   6  28
ATOM     28  C   UNL     1      46.789   3.882  13.720  0.00  0.00    +0.000 C 
BRANCH  28  29
ATOM     29  N   UNL     1      46.866   4.101  15.144  0.00  0.00    +0.000 N 
ATOM     30  C   UNL     1      47.688   3.369  15.970  0.00  0.00    +0.000 C 
ATOM     31  O   UNL     1      48.471   2.512  15.565  0.00  0.00    +0.000 OA
ATOM     32  H   UNL     1      46.320   4.847  15.563  0.00  0.00    +0.000 HD
BRANCH  30  33
ATOM     33  C   UNL     1      47.483   3.637  17.468  0.00  0.00    +0.000 C 
ATOM     34  C   UNL     1      47.255   5.120  17.728  0.00  0.00    +0.000 C 
ATOM     35  C   UNL     1      47.667   5.255  19.170  0.00  0.00    +0.000 C 
ATOM     36  C   UNL     1      48.834   4.297  19.256  0.00  0.00    +0.000 C 
ATOM     37  O   UNL     1      48.607   3.264  18.285  0.00  0.00    +0.000 OA
ENDBRANCH  30  33
ENDBRANCH  28  29
ENDBRANCH   6  28
TORSDOF 7
ENDMDL
MODEL 4
REMARK VINA RESULT:    -8.398      3.575      4.246
REMARK INTER + INTRA:         -12.287
REMARK INTER:                 -10.903
REMARK INTRA:                  -1.383
REMARK UNBOUND:                -0.453
REMARK  Name = 
REMARK  7 active torsions:
REMARK  status: ('A' for Active; 'I' for Inactive)
REMARK    1  A    between atoms: C_2  and  C_4
REMARK    2  A    between atoms: C_7  and  C_8
REMARK    3  A    between atoms: C_8  and  N_9
REMARK    4  A    between atoms: C_10  and  C_12
REMARK    5  A    between atoms: C_23  and  C_24
REMARK    6  A    between atoms: C_24  and  N_25
REMARK    7  A    between atoms: C_26  and  C_28
REMARK                            x       y       z     vdW  Elec       q    Type
REMARK                         _______ _______ _______ _____ _____    ______ ____
ROOT
ATOM      1  C   UNL     1      45.624   4.884  12.804  0.00  0.00    +0.000 A 
ATOM      2  C   UNL     1      46.580   4.976  13.831  0.00  0.00    +0.000 A 
ATOM      3  C   UNL     1      47.639   5.878  13.751  0.00  0.00    +0.000 A 
ATOM      4  C   UNL     1      47.768   6.707  12.637  0.00  0.00    +0.000 A 
ATOM      5  C   UNL     1      46.776   6.672  11.644  0.00  0.00    +0.000 A 
ATOM      6  C   UNL     1      45.680   5.781  11.717  0.00  0.00    +0.000 A 
ENDROOT
BRANCH   1   8
ATOM      7  N   UNL     1      44.909   2.588  12.436  0.00  0.00    +0.000 N 
ATOM      8  C   UNL     1      44.577   3.826  12.923  0.00  0.00    +0.000 C 
ATOM      9  O   UNL     1      43.470   4.022  13.397  0.00  0.00    +0.000 OA
ATOM     10  H   UNL     1      44.198   1.870  12.463  0.00  0.00    +0.000 HD
ATOM     11  H   UNL     1      45.735   2.419  11.879  0.00  0.00    +0.000 HD
ENDBRANCH   1   8
BRANCH   4  12
ATOM     12  C   UNL     1      48.933   7.654  12.542  0.00  0.00    +0.000 C 
BRANCH  12  13
ATOM     13  N   UNL     1      49.984   7.279  13.451  0.00  0.00    +0.000 N 
ATOM     14  C   UNL     1      50.133   7.832  14.694  0.00  0.00    +0.000 C 
ATOM     15  O   UNL     1      49.369   8.685  15.139  0.00  0.00    +0.000 OA
ATOM     16  H   UNL     1      50.751   6.758  13.044  0.00  0.00    +0.000 HD
BRANCH  14  17
ATOM     17  C   UNL     1      51.229   7.286  15.509  0.00  0.00    +0.000 A 
ATOM     18  C   UNL     1      50.941   6.533  16.642  0.00  0.00    +0.000 A 
ATOM     19  S   UNL     1      52.324   5.899  17.411  0.00  0.00    +0.000 S 
ATOM     20  C   UNL     1      53.361   6.656  16.294  0.00  0.00    +0.000 A 
ATOM     21  N   UNL     1      54.712   6.521  16.389  0.00  0.00    +0.000 NA
ATOM     22  C   UNL     1      55.378   7.177  15.498  0.00  0.00    +0.000 A 
ATOM     23  N   UNL     1      54.817   7.954  14.519  0.00  0.00    +0.000 N 
ATOM     24  C   UNL     1      53.459   8.079  14.354  0.00  0.00    +0.000 A 
ATOM     25  O   UNL     1      52.992   8.718  13.417  0.00  0.00    +0.000 OA
ATOM     26  C   UNL     1      52.662   7.375  15.341  0.00  0.00    +0.000 A 
ATOM     27  H   UNL     1      55.393   8.433  13.842  0.00  0.00    +0.000 HD
ENDBRANCH  14  17
ENDBRANCH  12  13
ENDBRANCH   4  12
BRANCH   6  28
ATOM     28  C   UNL     1      44.642   5.858  10.623  0.00  0.00    +0.000 C 
BRANCH  28  29
ATOM     29  N   UNL     1      45.030   5.149   9.427  0.00  0.00    +0.000 N 
ATOM     30  C   UNL     1      44.555   3.897   9.112  0.00  0.00    +0.000 C 
ATOM     31  O   UNL     1      43.716   3.299   9.783  0.00  0.00    +0.000 OA
ATOM     32  H   UNL     1      45.655   5.598   8.764  0.00  0.00    +0.000 HD
BRANCH  30  33
ATOM     33  C   UNL     1      45.232   3.250   7.895  0.00  0.00    +0.000 C 
ATOM     34  C   UNL     1      45.931   1.956   8.287  0.00  0.00    +0.000 C 
ATOM     35  C   UNL     1      46.967   1.815   7.203  0.00  0.00    +0.000 C 
ATOM     36  C   UNL     1      47.377   3.252   6.970  0.00  0.00    +0.000 C 
ATOM     37  O   UNL     1      46.243   4.074   7.286  0.00  0.00    +0.000 OA
ENDBRANCH  30  33
ENDBRANCH  28  29
ENDBRANCH   6  28
TORSDOF 7
ENDMDL
MODEL 5
REMARK VINA RESULT:    -8.337      2.196      2.895
REMARK INTER + INTRA:         -12.201
REMARK INTER:                 -11.041
REMARK INTRA:                  -1.161
REMARK UNBOUND:                -0.453
REMARK  Name = 
REMARK  7 active torsions:
REMARK  status: ('A' for Active; 'I' for Inactive)
REMARK    1  A    between atoms: C_2  and  C_4
REMARK    2  A    between atoms: C_7  and  C_8
REMARK    3  A    between atoms: C_8  and  N_9
REMARK    4  A    between atoms: C_10  and  C_12
REMARK    5  A    between atoms: C_23  and  C_24
REMARK    6  A    between atoms: C_24  and  N_25
REMARK    7  A    between atoms: C_26  and  C_28
REMARK                            x       y       z     vdW  Elec       q    Type
REMARK                         _______ _______ _______ _____ _____    ______ ____
ROOT
ATOM      1  C   UNL     1      44.790   4.507  12.218  0.00  0.00    +0.000 A 
ATOM      2  C   UNL     1      45.166   4.392  13.568  0.00  0.00    +0.000 A 
ATOM      3  C   UNL     1      46.263   5.087  14.072  0.00  0.00    +0.000 A 
ATOM      4  C   UNL     1      47.013   5.911  13.235  0.00  0.00    +0.000 A 
ATOM      5  C   UNL     1      46.598   6.088  11.905  0.00  0.00    +0.000 A 
ATOM      6  C   UNL     1      45.474   5.411  11.378  0.00  0.00    +0.000 A 
ENDROOT
BRANCH   1   8
ATOM      7  N   UNL     1      43.876   2.300  11.755  0.00  0.00    +0.000 N 
ATOM      8  C   UNL     1      43.662   3.655  11.736  0.00  0.00    +0.000 C 
ATOM      9  O   UNL     1      42.607   4.103  11.318  0.00  0.00    +0.000 OA
ATOM     10  H   UNL     1      43.144   1.707  11.388  0.00  0.00    +0.000 HD
ATOM     11  H   UNL     1      44.784   1.888  11.920  0.00  0.00    +0.000 HD
ENDBRANCH   1   8
BRANCH   4  12
ATOM     12  C   UNL     1      48.216   6.632  13.779  0.00  0.00    +0.000 C 
BRANCH  12  13
ATOM     13  N   UNL     1      48.157   6.735  15.213  0.00  0.00    +0.000 N 
ATOM     14  C   UNL     1      49.263   6.681  16.015  0.00  0.00    +0.000 C 
ATOM     15  O   UNL     1      50.402   6.554  15.572  0.00  0.00    +0.000 OA
ATOM     16  H   UNL     1      47.238   6.614  15.623  0.00  0.00    +0.000 HD
BRANCH  14  17
ATOM     17  C   UNL     1      49.018   6.863  17.455  0.00  0.00    +0.000 A 
ATOM     18  C   UNL     1      48.897   8.144  17.980  0.00  0.00    +0.000 A 
ATOM     19  S   UNL     1      48.519   8.168  19.643  0.00  0.00    +0.000 S 
ATOM     20  C   UNL     1      48.563   6.469  19.735  0.00  0.00    +0.000 A 
ATOM     21  N   UNL     1      48.329   5.825  20.910  0.00  0.00    +0.000 NA
ATOM     22  C   UNL     1      48.430   4.539  20.843  0.00  0.00    +0.000 A 
ATOM     23  N   UNL     1      48.742   3.838  19.708  0.00  0.00    +0.000 N 
ATOM     24  C   UNL     1      48.938   4.442  18.490  0.00  0.00    +0.000 A 
ATOM     25  O   UNL     1      49.137   3.777  17.479  0.00  0.00    +0.000 OA
ATOM     26  C   UNL     1      48.853   5.891  18.512  0.00  0.00    +0.000 A 
ATOM     27  H   UNL     1      48.793   2.830  19.717  0.00  0.00    +0.000 HD
ENDBRANCH  14  17
ENDBRANCH  12  13
ENDBRANCH   4  12
BRANCH   6  28
ATOM     28  C   UNL     1      45.083   5.709   9.951  0.00  0.00    +0.000 C 
BRANCH  28  29
ATOM     29  N   UNL     1      45.941   5.066   8.985  0.00  0.00    +0.000 N 
ATOM     30  C   UNL     1      45.681   3.819   8.465  0.00  0.00    +0.000 C 
ATOM     31  O   UNL     1      44.669   3.171   8.727  0.00  0.00    +0.000 OA
ATOM     32  H   UNL     1      46.759   5.560   8.641  0.00  0.00    +0.000 HD
BRANCH  30  33
ATOM     33  C   UNL     1      46.811   3.245   7.597  0.00  0.00    +0.000 C 
ATOM     34  C   UNL     1      46.513   3.445   6.118  0.00  0.00    +0.000 C 
ATOM     35  C   UNL     1      47.343   2.362   5.480  0.00  0.00    +0.000 C 
ATOM     36  C   UNL     1      47.211   1.234   6.479  0.00  0.00    +0.000 C 
ATOM     37  O   UNL     1      47.015   1.831   7.770  0.00  0.00    +0.000 OA
ENDBRANCH  30  33
ENDBRANCH  28  29
ENDBRANCH   6  28
TORSDOF 7
ENDMDL
MODEL 6
REMARK VINA RESULT:    -8.201      5.262      6.780
REMARK INTER + INTRA:         -12.010
REMARK INTER:                 -10.670
REMARK INTRA:                  -1.340
REMARK UNBOUND:                -0.453
REMARK  Name = 
REMARK  7 active torsions:
REMARK  status: ('A' for Active; 'I' for Inactive)
REMARK    1  A    between atoms: C_2  and  C_4
REMARK    2  A    between atoms: C_7  and  C_8
REMARK    3  A    between atoms: C_8  and  N_9
REMARK    4  A    between atoms: C_10  and  C_12
REMARK    5  A    between atoms: C_23  and  C_24
REMARK    6  A    between atoms: C_24  and  N_25
REMARK    7  A    between atoms: C_26  and  C_28
REMARK                            x       y       z     vdW  Elec       q    Type
REMARK                         _______ _______ _______ _____ _____    ______ ____
ROOT
ATOM      1  C   UNL     1      46.433   5.334  12.720  0.00  0.00    +0.000 A 
ATOM      2  C   UNL     1      47.523   5.623  13.561  0.00  0.00    +0.000 A 
ATOM      3  C   UNL     1      48.458   6.596  13.218  0.00  0.00    +0.000 A 
ATOM      4  C   UNL     1      48.328   7.301  12.023  0.00  0.00    +0.000 A 
ATOM      5  C   UNL     1      47.201   7.069  11.216  0.00  0.00    +0.000 A 
ATOM      6  C   UNL     1      46.227   6.103  11.557  0.00  0.00    +0.000 A 
ENDROOT
BRANCH   1   8
ATOM      7  N   UNL     1      45.996   2.945  12.869  0.00  0.00    +0.000 N 
ATOM      8  C   UNL     1      45.530   4.211  13.115  0.00  0.00    +0.000 C 
ATOM      9  O   UNL     1      44.425   4.374  13.607  0.00  0.00    +0.000 OA
ATOM     10  H   UNL     1      45.381   2.172  13.084  0.00  0.00    +0.000 HD
ATOM     11  H   UNL     1      46.816   2.759  12.308  0.00  0.00    +0.000 HD
ENDBRANCH   1   8
BRANCH   4  12
ATOM     12  C   UNL     1      49.361   8.326  11.643  0.00  0.00    +0.000 C 
BRANCH  12  13
ATOM     13  N   UNL     1      50.661   7.726  11.498  0.00  0.00    +0.000 N 
ATOM     14  C   UNL     1      51.803   8.451  11.298  0.00  0.00    +0.000 C 
ATOM     15  O   UNL     1      51.812   9.678  11.241  0.00  0.00    +0.000 OA
ATOM     16  H   UNL     1      50.665   6.730  11.314  0.00  0.00    +0.000 HD
BRANCH  14  17
ATOM     17  C   UNL     1      53.051   7.673  11.230  0.00  0.00    +0.000 A 
ATOM     18  C   UNL     1      53.959   7.727  12.281  0.00  0.00    +0.000 A 
ATOM     19  S   UNL     1      55.299   6.692  12.080  0.00  0.00    +0.000 S 
ATOM     20  C   UNL     1      54.744   6.178  10.556  0.00  0.00    +0.000 A 
ATOM     21  N   UNL     1      55.449   5.274   9.823  0.00  0.00    +0.000 NA
ATOM     22  C   UNL     1      54.932   5.002   8.671  0.00  0.00    +0.000 A 
ATOM     23  N   UNL     1      53.773   5.549   8.186  0.00  0.00    +0.000 N 
ATOM     24  C   UNL     1      53.004   6.426   8.911  0.00  0.00    +0.000 A 
ATOM     25  O   UNL     1      51.931   6.833   8.477  0.00  0.00    +0.000 OA
ATOM     26  C   UNL     1      53.549   6.781  10.208  0.00  0.00    +0.000 A 
ATOM     27  H   UNL     1      53.412   5.284   7.281  0.00  0.00    +0.000 HD
ENDBRANCH  14  17
ENDBRANCH  12  13
ENDBRANCH   4  12
BRANCH   6  28
ATOM     28  C   UNL     1      45.029   5.967  10.647  0.00  0.00    +0.000 C 
BRANCH  28  29
ATOM     29  N   UNL     1      45.305   5.189   9.464  0.00  0.00    +0.000 N 
ATOM     30  C   UNL     1      44.756   3.947   9.240  0.00  0.00    +0.000 C 
ATOM     31  O   UNL     1      43.939   3.419   9.992  0.00  0.00    +0.000 OA
ATOM     32  H   UNL     1      45.902   5.578   8.741  0.00  0.00    +0.000 HD
BRANCH  30  33
ATOM     33  C   UNL     1      45.322   3.216   8.014  0.00  0.00    +0.000 C 
ATOM     34  C   UNL     1      45.977   1.903   8.419  0.00  0.00    +0.000 C 
ATOM     35  C   UNL     1      46.934   1.663   7.282  0.00  0.00    +0.000 C 
ATOM     36  C   UNL     1      47.402   3.065   6.961  0.00  0.00    +0.000 C 
ATOM     37  O   UNL     1      46.333   3.959   7.310  0.00  0.00    +0.000 OA
ENDBRANCH  30  33
ENDBRANCH  28  29
ENDBRANCH   6  28
TORSDOF 7
ENDMDL
MODEL 7
REMARK VINA RESULT:    -7.967      4.880      6.863
REMARK INTER + INTRA:         -11.681
REMARK INTER:                 -10.186
REMARK INTRA:                  -1.495
REMARK UNBOUND:                -0.453
REMARK  Name = 
REMARK  7 active torsions:
REMARK  status: ('A' for Active; 'I' for Inactive)
REMARK    1  A    between atoms: C_2  and  C_4
REMARK    2  A    between atoms: C_7  and  C_8
REMARK    3  A    between atoms: C_8  and  N_9
REMARK    4  A    between atoms: C_10  and  C_12
REMARK    5  A    between atoms: C_23  and  C_24
REMARK    6  A    between atoms: C_24  and  N_25
REMARK    7  A    between atoms: C_26  and  C_28
REMARK                            x       y       z     vdW  Elec       q    Type
REMARK                         _______ _______ _______ _____ _____    ______ ____
ROOT
ATOM      1  C   UNL     1      47.075   5.630  13.942  0.00  0.00    +0.000 A 
ATOM      2  C   UNL     1      48.084   6.522  14.348  0.00  0.00    +0.000 A 
ATOM      3  C   UNL     1      48.213   7.779  13.763  0.00  0.00    +0.000 A 
ATOM      4  C   UNL     1      47.336   8.173  12.753  0.00  0.00    +0.000 A 
ATOM      5  C   UNL     1      46.282   7.316  12.395  0.00  0.00    +0.000 A 
ATOM      6  C   UNL     1      46.118   6.046  12.993  0.00  0.00    +0.000 A 
ENDROOT
BRANCH   1   8
ATOM      7  N   UNL     1      46.753   4.204  15.886  0.00  0.00    +0.000 N 
ATOM      8  C   UNL     1      47.066   4.267  14.552  0.00  0.00    +0.000 C 
ATOM      9  O   UNL     1      47.341   3.250  13.938  0.00  0.00    +0.000 OA
ATOM     10  H   UNL     1      46.788   3.296  16.331  0.00  0.00    +0.000 HD
ATOM     11  H   UNL     1      46.693   5.021  16.477  0.00  0.00    +0.000 HD
ENDBRANCH   1   8
BRANCH   4  12
ATOM     12  C   UNL     1      47.503   9.518  12.101  0.00  0.00    +0.000 C 
BRANCH  12  13
ATOM     13  N   UNL     1      48.736   9.590  11.364  0.00  0.00    +0.000 N 
ATOM     14  C   UNL     1      49.815  10.324  11.775  0.00  0.00    +0.000 C 
ATOM     15  O   UNL     1      49.820  10.972  12.820  0.00  0.00    +0.000 OA
ATOM     16  H   UNL     1      48.694   9.264  10.406  0.00  0.00    +0.000 HD
BRANCH  14  17
ATOM     17  C   UNL     1      51.012  10.234  10.925  0.00  0.00    +0.000 A 
ATOM     18  C   UNL     1      51.583  11.391  10.408  0.00  0.00    +0.000 A 
ATOM     19  S   UNL     1      53.016  11.111   9.527  0.00  0.00    +0.000 S 
ATOM     20  C   UNL     1      52.893   9.429   9.753  0.00  0.00    +0.000 A 
ATOM     21  N   UNL     1      53.822   8.583   9.232  0.00  0.00    +0.000 NA
ATOM     22  C   UNL     1      53.586   7.332   9.450  0.00  0.00    +0.000 A 
ATOM     23  N   UNL     1      52.506   6.850  10.142  0.00  0.00    +0.000 N 
ATOM     24  C   UNL     1      51.571   7.668  10.726  0.00  0.00    +0.000 A 
ATOM     25  O   UNL     1      50.662   7.204  11.407  0.00  0.00    +0.000 OA
ATOM     26  C   UNL     1      51.779   9.086  10.498  0.00  0.00    +0.000 A 
ATOM     27  H   UNL     1      52.384   5.858  10.290  0.00  0.00    +0.000 HD
ENDBRANCH  14  17
ENDBRANCH  12  13
ENDBRANCH   4  12
BRANCH   6  28
ATOM     28  C   UNL     1      44.923   5.224  12.573  0.00  0.00    +0.000 C 
BRANCH  28  29
ATOM     29  N   UNL     1      45.082   4.621  11.272  0.00  0.00    +0.000 N 
ATOM     30  C   UNL     1      44.099   4.647  10.309  0.00  0.00    +0.000 C 
ATOM     31  O   UNL     1      43.029   5.236  10.446  0.00  0.00    +0.000 OA
ATOM     32  H   UNL     1      45.966   4.183  11.032  0.00  0.00    +0.000 HD
BRANCH  30  33
ATOM     33  C   UNL     1      44.402   3.791   9.070  0.00  0.00    +0.000 C 
ATOM     34  C   UNL     1      45.127   2.511   9.460  0.00  0.00    +0.000 C 
ATOM     35  C   UNL     1      45.832   2.145   8.179  0.00  0.00    +0.000 C 
ATOM     36  C   UNL     1      46.223   3.501   7.636  0.00  0.00    +0.000 C 
ATOM     37  O   UNL     1      45.248   4.445   8.106  0.00  0.00    +0.000 OA
ENDBRANCH  30  33
ENDBRANCH  28  29
ENDBRANCH   6  28
TORSDOF 7
ENDMDL
MODEL 8
REMARK VINA RESULT:    -7.603      3.318      8.799
REMARK INTER + INTRA:         -11.167
REMARK INTER:                  -9.530
REMARK INTRA:                  -1.637
REMARK UNBOUND:                -0.453
REMARK  Name = 
REMARK  7 active torsions:
REMARK  status: ('A' for Active; 'I' for Inactive)
REMARK    1  A    between atoms: C_2  and  C_4
REMARK    2  A    between atoms: C_7  and  C_8
REMARK    3  A    between atoms: C_8  and  N_9
REMARK    4  A    between atoms: C_10  and  C_12
REMARK    5  A    between atoms: C_23  and  C_24
REMARK    6  A    between atoms: C_24  and  N_25
REMARK    7  A    between atoms: C_26  and  C_28
REMARK                            x       y       z     vdW  Elec       q    Type
REMARK                         _______ _______ _______ _____ _____    ______ ____
ROOT
ATOM      1  C   UNL     1      50.415   8.333  14.121  0.00  0.00    +0.000 A 
ATOM      2  C   UNL     1      50.443   8.391  12.716  0.00  0.00    +0.000 A 
ATOM      3  C   UNL     1      49.266   8.391  11.972  0.00  0.00    +0.000 A 
ATOM      4  C   UNL     1      48.032   8.329  12.616  0.00  0.00    +0.000 A 
ATOM      5  C   UNL     1      47.996   8.346  14.020  0.00  0.00    +0.000 A 
ATOM      6  C   UNL     1      49.178   8.370  14.796  0.00  0.00    +0.000 A 
ENDROOT
BRANCH   1   8
ATOM      7  N   UNL     1      52.059   7.002  15.324  0.00  0.00    +0.000 N 
ATOM      8  C   UNL     1      51.722   8.239  14.838  0.00  0.00    +0.000 C 
ATOM      9  O   UNL     1      52.461   9.193  15.023  0.00  0.00    +0.000 OA
ATOM     10  H   UNL     1      52.917   6.927  15.854  0.00  0.00    +0.000 HD
ATOM     11  H   UNL     1      51.411   6.227  15.355  0.00  0.00    +0.000 HD
ENDBRANCH   1   8
BRANCH   4  12
ATOM     12  C   UNL     1      46.766   8.295  11.804  0.00  0.00    +0.000 C 
BRANCH  12  13
ATOM     13  N   UNL     1      46.252   6.956  11.697  0.00  0.00    +0.000 N 
ATOM     14  C   UNL     1      44.928   6.674  11.501  0.00  0.00    +0.000 C 
ATOM     15  O   UNL     1      44.071   7.547  11.386  0.00  0.00    +0.000 OA
ATOM     16  H   UNL     1      46.876   6.221  12.008  0.00  0.00    +0.000 HD
BRANCH  14  17
ATOM     17  C   UNL     1      44.592   5.248  11.358  0.00  0.00    +0.000 A 
ATOM     18  C   UNL     1      43.895   4.596  12.369  0.00  0.00    +0.000 A 
ATOM     19  S   UNL     1      43.507   2.978  11.996  0.00  0.00    +0.000 S 
ATOM     20  C   UNL     1      44.306   3.072  10.497  0.00  0.00    +0.000 A 
ATOM     21  N   UNL     1      44.357   1.999   9.662  0.00  0.00    +0.000 NA
ATOM     22  C   UNL     1      45.026   2.200   8.575  0.00  0.00    +0.000 A 
ATOM     23  N   UNL     1      45.648   3.376   8.247  0.00  0.00    +0.000 N 
ATOM     24  C   UNL     1      45.581   4.499   9.035  0.00  0.00    +0.000 A 
ATOM     25  O   UNL     1      46.082   5.558   8.670  0.00  0.00    +0.000 OA
ATOM     26  C   UNL     1      44.855   4.323  10.279  0.00  0.00    +0.000 A 
ATOM     27  H   UNL     1      46.145   3.475   7.374  0.00  0.00    +0.000 HD
ENDBRANCH  14  17
ENDBRANCH  12  13
ENDBRANCH   4  12
BRANCH   6  28
ATOM     28  C   UNL     1      49.028   8.437  16.297  0.00  0.00    +0.000 C 
BRANCH  28  29
ATOM     29  N   UNL     1      48.541   7.206  16.871  0.00  0.00    +0.000 N 
ATOM     30  C   UNL     1      49.336   6.354  17.603  0.00  0.00    +0.000 C 
ATOM     31  O   UNL     1      50.509   6.593  17.885  0.00  0.00    +0.000 OA
ATOM     32  H   UNL     1      47.561   6.962  16.765  0.00  0.00    +0.000 HD
BRANCH  30  33
ATOM     33  C   UNL     1      48.670   5.018  17.964  0.00  0.00    +0.000 C 
ATOM     34  C   UNL     1      49.431   3.850  17.352  0.00  0.00    +0.000 C 
ATOM     35  C   UNL     1      48.373   2.780  17.292  0.00  0.00    +0.000 C 
ATOM     36  C   UNL     1      47.136   3.580  16.947  0.00  0.00    +0.000 C 
ATOM     37  O   UNL     1      47.317   4.897  17.489  0.00  0.00    +0.000 OA
ENDBRANCH  30  33
ENDBRANCH  28  29
ENDBRANCH   6  28
TORSDOF 7
ENDMDL
MODEL 9
REMARK VINA RESULT:    -7.352      3.235      5.340
REMARK INTER + INTRA:         -10.813
REMARK INTER:                  -8.413
REMARK INTRA:                  -2.400
REMARK UNBOUND:                -0.453
REMARK  Name = 
REMARK  7 active torsions:
REMARK  status: ('A' for Active; 'I' for Inactive)
REMARK    1  A    between atoms: C_2  and  C_4
REMARK    2  A    between atoms: C_7  and  C_8
REMARK    3  A    between atoms: C_8  and  N_9
REMARK    4  A    between atoms: C_10  and  C_12
REMARK    5  A    between atoms: C_23  and  C_24
REMARK    6  A    between atoms: C_24  and  N_25
REMARK    7  A    between atoms: C_26  and  C_28
REMARK                            x       y       z     vdW  Elec       q    Type
REMARK                         _______ _______ _______ _____ _____    ______ ____
ROOT
ATOM      1  C   UNL     1      45.624   4.960  11.578  0.00  0.00    +0.000 A 
ATOM      2  C   UNL     1      45.623   3.638  12.058  0.00  0.00    +0.000 A 
ATOM      3  C   UNL     1      46.178   3.321  13.296  0.00  0.00    +0.000 A 
ATOM      4  C   UNL     1      46.752   4.320  14.081  0.00  0.00    +0.000 A 
ATOM      5  C   UNL     1      46.689   5.652  13.640  0.00  0.00    +0.000 A 
ATOM      6  C   UNL     1      46.108   6.000  12.399  0.00  0.00    +0.000 A 
ENDROOT
BRANCH   1   8
ATOM      7  N   UNL     1      43.732   5.152  10.061  0.00  0.00    +0.000 N 
ATOM      8  C   UNL     1      45.095   5.199  10.202  0.00  0.00    +0.000 C 
ATOM      9  O   UNL     1      45.806   5.401   9.231  0.00  0.00    +0.000 OA
ATOM     10  H   UNL     1      43.356   5.264   9.129  0.00  0.00    +0.000 HD
ATOM     11  H   UNL     1      43.114   4.816  10.786  0.00  0.00    +0.000 HD
ENDBRANCH   1   8
BRANCH   4  12
ATOM     12  C   UNL     1      47.380   3.964  15.401  0.00  0.00    +0.000 C 
BRANCH  12  13
ATOM     13  N   UNL     1      47.499   5.120  16.249  0.00  0.00    +0.000 N 
ATOM     14  C   UNL     1      48.643   5.438  16.928  0.00  0.00    +0.000 C 
ATOM     15  O   UNL     1      49.669   4.765  16.856  0.00  0.00    +0.000 OA
ATOM     16  H   UNL     1      46.627   5.564  16.510  0.00  0.00    +0.000 HD
BRANCH  14  17
ATOM     17  C   UNL     1      48.601   6.689  17.702  0.00  0.00    +0.000 A 
ATOM     18  C   UNL     1      48.614   6.645  19.091  0.00  0.00    +0.000 A 
ATOM     19  S   UNL     1      48.659   8.184  19.823  0.00  0.00    +0.000 S 
ATOM     20  C   UNL     1      48.603   8.966  18.313  0.00  0.00    +0.000 A 
ATOM     21  N   UNL     1      48.606  10.324  18.227  0.00  0.00    +0.000 NA
ATOM     22  C   UNL     1      48.524  10.782  17.022  0.00  0.00    +0.000 A 
ATOM     23  N   UNL     1      48.442  10.007  15.895  0.00  0.00    +0.000 N 
ATOM     24  C   UNL     1      48.486   8.635  15.931  0.00  0.00    +0.000 A 
ATOM     25  O   UNL     1      48.491   7.976  14.896  0.00  0.00    +0.000 OA
ATOM     26  C   UNL     1      48.560   8.065  17.264  0.00  0.00    +0.000 A 
ATOM     27  H   UNL     1      48.394  10.427  14.978  0.00  0.00    +0.000 HD
ENDBRANCH  14  17
ENDBRANCH  12  13
ENDBRANCH   4  12
BRANCH   6  28
ATOM     28  C   UNL     1      46.047   7.465  12.042  0.00  0.00    +0.000 C 
BRANCH  28  29
ATOM     29  N   UNL     1      47.339   8.106  12.062  0.00  0.00    +0.000 N 
ATOM     30  C   UNL     1      47.499   9.472  12.006  0.00  0.00    +0.000 C 
ATOM     31  O   UNL     1      46.561  10.266  11.997  0.00  0.00    +0.000 OA
ATOM     32  H   UNL     1      48.175   7.537  12.155  0.00  0.00    +0.000 HD
BRANCH  30  33
ATOM     33  C   UNL     1      48.956   9.934  11.855  0.00  0.00    +0.000 C 
ATOM     34  C   UNL     1      49.868   8.758  11.540  0.00  0.00    +0.000 C 
ATOM     35  C   UNL     1      51.207   9.262  12.011  0.00  0.00    +0.000 C 
ATOM     36  C   UNL     1      50.831  10.054  13.243  0.00  0.00    +0.000 C 
ATOM     37  O   UNL     1      49.497  10.546  13.040  0.00  0.00    +0.000 OA
ENDBRANCH  30  33
ENDBRANCH  28  29
ENDBRANCH   6  28
TORSDOF 7
ENDMDL
