MODEL 1
REMARK VINA RESULT:    -8.721      0.000      0.000
REMARK INTER + INTRA:         -11.226
REMARK INTER:                 -11.270
REMARK INTRA:                   0.044
REMARK UNBOUND:                 0.044
REMARK  Name = 
REMARK  6 active torsions:
REMARK  status: ('A' for Active; 'I' for Inactive)
REMARK    1  A    between atoms: C_1  and  C_2
REMARK    2  A    between atoms: C_2  and  N_3
REMARK    3  A    between atoms: C_2  and  C_16
REMARK    4  A    between atoms: C_4  and  C_6
REMARK    5  A    between atoms: C_19  and  O_20
REMARK    6  A    between atoms: O_20  and  C_21
REMARK                            x       y       z     vdW  Elec       q    Type
REMARK                         _______ _______ _______ _____ _____    ______ ____
ROOT
ATOM      1  C   UNL     1      45.868   8.451  11.783  0.00  0.00    +0.000 C 
ATOM      2  C   UNL     1      45.329   7.244  12.554  0.00  0.00    +0.000 C 
ENDROOT
BRANCH   2   3
ATOM      3  C   UNL     1      45.133   5.999  11.706  0.00  0.00    +0.000 A 
ATOM      4  C   UNL     1      45.625   5.993  10.391  0.00  0.00    +0.000 A 
ATOM      5  C   UNL     1      45.476   4.870   9.576  0.00  0.00    +0.000 A 
ATOM      6  C   UNL     1      44.865   3.719  10.073  0.00  0.00    +0.000 A 
ATOM      7  C   UNL     1      44.311   3.734  11.352  0.00  0.00    +0.000 A 
ATOM      8  C   UNL     1      44.438   4.868  12.160  0.00  0.00    +0.000 A 
BRANCH   6   9
ATOM      9  O   UNL     1      44.699   2.564   9.342  0.00  0.00    +0.000 OA
BRANCH   9  10
ATOM     10  C   UNL     1      45.599   2.303   8.313  0.00  0.00    +0.000 A 
ATOM     11  C   UNL     1      45.658   3.241   7.294  0.00  0.00    +0.000 A 
ATOM     12  C   UNL     1      46.574   3.039   6.266  0.00  0.00    +0.000 A 
ATOM     13  C   UNL     1      47.387   1.910   6.288  0.00  0.00    +0.000 A 
ATOM     14  C   UNL     1      47.232   1.011   7.329  0.00  0.00    +0.000 A 
ATOM     15  N   UNL     1      46.346   1.176   8.331  0.00  0.00    +0.000 NA
ENDBRANCH   9  10
ENDBRANCH   6   9
ENDBRANCH   2   3
BRANCH   2  16
ATOM     16  N   UNL     1      46.199   6.922  13.668  0.00  0.00    +0.000 N 
ATOM     17  C   UNL     1      47.543   6.710  13.516  0.00  0.00    +0.000 C 
ATOM     18  O   UNL     1      48.116   6.853  12.441  0.00  0.00    +0.000 OA
ATOM     19  H   UNL     1      45.741   6.644  14.529  0.00  0.00    +0.000 HD
BRANCH  17  20
ATOM     20  C   UNL     1      48.282   6.352  14.732  0.00  0.00    +0.000 A 
ATOM     21  C   UNL     1      49.359   7.126  15.137  0.00  0.00    +0.000 A 
ATOM     22  S   UNL     1      50.094   6.574  16.574  0.00  0.00    +0.000 S 
ATOM     23  C   UNL     1      49.029   5.251  16.675  0.00  0.00    +0.000 A 
ATOM     24  N   UNL     1      49.144   4.337  17.676  0.00  0.00    +0.000 NA
ATOM     25  C   UNL     1      48.299   3.365  17.606  0.00  0.00    +0.000 A 
ATOM     26  N   UNL     1      47.340   3.228  16.635  0.00  0.00    +0.000 N 
ATOM     27  C   UNL     1      47.148   4.155  15.638  0.00  0.00    +0.000 A 
ATOM     28  O   UNL     1      46.222   4.049  14.841  0.00  0.00    +0.000 OA
ATOM     29  C   UNL     1      48.102   5.250  15.647  0.00  0.00    +0.000 A 
ATOM     30  H   UNL     1      46.692   2.455  16.654  0.00  0.00    +0.000 HD
ENDBRANCH  17  20
ENDBRANCH   2  16
TORSDOF 5
ENDMDL
MODEL 2
REMARK VINA RESULT:    -8.230      1.701      2.233
REMARK INTER + INTRA:         -10.591
REMARK INTER:                  -9.345
REMARK INTRA:                  -1.246
REMARK UNBOUND:                 0.044
REMARK  Name = 
REMARK  6 active torsions:
REMARK  status: ('A' for Active; 'I' for Inactive)
REMARK    1  A    between atoms: C_1  and  C_2
REMARK    2  A    between atoms: C_2  and  N_3
REMARK    3  A    between atoms: C_2  and  C_16
REMARK    4  A    between atoms: C_4  and  C_6
REMARK    5  A    between atoms: C_19  and  O_20
REMARK    6  A    between atoms: O_20  and  C_21
REMARK                            x       y       z     vdW  Elec       q    Type
REMARK                         _______ _______ _______ _____ _____    ______ ____
ROOT
ATOM      1  C   UNL     1      48.101   8.951  12.944  0.00  0.00    +0.000 C 
ATOM      2  C   UNL     1      47.296   7.925  13.745  0.00  0.00    +0.000 C 
ENDROOT
BRANCH   2   3
ATOM      3  C   UNL     1      46.410   7.027  12.899  0.00  0.00    +0.000 A 
ATOM      4  C   UNL     1      45.393   7.615  12.129  0.00  0.00    +0.000 A 
ATOM      5  C   UNL     1      44.559   6.833  11.330  0.00  0.00    +0.000 A 
ATOM      6  C   UNL     1      44.748   5.453  11.257  0.00  0.00    +0.000 A 
ATOM      7  C   UNL     1      45.707   4.848  12.069  0.00  0.00    +0.000 A 
ATOM      8  C   UNL     1      46.527   5.629  12.889  0.00  0.00    +0.000 A 
BRANCH   6   9
ATOM      9  O   UNL     1      43.983   4.615  10.477  0.00  0.00    +0.000 OA
BRANCH   9  10
ATOM     10  C   UNL     1      44.634   3.781   9.574  0.00  0.00    +0.000 A 
ATOM     11  C   UNL     1      45.345   4.406   8.561  0.00  0.00    +0.000 A 
ATOM     12  C   UNL     1      46.045   3.609   7.660  0.00  0.00    +0.000 A 
ATOM     13  C   UNL     1      46.004   2.225   7.797  0.00  0.00    +0.000 A 
ATOM     14  C   UNL     1      45.239   1.690   8.820  0.00  0.00    +0.000 A 
ATOM     15  N   UNL     1      44.542   2.438   9.699  0.00  0.00    +0.000 NA
ENDBRANCH   9  10
ENDBRANCH   6   9
ENDBRANCH   2   3
BRANCH   2  16
ATOM     16  N   UNL     1      48.180   7.097  14.543  0.00  0.00    +0.000 N 
ATOM     17  C   UNL     1      48.645   7.485  15.770  0.00  0.00    +0.000 C 
ATOM     18  O   UNL     1      48.286   8.526  16.313  0.00  0.00    +0.000 OA
ATOM     19  H   UNL     1      48.615   6.316  14.064  0.00  0.00    +0.000 HD
BRANCH  17  20
ATOM     20  C   UNL     1      49.565   6.556  16.436  0.00  0.00    +0.000 A 
ATOM     21  C   UNL     1      50.844   6.975  16.772  0.00  0.00    +0.000 A 
ATOM     22  S   UNL     1      51.773   5.774  17.547  0.00  0.00    +0.000 S 
ATOM     23  C   UNL     1      50.515   4.636  17.413  0.00  0.00    +0.000 A 
ATOM     24  N   UNL     1      50.676   3.360  17.856  0.00  0.00    +0.000 NA
ATOM     25  C   UNL     1      49.657   2.595  17.654  0.00  0.00    +0.000 A 
ATOM     26  N   UNL     1      48.486   2.991  17.061  0.00  0.00    +0.000 N 
ATOM     27  C   UNL     1      48.255   4.283  16.651  0.00  0.00    +0.000 A 
ATOM     28  O   UNL     1      47.162   4.624  16.209  0.00  0.00    +0.000 OA
ATOM     29  C   UNL     1      49.387   5.176  16.818  0.00  0.00    +0.000 A 
ATOM     30  H   UNL     1      47.716   2.347  16.956  0.00  0.00    +0.000 HD
ENDBRANCH  17  20
ENDBRANCH   2  16
TORSDOF 5
ENDMDL
MODEL 3
REMARK VINA RESULT:    -7.757      3.032      3.996
REMARK INTER + INTRA:          -9.980
REMARK INTER:                  -8.878
REMARK INTRA:                  -1.103
REMARK UNBOUND:                 0.044
REMARK  Name = 
REMARK  6 active torsions:
REMARK  status: ('A' for Active; 'I' for Inactive)
REMARK    1  A    between atoms: C_1  and  C_2
REMARK    2  A    between atoms: C_2  and  N_3
REMARK    3  A    between atoms: C_2  and  C_16
REMARK    4  A    between atoms: C_4  and  C_6
REMARK    5  A    between atoms: C_19  and  O_20
REMARK    6  A    between atoms: O_20  and  C_21
REMARK                            x       y       z     vdW  Elec       q    Type
REMARK                         _______ _______ _______ _____ _____    ______ ____
ROOT
ATOM      1  C   UNL     1      47.500   4.167  16.469  0.00  0.00    +0.000 C 
ATOM      2  C   UNL     1      47.891   4.980  15.233  0.00  0.00    +0.000 C 
ENDROOT
BRANCH   2   3
ATOM      3  C   UNL     1      46.989   4.759  14.030  0.00  0.00    +0.000 A 
ATOM      4  C   UNL     1      46.568   5.875  13.288  0.00  0.00    +0.000 A 
ATOM      5  C   UNL     1      45.746   5.722  12.171  0.00  0.00    +0.000 A 
ATOM      6  C   UNL     1      45.360   4.448  11.753  0.00  0.00    +0.000 A 
ATOM      7  C   UNL     1      45.713   3.338  12.519  0.00  0.00    +0.000 A 
ATOM      8  C   UNL     1      46.515   3.493  13.654  0.00  0.00    +0.000 A 
BRANCH   6   9
ATOM      9  O   UNL     1      44.570   4.212  10.651  0.00  0.00    +0.000 OA
BRANCH   9  10
ATOM     10  C   UNL     1      45.154   3.613   9.540  0.00  0.00    +0.000 A 
ATOM     11  C   UNL     1      45.670   4.469   8.578  0.00  0.00    +0.000 A 
ATOM     12  C   UNL     1      46.300   3.910   7.470  0.00  0.00    +0.000 A 
ATOM     13  C   UNL     1      46.385   2.527   7.358  0.00  0.00    +0.000 A 
ATOM     14  C   UNL     1      45.811   1.752   8.351  0.00  0.00    +0.000 A 
ATOM     15  N   UNL     1      45.185   2.265   9.429  0.00  0.00    +0.000 NA
ENDBRANCH   9  10
ENDBRANCH   6   9
ENDBRANCH   2   3
BRANCH   2  16
ATOM     16  N   UNL     1      47.922   6.395  15.544  0.00  0.00    +0.000 N 
ATOM     17  C   UNL     1      49.091   7.079  15.749  0.00  0.00    +0.000 C 
ATOM     18  O   UNL     1      50.193   6.558  15.607  0.00  0.00    +0.000 OA
ATOM     19  H   UNL     1      47.040   6.813  15.820  0.00  0.00    +0.000 HD
BRANCH  17  20
ATOM     20  C   UNL     1      48.956   8.498  16.097  0.00  0.00    +0.000 A 
ATOM     21  C   UNL     1      49.461   9.467  15.243  0.00  0.00    +0.000 A 
ATOM     22  S   UNL     1      49.209  11.060  15.795  0.00  0.00    +0.000 S 
ATOM     23  C   UNL     1      48.462  10.507  17.220  0.00  0.00    +0.000 A 
ATOM     24  N   UNL     1      48.035  11.382  18.170  0.00  0.00    +0.000 NA
ATOM     25  C   UNL     1      47.526  10.823  19.215  0.00  0.00    +0.000 A 
ATOM     26  N   UNL     1      47.392   9.470  19.394  0.00  0.00    +0.000 N 
ATOM     27  C   UNL     1      47.755   8.551  18.438  0.00  0.00    +0.000 A 
ATOM     28  O   UNL     1      47.536   7.353  18.593  0.00  0.00    +0.000 OA
ATOM     29  C   UNL     1      48.373   9.126  17.257  0.00  0.00    +0.000 A 
ATOM     30  H   UNL     1      46.960   9.099  20.226  0.00  0.00    +0.000 HD
ENDBRANCH  17  20
ENDBRANCH   2  16
TORSDOF 5
ENDMDL
MODEL 4
REMARK VINA RESULT:    -7.683      2.464      3.416
REMARK INTER + INTRA:          -9.885
REMARK INTER:                  -8.883
REMARK INTRA:                  -1.002
REMARK UNBOUND:                 0.044
REMARK  Name = 
REMARK  6 active torsions:
REMARK  status: ('A' for Active; 'I' for Inactive)
REMARK    1  A    between atoms: C_1  and  C_2
REMARK    2  A    between atoms: C_2  and  N_3
REMARK    3  A    between atoms: C_2  and  C_16
REMARK    4  A    between atoms: C_4  and  C_6
REMARK    5  A    between atoms: C_19  and  O_20
REMARK    6  A    between atoms: O_20  and  C_21
REMARK                            x       y       z     vdW  Elec       q    Type
REMARK                         _______ _______ _______ _____ _____    ______ ____
ROOT
ATOM      1  C   UNL     1      49.870   7.763  13.595  0.00  0.00    +0.000 C 
ATOM      2  C   UNL     1      48.415   8.007  14.001  0.00  0.00    +0.000 C 
ENDROOT
BRANCH   2   3
ATOM      3  C   UNL     1      47.397   7.264  13.153  0.00  0.00    +0.000 A 
ATOM      4  C   UNL     1      47.227   5.885  13.357  0.00  0.00    +0.000 A 
ATOM      5  C   UNL     1      46.298   5.161  12.608  0.00  0.00    +0.000 A 
ATOM      6  C   UNL     1      45.497   5.808  11.668  0.00  0.00    +0.000 A 
ATOM      7  C   UNL     1      45.702   7.162  11.407  0.00  0.00    +0.000 A 
ATOM      8  C   UNL     1      46.651   7.883  12.139  0.00  0.00    +0.000 A 
BRANCH   6   9
ATOM      9  O   UNL     1      44.544   5.170  10.906  0.00  0.00    +0.000 OA
BRANCH   9  10
ATOM     10  C   UNL     1      44.974   4.305   9.905  0.00  0.00    +0.000 A 
ATOM     11  C   UNL     1      44.711   2.957  10.101  0.00  0.00    +0.000 A 
ATOM     12  C   UNL     1      45.088   2.061   9.105  0.00  0.00    +0.000 A 
ATOM     13  C   UNL     1      45.718   2.538   7.961  0.00  0.00    +0.000 A 
ATOM     14  C   UNL     1      45.970   3.896   7.869  0.00  0.00    +0.000 A 
ATOM     15  N   UNL     1      45.626   4.785   8.822  0.00  0.00    +0.000 NA
ENDBRANCH   9  10
ENDBRANCH   6   9
ENDBRANCH   2   3
BRANCH   2  16
ATOM     16  N   UNL     1      48.210   7.661  15.394  0.00  0.00    +0.000 N 
ATOM     17  C   UNL     1      48.594   8.481  16.421  0.00  0.00    +0.000 C 
ATOM     18  O   UNL     1      49.066   9.598  16.232  0.00  0.00    +0.000 OA
ATOM     19  H   UNL     1      47.972   6.694  15.585  0.00  0.00    +0.000 HD
BRANCH  17  20
ATOM     20  C   UNL     1      48.358   7.971  17.776  0.00  0.00    +0.000 A 
ATOM     21  C   UNL     1      47.910   8.832  18.767  0.00  0.00    +0.000 A 
ATOM     22  S   UNL     1      47.678   8.073  20.276  0.00  0.00    +0.000 S 
ATOM     23  C   UNL     1      48.217   6.578  19.669  0.00  0.00    +0.000 A 
ATOM     24  N   UNL     1      48.306   5.487  20.477  0.00  0.00    +0.000 NA
ATOM     25  C   UNL     1      48.769   4.433  19.895  0.00  0.00    +0.000 A 
ATOM     26  N   UNL     1      49.140   4.364  18.577  0.00  0.00    +0.000 N 
ATOM     27  C   UNL     1      49.014   5.423  17.709  0.00  0.00    +0.000 A 
ATOM     28  O   UNL     1      49.269   5.300  16.515  0.00  0.00    +0.000 OA
ATOM     29  C   UNL     1      48.536   6.648  18.324  0.00  0.00    +0.000 A 
ATOM     30  H   UNL     1      49.471   3.499  18.177  0.00  0.00    +0.000 HD
ENDBRANCH  17  20
ENDBRANCH   2  16
TORSDOF 5
ENDMDL
MODEL 5
REMARK VINA RESULT:    -7.494      2.521      3.558
REMARK INTER + INTRA:          -9.640
REMARK INTER:                  -8.606
REMARK INTRA:                  -1.035
REMARK UNBOUND:                 0.044
REMARK  Name = 
REMARK  6 active torsions:
REMARK  status: ('A' for Active; 'I' for Inactive)
REMARK    1  A    between atoms: C_1  and  C_2
REMARK    2  A    between atoms: C_2  and  N_3
REMARK    3  A    between atoms: C_2  and  C_16
REMARK    4  A    between atoms: C_4  and  C_6
REMARK    5  A    between atoms: C_19  and  O_20
REMARK    6  A    between atoms: O_20  and  C_21
REMARK                            x       y       z     vdW  Elec       q    Type
REMARK                         _______ _______ _______ _____ _____    ______ ____
ROOT
ATOM      1  C   UNL     1      48.008   9.619  12.353  0.00  0.00    +0.000 C 
ATOM      2  C   UNL     1      47.265   8.607  13.229  0.00  0.00    +0.000 C 
ENDROOT
BRANCH   2   3
ATOM      3  C   UNL     1      46.442   7.595  12.452  0.00  0.00    +0.000 A 
ATOM      4  C   UNL     1      45.185   7.982  11.959  0.00  0.00    +0.000 A 
ATOM      5  C   UNL     1      44.395   7.089  11.233  0.00  0.00    +0.000 A 
ATOM      6  C   UNL     1      44.863   5.805  10.954  0.00  0.00    +0.000 A 
ATOM      7  C   UNL     1      46.078   5.384  11.495  0.00  0.00    +0.000 A 
ATOM      8  C   UNL     1      46.858   6.271  12.245  0.00  0.00    +0.000 A 
BRANCH   6   9
ATOM      9  O   UNL     1      44.156   4.874  10.227  0.00  0.00    +0.000 OA
BRANCH   9  10
ATOM     10  C   UNL     1      44.860   4.045   9.360  0.00  0.00    +0.000 A 
ATOM     11  C   UNL     1      44.825   2.688   9.641  0.00  0.00    +0.000 A 
ATOM     12  C   UNL     1      45.482   1.819   8.774  0.00  0.00    +0.000 A 
ATOM     13  C   UNL     1      46.153   2.335   7.669  0.00  0.00    +0.000 A 
ATOM     14  C   UNL     1      46.161   3.707   7.489  0.00  0.00    +0.000 A 
ATOM     15  N   UNL     1      45.543   4.572   8.318  0.00  0.00    +0.000 NA
ENDBRANCH   9  10
ENDBRANCH   6   9
ENDBRANCH   2   3
BRANCH   2  16
ATOM     16  N   UNL     1      48.195   7.899  14.087  0.00  0.00    +0.000 N 
ATOM     17  C   UNL     1      48.478   8.307  15.362  0.00  0.00    +0.000 C 
ATOM     18  O   UNL     1      47.907   9.255  15.893  0.00  0.00    +0.000 OA
ATOM     19  H   UNL     1      48.793   7.217  13.633  0.00  0.00    +0.000 HD
BRANCH  17  20
ATOM     20  C   UNL     1      49.472   7.510  16.089  0.00  0.00    +0.000 A 
ATOM     21  C   UNL     1      49.108   6.854  17.256  0.00  0.00    +0.000 A 
ATOM     22  S   UNL     1      50.380   5.966  17.965  0.00  0.00    +0.000 S 
ATOM     23  C   UNL     1      51.475   6.472  16.764  0.00  0.00    +0.000 A 
ATOM     24  N   UNL     1      52.780   6.093  16.805  0.00  0.00    +0.000 NA
ATOM     25  C   UNL     1      53.505   6.582  15.856  0.00  0.00    +0.000 A 
ATOM     26  N   UNL     1      53.042   7.406  14.862  0.00  0.00    +0.000 N 
ATOM     27  C   UNL     1      51.721   7.768  14.747  0.00  0.00    +0.000 A 
ATOM     28  O   UNL     1      51.325   8.430  13.792  0.00  0.00    +0.000 OA
ATOM     29  C   UNL     1      50.869   7.277  15.815  0.00  0.00    +0.000 A 
ATOM     30  H   UNL     1      53.658   7.734  14.134  0.00  0.00    +0.000 HD
ENDBRANCH  17  20
ENDBRANCH   2  16
TORSDOF 5
ENDMDL
MODEL 6
REMARK VINA RESULT:    -7.466      3.782      8.263
REMARK INTER + INTRA:          -9.605
REMARK INTER:                  -8.490
REMARK INTRA:                  -1.115
REMARK UNBOUND:                 0.044
REMARK  Name = 
REMARK  6 active torsions:
REMARK  status: ('A' for Active; 'I' for Inactive)
REMARK    1  A    between atoms: C_1  and  C_2
REMARK    2  A    between atoms: C_2  and  N_3
REMARK    3  A    between atoms: C_2  and  C_16
REMARK    4  A    between atoms: C_4  and  C_6
REMARK    5  A    between atoms: C_19  and  O_20
REMARK    6  A    between atoms: O_20  and  C_21
REMARK                            x       y       z     vdW  Elec       q    Type
REMARK                         _______ _______ _______ _____ _____    ______ ____
ROOT
ATOM      1  C   UNL     1      48.088   9.206  15.585  0.00  0.00    +0.000 C 
ATOM      2  C   UNL     1      48.647   7.914  14.986  0.00  0.00    +0.000 C 
ENDROOT
BRANCH   2   3
ATOM      3  C   UNL     1      49.480   7.088  15.951  0.00  0.00    +0.000 A 
ATOM      4  C   UNL     1      48.836   6.445  17.021  0.00  0.00    +0.000 A 
ATOM      5  C   UNL     1      49.558   5.670  17.929  0.00  0.00    +0.000 A 
ATOM      6  C   UNL     1      50.932   5.492  17.764  0.00  0.00    +0.000 A 
ATOM      7  C   UNL     1      51.595   6.180  16.748  0.00  0.00    +0.000 A 
ATOM      8  C   UNL     1      50.876   6.978  15.853  0.00  0.00    +0.000 A 
BRANCH   6   9
ATOM      9  O   UNL     1      51.711   4.727  18.601  0.00  0.00    +0.000 OA
BRANCH   9  10
ATOM     10  C   UNL     1      52.012   3.425  18.212  0.00  0.00    +0.000 A 
ATOM     11  C   UNL     1      53.321   3.011  18.408  0.00  0.00    +0.000 A 
ATOM     12  C   UNL     1      53.655   1.703  18.070  0.00  0.00    +0.000 A 
ATOM     13  C   UNL     1      52.678   0.863  17.544  0.00  0.00    +0.000 A 
ATOM     14  C   UNL     1      51.407   1.376  17.352  0.00  0.00    +0.000 A 
ATOM     15  N   UNL     1      51.059   2.641  17.659  0.00  0.00    +0.000 NA
ENDBRANCH   9  10
ENDBRANCH   6   9
ENDBRANCH   2   3
BRANCH   2  16
ATOM     16  N   UNL     1      47.574   7.088  14.467  0.00  0.00    +0.000 N 
ATOM     17  C   UNL     1      47.744   6.244  13.403  0.00  0.00    +0.000 C 
ATOM     18  O   UNL     1      48.833   6.070  12.866  0.00  0.00    +0.000 OA
ATOM     19  H   UNL     1      46.638   7.321  14.779  0.00  0.00    +0.000 HD
BRANCH  17  20
ATOM     20  C   UNL     1      46.552   5.507  12.967  0.00  0.00    +0.000 A 
ATOM     21  C   UNL     1      46.517   4.125  13.081  0.00  0.00    +0.000 A 
ATOM     22  S   UNL     1      45.057   3.432  12.540  0.00  0.00    +0.000 S 
ATOM     23  C   UNL     1      44.440   4.952  12.086  0.00  0.00    +0.000 A 
ATOM     24  N   UNL     1      43.217   5.064  11.502  0.00  0.00    +0.000 NA
ATOM     25  C   UNL     1      42.894   6.269  11.173  0.00  0.00    +0.000 A 
ATOM     26  N   UNL     1      43.677   7.375  11.385  0.00  0.00    +0.000 N 
ATOM     27  C   UNL     1      44.893   7.319  12.023  0.00  0.00    +0.000 A 
ATOM     28  O   UNL     1      45.524   8.340  12.279  0.00  0.00    +0.000 OA
ATOM     29  C   UNL     1      45.322   5.979  12.377  0.00  0.00    +0.000 A 
ATOM     30  H   UNL     1      43.353   8.295  11.126  0.00  0.00    +0.000 HD
ENDBRANCH  17  20
ENDBRANCH   2  16
TORSDOF 5
ENDMDL
MODEL 7
REMARK VINA RESULT:    -7.382      2.543      3.623
REMARK INTER + INTRA:          -9.495
REMARK INTER:                  -8.276
REMARK INTRA:                  -1.219
REMARK UNBOUND:                 0.044
REMARK  Name = 
REMARK  6 active torsions:
REMARK  status: ('A' for Active; 'I' for Inactive)
REMARK    1  A    between atoms: C_1  and  C_2
REMARK    2  A    between atoms: C_2  and  N_3
REMARK    3  A    between atoms: C_2  and  C_16
REMARK    4  A    between atoms: C_4  and  C_6
REMARK    5  A    between atoms: C_19  and  O_20
REMARK    6  A    between atoms: O_20  and  C_21
REMARK                            x       y       z     vdW  Elec       q    Type
REMARK                         _______ _______ _______ _____ _____    ______ ____
ROOT
ATOM      1  C   UNL     1      49.955   7.846  13.036  0.00  0.00    +0.000 C 
ATOM      2  C   UNL     1      48.723   7.598  13.911  0.00  0.00    +0.000 C 
ENDROOT
BRANCH   2   3
ATOM      3  C   UNL     1      47.575   6.913  13.191  0.00  0.00    +0.000 A 
ATOM      4  C   UNL     1      46.810   7.657  12.277  0.00  0.00    +0.000 A 
ATOM      5  C   UNL     1      45.750   7.069  11.586  0.00  0.00    +0.000 A 
ATOM      6  C   UNL     1      45.457   5.717  11.768  0.00  0.00    +0.000 A 
ATOM      7  C   UNL     1      46.162   4.985  12.722  0.00  0.00    +0.000 A 
ATOM      8  C   UNL     1      47.208   5.580  13.434  0.00  0.00    +0.000 A 
BRANCH   6   9
ATOM      9  O   UNL     1      44.444   5.058  11.109  0.00  0.00    +0.000 OA
BRANCH   9  10
ATOM     10  C   UNL     1      44.787   4.173  10.093  0.00  0.00    +0.000 A 
ATOM     11  C   UNL     1      45.388   4.724   8.972  0.00  0.00    +0.000 A 
ATOM     12  C   UNL     1      45.785   3.868   7.949  0.00  0.00    +0.000 A 
ATOM     13  C   UNL     1      45.563   2.501   8.078  0.00  0.00    +0.000 A 
ATOM     14  C   UNL     1      44.925   2.045   9.219  0.00  0.00    +0.000 A 
ATOM     15  N   UNL     1      44.519   2.853  10.219  0.00  0.00    +0.000 NA
ENDBRANCH   9  10
ENDBRANCH   6   9
ENDBRANCH   2   3
BRANCH   2  16
ATOM     16  N   UNL     1      49.078   6.818  15.080  0.00  0.00    +0.000 N 
ATOM     17  C   UNL     1      48.968   7.308  16.353  0.00  0.00    +0.000 C 
ATOM     18  O   UNL     1      48.488   8.411  16.597  0.00  0.00    +0.000 OA
ATOM     19  H   UNL     1      49.618   5.976  14.910  0.00  0.00    +0.000 HD
BRANCH  17  20
ATOM     20  C   UNL     1      49.406   6.412  17.429  0.00  0.00    +0.000 A 
ATOM     21  C   UNL     1      48.511   6.036  18.420  0.00  0.00    +0.000 A 
ATOM     22  S   UNL     1      49.183   4.985  19.583  0.00  0.00    +0.000 S 
ATOM     23  C   UNL     1      50.709   5.040  18.831  0.00  0.00    +0.000 A 
ATOM     24  N   UNL     1      51.771   4.374  19.358  0.00  0.00    +0.000 NA
ATOM     25  C   UNL     1      52.874   4.536  18.708  0.00  0.00    +0.000 A 
ATOM     26  N   UNL     1      53.010   5.293  17.573  0.00  0.00    +0.000 N 
ATOM     27  C   UNL     1      51.955   5.936  16.972  0.00  0.00    +0.000 A 
ATOM     28  O   UNL     1      52.094   6.528  15.906  0.00  0.00    +0.000 OA
ATOM     29  C   UNL     1      50.697   5.819  17.687  0.00  0.00    +0.000 A 
ATOM     30  H   UNL     1      53.898   5.358  17.098  0.00  0.00    +0.000 HD
ENDBRANCH  17  20
ENDBRANCH   2  16
TORSDOF 5
ENDMDL
MODEL 8
REMARK VINA RESULT:    -7.181      2.942      4.105
REMARK INTER + INTRA:          -9.237
REMARK INTER:                  -7.945
REMARK INTRA:                  -1.292
REMARK UNBOUND:                 0.044
REMARK  Name = 
REMARK  6 active torsions:
REMARK  status: ('A' for Active; 'I' for Inactive)
REMARK    1  A    between atoms: C_1  and  C_2
REMARK    2  A    between atoms: C_2  and  N_3
REMARK    3  A    between atoms: C_2  and  C_16
REMARK    4  A    between atoms: C_4  and  C_6
REMARK    5  A    between atoms: C_19  and  O_20
REMARK    6  A    between atoms: O_20  and  C_21
REMARK                            x       y       z     vdW  Elec       q    Type
REMARK                         _______ _______ _______ _____ _____    ______ ____
ROOT
ATOM      1  C   UNL     1      50.530   8.537  12.865  0.00  0.00    +0.000 C 
ATOM      2  C   UNL     1      49.275   8.615  13.738  0.00  0.00    +0.000 C 
ENDROOT
BRANCH   2   3
ATOM      3  C   UNL     1      48.014   8.100  13.066  0.00  0.00    +0.000 A 
ATOM      4  C   UNL     1      46.840   8.865  13.158  0.00  0.00    +0.000 A 
ATOM      5  C   UNL     1      45.659   8.437  12.551  0.00  0.00    +0.000 A 
ATOM      6  C   UNL     1      45.638   7.255  11.810  0.00  0.00    +0.000 A 
ATOM      7  C   UNL     1      46.777   6.452  11.768  0.00  0.00    +0.000 A 
ATOM      8  C   UNL     1      47.954   6.868  12.398  0.00  0.00    +0.000 A 
BRANCH   6   9
ATOM      9  O   UNL     1      44.521   6.777  11.163  0.00  0.00    +0.000 OA
BRANCH   9  10
ATOM     10  C   UNL     1      44.120   5.471  11.425  0.00  0.00    +0.000 A 
ATOM     11  C   UNL     1      44.133   4.595  10.350  0.00  0.00    +0.000 A 
ATOM     12  C   UNL     1      43.777   3.268  10.577  0.00  0.00    +0.000 A 
ATOM     13  C   UNL     1      43.417   2.868  11.860  0.00  0.00    +0.000 A 
ATOM     14  C   UNL     1      43.400   3.821  12.864  0.00  0.00    +0.000 A 
ATOM     15  N   UNL     1      43.728   5.114  12.670  0.00  0.00    +0.000 NA
ENDBRANCH   9  10
ENDBRANCH   6   9
ENDBRANCH   2   3
BRANCH   2  16
ATOM     16  N   UNL     1      49.475   7.894  14.980  0.00  0.00    +0.000 N 
ATOM     17  C   UNL     1      48.986   8.341  16.178  0.00  0.00    +0.000 C 
ATOM     18  O   UNL     1      48.281   9.341  16.271  0.00  0.00    +0.000 OA
ATOM     19  H   UNL     1      50.175   7.161  14.965  0.00  0.00    +0.000 HD
BRANCH  17  20
ATOM     20  C   UNL     1      49.307   7.522  17.352  0.00  0.00    +0.000 A 
ATOM     21  C   UNL     1      49.906   8.108  18.458  0.00  0.00    +0.000 A 
ATOM     22  S   UNL     1      50.198   7.016  19.734  0.00  0.00    +0.000 S 
ATOM     23  C   UNL     1      49.582   5.711  18.832  0.00  0.00    +0.000 A 
ATOM     24  N   UNL     1      49.580   4.450  19.340  0.00  0.00    +0.000 NA
ATOM     25  C   UNL     1      49.123   3.553  18.533  0.00  0.00    +0.000 A 
ATOM     26  N   UNL     1      48.656   3.803  17.268  0.00  0.00    +0.000 N 
ATOM     27  C   UNL     1      48.585   5.068  16.734  0.00  0.00    +0.000 A 
ATOM     28  O   UNL     1      48.075   5.266  15.635  0.00  0.00    +0.000 OA
ATOM     29  C   UNL     1      49.126   6.110  17.587  0.00  0.00    +0.000 A 
ATOM     30  H   UNL     1      48.287   3.058  16.696  0.00  0.00    +0.000 HD
ENDBRANCH  17  20
ENDBRANCH   2  16
TORSDOF 5
ENDMDL
MODEL 9
REMARK VINA RESULT:    -7.176      3.568      7.921
REMARK INTER + INTRA:          -9.230
REMARK INTER:                  -8.063
REMARK INTRA:                  -1.167
REMARK UNBOUND:                 0.044
REMARK  Name = 
REMARK  6 active torsions:
REMARK  status: ('A' for Active; 'I' for Inactive)
REMARK    1  A    between atoms: C_1  and  C_2
REMARK    2  A    between atoms: C_2  and  N_3
REMARK    3  A    between atoms: C_2  and  C_16
REMARK    4  A    between atoms: C_4  and  C_6
REMARK    5  A    between atoms: C_19  and  O_20
REMARK    6  A    between atoms: O_20  and  C_21
REMARK                            x       y       z     vdW  Elec       q    Type
REMARK                         _______ _______ _______ _____ _____    ______ ____
ROOT
ATOM      1  C   UNL     1      48.761   9.166  14.932  0.00  0.00    +0.000 C 
ATOM      2  C   UNL     1      48.950   7.711  14.497  0.00  0.00    +0.000 C 
ENDROOT
BRANCH   2   3
ATOM      3  C   UNL     1      49.439   6.788  15.600  0.00  0.00    +0.000 A 
ATOM      4  C   UNL     1      48.540   5.861  16.152  0.00  0.00    +0.000 A 
ATOM      5  C   UNL     1      48.944   4.987  17.162  0.00  0.00    +0.000 A 
ATOM      6  C   UNL     1      50.263   4.999  17.614  0.00  0.00    +0.000 A 
ATOM      7  C   UNL     1      51.148   5.960  17.125  0.00  0.00    +0.000 A 
ATOM      8  C   UNL     1      50.736   6.853  16.131  0.00  0.00    +0.000 A 
BRANCH   6   9
ATOM      9  O   UNL     1      50.746   4.156  18.589  0.00  0.00    +0.000 OA
BRANCH   9  10
ATOM     10  C   UNL     1      51.598   3.126  18.205  0.00  0.00    +0.000 A 
ATOM     11  C   UNL     1      52.925   3.249  18.589  0.00  0.00    +0.000 A 
ATOM     12  C   UNL     1      53.804   2.221  18.260  0.00  0.00    +0.000 A 
ATOM     13  C   UNL     1      53.331   1.117  17.558  0.00  0.00    +0.000 A 
ATOM     14  C   UNL     1      51.997   1.098  17.188  0.00  0.00    +0.000 A 
ATOM     15  N   UNL     1      51.127   2.084  17.482  0.00  0.00    +0.000 NA
ENDBRANCH   9  10
ENDBRANCH   6   9
ENDBRANCH   2   3
BRANCH   2  16
ATOM     16  N   UNL     1      47.718   7.180  13.950  0.00  0.00    +0.000 N 
ATOM     17  C   UNL     1      47.525   7.003  12.606  0.00  0.00    +0.000 C 
ATOM     18  O   UNL     1      48.408   7.209  11.780  0.00  0.00    +0.000 OA
ATOM     19  H   UNL     1      46.924   7.149  14.580  0.00  0.00    +0.000 HD
BRANCH  17  20
ATOM     20  C   UNL     1      46.208   6.494  12.205  0.00  0.00    +0.000 A 
ATOM     21  C   UNL     1      45.282   7.356  11.635  0.00  0.00    +0.000 A 
ATOM     22  S   UNL     1      43.812   6.598  11.220  0.00  0.00    +0.000 S 
ATOM     23  C   UNL     1      44.344   5.104  11.835  0.00  0.00    +0.000 A 
ATOM     24  N   UNL     1      43.530   4.015  11.825  0.00  0.00    +0.000 NA
ATOM     25  C   UNL     1      44.048   2.961  12.360  0.00  0.00    +0.000 A 
ATOM     26  N   UNL     1      45.310   2.891  12.892  0.00  0.00    +0.000 N 
ATOM     27  C   UNL     1      46.189   3.948  12.872  0.00  0.00    +0.000 A 
ATOM     28  O   UNL     1      47.342   3.824  13.272  0.00  0.00    +0.000 OA
ATOM     29  C   UNL     1      45.640   5.173  12.317  0.00  0.00    +0.000 A 
ATOM     30  H   UNL     1      45.664   2.026  13.272  0.00  0.00    +0.000 HD
ENDBRANCH  17  20
ENDBRANCH   2  16
TORSDOF 5
ENDMDL
