MODEL 1
REMARK VINA RESULT:    -8.305      0.000      0.000
REMARK INTER + INTRA:         -11.462
REMARK INTER:                 -10.733
REMARK INTRA:                  -0.730
REMARK UNBOUND:                -0.730
REMARK  Name = 
REMARK  6 active torsions:
REMARK  status: ('A' for Active; 'I' for Inactive)
REMARK    1  A    between atoms: C_1  and  N_2
REMARK    2  A    between atoms: C_8  and  C_9
REMARK    3  A    between atoms: C_9  and  C_10
REMARK    4  A    between atoms: C_10  and  N_11
REMARK    5  A    between atoms: N_11  and  C_12
REMARK    6  A    between atoms: C_15  and  C_16
REMARK                            x       y       z     vdW  Elec       q    Type
REMARK                         _______ _______ _______ _____ _____    ______ ____
ROOT
ATOM      1  C   UNL     1      43.384   5.031  12.384  0.00  0.00    +0.000 C 
ENDROOT
BRANCH   1   9
ATOM      2  C   UNL     1      49.013  11.186  13.906  0.00  0.00    +0.000 C 
ATOM      3  N   UNL     1      49.009   9.805  13.428  0.00  0.00    +0.000 NA
ATOM      4  C   UNL     1      48.966   8.858  14.576  0.00  0.00    +0.000 C 
ATOM      5  C   UNL     1      48.805   7.375  14.147  0.00  0.00    +0.000 C 
ATOM      6  N   UNL     1      47.598   7.291  13.322  0.00  0.00    +0.000 N 
ATOM      7  C   UNL     1      46.933   6.083  13.229  0.00  0.00    +0.000 A 
ATOM      8  C   UNL     1      45.589   6.100  12.844  0.00  0.00    +0.000 A 
ATOM      9  C   UNL     1      44.836   4.926  12.794  0.00  0.00    +0.000 A 
ATOM     10  C   UNL     1      45.484   3.743  13.145  0.00  0.00    +0.000 A 
ATOM     11  C   UNL     1      46.816   3.799  13.524  0.00  0.00    +0.000 A 
ATOM     12  N   UNL     1      47.542   4.936  13.584  0.00  0.00    +0.000 NA
ATOM     13  C   UNL     1      47.694   8.108  12.107  0.00  0.00    +0.000 C 
ATOM     14  C   UNL     1      47.843   9.581  12.540  0.00  0.00    +0.000 C 
ENDBRANCH   1   9
BRANCH   1  15
ATOM     15  C   UNL     1      43.063   4.383  11.039  0.00  0.00    +0.000 C 
BRANCH  15  16
ATOM     16  N   UNL     1      43.865   4.941   9.948  0.00  0.00    +0.000 N 
ATOM     17  H   UNL     1      44.423   5.740  10.244  0.00  0.00    +0.000 HD
BRANCH  16  18
ATOM     18  C   UNL     1      44.637   4.012   9.225  0.00  0.00    +0.000 A 
ATOM     19  C   UNL     1      45.589   4.389   8.270  0.00  0.00    +0.000 A 
ATOM     20  C   UNL     1      46.374   3.436   7.628  0.00  0.00    +0.000 A 
ATOM     21  C   UNL     1      46.215   2.109   7.987  0.00  0.00    +0.000 A 
ATOM     22  N   UNL     1      45.338   1.681   8.937  0.00  0.00    +0.000 NA
ATOM     23  C   UNL     1      44.593   2.647   9.535  0.00  0.00    +0.000 A 
BRANCH  21  24
ATOM     24  C   UNL     1      47.060   1.067   7.325  0.00  0.00    +0.000 C 
ATOM     25  N   UNL     1      46.779  -0.224   7.671  0.00  0.00    +0.000 N 
ATOM     26  O   UNL     1      47.951   1.344   6.526  0.00  0.00    +0.000 OA
ATOM     27  H   UNL     1      46.054  -0.410   8.352  0.00  0.00    +0.000 HD
ATOM     28  H   UNL     1      47.335  -0.975   7.290  0.00  0.00    +0.000 HD
ENDBRANCH  21  24
ENDBRANCH  16  18
ENDBRANCH  15  16
ENDBRANCH   1  15
TORSDOF 5
ENDMDL
MODEL 2
REMARK VINA RESULT:    -7.988      1.379      1.481
REMARK INTER + INTRA:         -11.053
REMARK INTER:                 -10.503
REMARK INTRA:                  -0.550
REMARK UNBOUND:                -0.730
REMARK  Name = 
REMARK  6 active torsions:
REMARK  status: ('A' for Active; 'I' for Inactive)
REMARK    1  A    between atoms: C_1  and  N_2
REMARK    2  A    between atoms: C_8  and  C_9
REMARK    3  A    between atoms: C_9  and  C_10
REMARK    4  A    between atoms: C_10  and  N_11
REMARK    5  A    between atoms: N_11  and  C_12
REMARK    6  A    between atoms: C_15  and  C_16
REMARK                            x       y       z     vdW  Elec       q    Type
REMARK                         _______ _______ _______ _____ _____    ______ ____
ROOT
ATOM      1  C   UNL     1      44.783   6.050  11.677  0.00  0.00    +0.000 C 
ENDROOT
BRANCH   1   9
ATOM      2  C   UNL     1      51.556  10.608  13.965  0.00  0.00    +0.000 C 
ATOM      3  N   UNL     1      51.159   9.203  13.896  0.00  0.00    +0.000 NA
ATOM      4  C   UNL     1      50.367   8.828  15.100  0.00  0.00    +0.000 C 
ATOM      5  C   UNL     1      49.779   7.392  15.028  0.00  0.00    +0.000 C 
ATOM      6  N   UNL     1      48.983   7.311  13.801  0.00  0.00    +0.000 N 
ATOM      7  C   UNL     1      47.963   6.383  13.725  0.00  0.00    +0.000 A 
ATOM      8  C   UNL     1      46.945   6.597  12.790  0.00  0.00    +0.000 A 
ATOM      9  C   UNL     1      45.850   5.738  12.703  0.00  0.00    +0.000 A 
ATOM     10  C   UNL     1      45.817   4.662  13.588  0.00  0.00    +0.000 A 
ATOM     11  C   UNL     1      46.855   4.513  14.495  0.00  0.00    +0.000 A 
ATOM     12  N   UNL     1      47.910   5.350  14.587  0.00  0.00    +0.000 NA
ATOM     13  C   UNL     1      49.790   7.532  12.596  0.00  0.00    +0.000 C 
ATOM     14  C   UNL     1      50.363   8.963  12.668  0.00  0.00    +0.000 C 
ENDBRANCH   1   9
BRANCH   1  15
ATOM     15  C   UNL     1      43.920   4.853  11.285  0.00  0.00    +0.000 C 
BRANCH  15  16
ATOM     16  N   UNL     1      43.686   4.786   9.841  0.00  0.00    +0.000 N 
ATOM     17  H   UNL     1      43.608   5.708   9.416  0.00  0.00    +0.000 HD
BRANCH  16  18
ATOM     18  C   UNL     1      44.569   3.959   9.120  0.00  0.00    +0.000 A 
ATOM     19  C   UNL     1      45.558   4.460   8.265  0.00  0.00    +0.000 A 
ATOM     20  C   UNL     1      46.450   3.604   7.624  0.00  0.00    +0.000 A 
ATOM     21  C   UNL     1      46.356   2.248   7.885  0.00  0.00    +0.000 A 
ATOM     22  N   UNL     1      45.445   1.702   8.738  0.00  0.00    +0.000 NA
ATOM     23  C   UNL     1      44.597   2.576   9.338  0.00  0.00    +0.000 A 
BRANCH  21  24
ATOM     24  C   UNL     1      47.315   1.309   7.224  0.00  0.00    +0.000 C 
ATOM     25  N   UNL     1      48.322   1.902   6.516  0.00  0.00    +0.000 N 
ATOM     26  O   UNL     1      47.210   0.088   7.303  0.00  0.00    +0.000 OA
ATOM     27  H   UNL     1      48.359   2.910   6.454  0.00  0.00    +0.000 HD
ATOM     28  H   UNL     1      48.983   1.327   6.014  0.00  0.00    +0.000 HD
ENDBRANCH  21  24
ENDBRANCH  16  18
ENDBRANCH  15  16
ENDBRANCH   1  15
TORSDOF 5
ENDMDL
MODEL 3
REMARK VINA RESULT:    -7.788      2.953      7.210
REMARK INTER + INTRA:         -10.794
REMARK INTER:                 -10.193
REMARK INTRA:                  -0.601
REMARK UNBOUND:                -0.730
REMARK  Name = 
REMARK  6 active torsions:
REMARK  status: ('A' for Active; 'I' for Inactive)
REMARK    1  A    between atoms: C_1  and  N_2
REMARK    2  A    between atoms: C_8  and  C_9
REMARK    3  A    between atoms: C_9  and  C_10
REMARK    4  A    between atoms: C_10  and  N_11
REMARK    5  A    between atoms: N_11  and  C_12
REMARK    6  A    between atoms: C_15  and  C_16
REMARK                            x       y       z     vdW  Elec       q    Type
REMARK                         _______ _______ _______ _____ _____    ______ ____
ROOT
ATOM      1  C   UNL     1      44.294   6.884  11.778  0.00  0.00    +0.000 C 
ENDROOT
BRANCH   1   9
ATOM      2  C   UNL     1      47.940   1.995   5.889  0.00  0.00    +0.000 C 
ATOM      3  N   UNL     1      46.659   2.091   6.587  0.00  0.00    +0.000 NA
ATOM      4  C   UNL     1      46.743   1.432   7.919  0.00  0.00    +0.000 C 
ATOM      5  C   UNL     1      45.469   1.626   8.785  0.00  0.00    +0.000 C 
ATOM      6  N   UNL     1      45.238   3.068   8.900  0.00  0.00    +0.000 N 
ATOM      7  C   UNL     1      44.524   3.547   9.981  0.00  0.00    +0.000 A 
ATOM      8  C   UNL     1      44.687   4.890  10.334  0.00  0.00    +0.000 A 
ATOM      9  C   UNL     1      44.051   5.426  11.454  0.00  0.00    +0.000 A 
ATOM     10  C   UNL     1      43.251   4.563  12.201  0.00  0.00    +0.000 A 
ATOM     11  C   UNL     1      43.139   3.242  11.799  0.00  0.00    +0.000 A 
ATOM     12  N   UNL     1      43.763   2.720  10.721  0.00  0.00    +0.000 NA
ATOM     13  C   UNL     1      45.003   3.701   7.597  0.00  0.00    +0.000 C 
ATOM     14  C   UNL     1      46.277   3.515   6.745  0.00  0.00    +0.000 C 
ENDBRANCH   1   9
BRANCH   1  15
ATOM     15  C   UNL     1      45.386   7.122  12.818  0.00  0.00    +0.000 C 
BRANCH  15  16
ATOM     16  N   UNL     1      46.607   6.369  12.524  0.00  0.00    +0.000 N 
ATOM     17  H   UNL     1      47.354   6.961  12.167  0.00  0.00    +0.000 HD
BRANCH  16  18
ATOM     18  C   UNL     1      47.064   5.526  13.555  0.00  0.00    +0.000 A 
ATOM     19  C   UNL     1      47.628   6.009  14.742  0.00  0.00    +0.000 A 
ATOM     20  C   UNL     1      48.006   5.138  15.761  0.00  0.00    +0.000 A 
ATOM     21  C   UNL     1      47.773   3.785  15.583  0.00  0.00    +0.000 A 
ATOM     22  N   UNL     1      47.191   3.256  14.471  0.00  0.00    +0.000 NA
ATOM     23  C   UNL     1      46.841   4.144  13.506  0.00  0.00    +0.000 A 
BRANCH  21  24
ATOM     24  C   UNL     1      48.153   2.830  16.671  0.00  0.00    +0.000 C 
ATOM     25  N   UNL     1      47.291   2.774  17.729  0.00  0.00    +0.000 N 
ATOM     26  O   UNL     1      49.170   2.143  16.625  0.00  0.00    +0.000 OA
ATOM     27  H   UNL     1      46.477   3.374  17.740  0.00  0.00    +0.000 HD
ATOM     28  H   UNL     1      47.505   2.177  18.514  0.00  0.00    +0.000 HD
ENDBRANCH  21  24
ENDBRANCH  16  18
ENDBRANCH  15  16
ENDBRANCH   1  15
TORSDOF 5
ENDMDL
MODEL 4
REMARK VINA RESULT:    -7.593      2.423      3.497
REMARK INTER + INTRA:         -10.542
REMARK INTER:                 -10.259
REMARK INTRA:                  -0.282
REMARK UNBOUND:                -0.730
REMARK  Name = 
REMARK  6 active torsions:
REMARK  status: ('A' for Active; 'I' for Inactive)
REMARK    1  A    between atoms: C_1  and  N_2
REMARK    2  A    between atoms: C_8  and  C_9
REMARK    3  A    between atoms: C_9  and  C_10
REMARK    4  A    between atoms: C_10  and  N_11
REMARK    5  A    between atoms: N_11  and  C_12
REMARK    6  A    between atoms: C_15  and  C_16
REMARK                            x       y       z     vdW  Elec       q    Type
REMARK                         _______ _______ _______ _____ _____    ______ ____
ROOT
ATOM      1  C   UNL     1      45.381   3.478  12.152  0.00  0.00    +0.000 C 
ENDROOT
BRANCH   1   9
ATOM      2  C   UNL     1      50.937   4.437  18.483  0.00  0.00    +0.000 C 
ATOM      3  N   UNL     1      49.848   5.190  17.864  0.00  0.00    +0.000 NA
ATOM      4  C   UNL     1      50.334   5.899  16.648  0.00  0.00    +0.000 C 
ATOM      5  C   UNL     1      49.201   6.598  15.848  0.00  0.00    +0.000 C 
ATOM      6  N   UNL     1      48.205   5.574  15.524  0.00  0.00    +0.000 N 
ATOM      7  C   UNL     1      47.383   5.763  14.430  0.00  0.00    +0.000 A 
ATOM      8  C   UNL     1      46.776   4.639  13.861  0.00  0.00    +0.000 A 
ATOM      9  C   UNL     1      45.988   4.744  12.715  0.00  0.00    +0.000 A 
ATOM     10  C   UNL     1      45.835   6.016  12.167  0.00  0.00    +0.000 A 
ATOM     11  C   UNL     1      46.471   7.086  12.777  0.00  0.00    +0.000 A 
ATOM     12  N   UNL     1      47.243   6.983  13.880  0.00  0.00    +0.000 NA
ATOM     13  C   UNL     1      47.610   4.974  16.724  0.00  0.00    +0.000 C 
ATOM     14  C   UNL     1      48.738   4.273  17.510  0.00  0.00    +0.000 C 
ENDBRANCH   1   9
BRANCH   1  15
ATOM     15  C   UNL     1      43.893   3.587  11.825  0.00  0.00    +0.000 C 
BRANCH  15  16
ATOM     16  N   UNL     1      43.657   3.938  10.424  0.00  0.00    +0.000 N 
ATOM     17  H   UNL     1      43.444   4.926  10.300  0.00  0.00    +0.000 HD
BRANCH  16  18
ATOM     18  C   UNL     1      44.641   3.505   9.514  0.00  0.00    +0.000 A 
ATOM     19  C   UNL     1      44.921   2.153   9.279  0.00  0.00    +0.000 A 
ATOM     20  C   UNL     1      45.858   1.773   8.322  0.00  0.00    +0.000 A 
ATOM     21  C   UNL     1      46.478   2.766   7.584  0.00  0.00    +0.000 A 
ATOM     22  N   UNL     1      46.220   4.095   7.735  0.00  0.00    +0.000 NA
ATOM     23  C   UNL     1      45.299   4.417   8.680  0.00  0.00    +0.000 A 
BRANCH  21  24
ATOM     24  C   UNL     1      47.475   2.383   6.536  0.00  0.00    +0.000 C 
ATOM     25  N   UNL     1      47.414   3.103   5.377  0.00  0.00    +0.000 N 
ATOM     26  O   UNL     1      48.293   1.481   6.697  0.00  0.00    +0.000 OA
ATOM     27  H   UNL     1      46.710   3.821   5.274  0.00  0.00    +0.000 HD
ATOM     28  H   UNL     1      48.034   2.872   4.615  0.00  0.00    +0.000 HD
ENDBRANCH  21  24
ENDBRANCH  16  18
ENDBRANCH  15  16
ENDBRANCH   1  15
TORSDOF 5
ENDMDL
MODEL 5
REMARK VINA RESULT:    -7.579      1.407      2.405
REMARK INTER + INTRA:         -10.524
REMARK INTER:                 -10.115
REMARK INTRA:                  -0.410
REMARK UNBOUND:                -0.730
REMARK  Name = 
REMARK  6 active torsions:
REMARK  status: ('A' for Active; 'I' for Inactive)
REMARK    1  A    between atoms: C_1  and  N_2
REMARK    2  A    between atoms: C_8  and  C_9
REMARK    3  A    between atoms: C_9  and  C_10
REMARK    4  A    between atoms: C_10  and  N_11
REMARK    5  A    between atoms: N_11  and  C_12
REMARK    6  A    between atoms: C_15  and  C_16
REMARK                            x       y       z     vdW  Elec       q    Type
REMARK                         _______ _______ _______ _____ _____    ______ ____
ROOT
ATOM      1  C   UNL     1      45.256   4.887  11.860  0.00  0.00    +0.000 C 
ENDROOT
BRANCH   1   9
ATOM      2  C   UNL     1      52.389   7.984  15.237  0.00  0.00    +0.000 C 
ATOM      3  N   UNL     1      50.967   8.318  15.196  0.00  0.00    +0.000 NA
ATOM      4  C   UNL     1      50.641   9.045  13.938  0.00  0.00    +0.000 C 
ATOM      5  C   UNL     1      49.121   9.300  13.750  0.00  0.00    +0.000 C 
ATOM      6  N   UNL     1      48.451   8.000  13.820  0.00  0.00    +0.000 N 
ATOM      7  C   UNL     1      47.227   7.843  13.200  0.00  0.00    +0.000 A 
ATOM      8  C   UNL     1      46.814   6.547  12.876  0.00  0.00    +0.000 A 
ATOM      9  C   UNL     1      45.622   6.318  12.188  0.00  0.00    +0.000 A 
ATOM     10  C   UNL     1      44.866   7.436  11.842  0.00  0.00    +0.000 A 
ATOM     11  C   UNL     1      45.337   8.692  12.188  0.00  0.00    +0.000 A 
ATOM     12  N   UNL     1      46.496   8.916  12.843  0.00  0.00    +0.000 NA
ATOM     13  C   UNL     1      48.644   7.342  15.117  0.00  0.00    +0.000 C 
ATOM     14  C   UNL     1      50.154   7.081  15.295  0.00  0.00    +0.000 C 
ENDBRANCH   1   9
BRANCH   1  15
ATOM     15  C   UNL     1      43.833   4.708  11.336  0.00  0.00    +0.000 C 
BRANCH  15  16
ATOM     16  N   UNL     1      43.762   4.807   9.876  0.00  0.00    +0.000 N 
ATOM     17  H   UNL     1      43.886   5.761   9.544  0.00  0.00    +0.000 HD
BRANCH  16  18
ATOM     18  C   UNL     1      44.576   3.903   9.167  0.00  0.00    +0.000 A 
ATOM     19  C   UNL     1      45.574   4.313   8.274  0.00  0.00    +0.000 A 
ATOM     20  C   UNL     1      46.397   3.383   7.644  0.00  0.00    +0.000 A 
ATOM     21  C   UNL     1      46.226   2.045   7.955  0.00  0.00    +0.000 A 
ATOM     22  N   UNL     1      45.304   1.584   8.845  0.00  0.00    +0.000 NA
ATOM     23  C   UNL     1      44.524   2.529   9.432  0.00  0.00    +0.000 A 
BRANCH  21  24
ATOM     24  C   UNL     1      47.111   1.027   7.306  0.00  0.00    +0.000 C 
ATOM     25  N   UNL     1      46.823  -0.275   7.603  0.00  0.00    +0.000 N 
ATOM     26  O   UNL     1      48.038   1.332   6.560  0.00  0.00    +0.000 OA
ATOM     27  H   UNL     1      46.067  -0.484   8.241  0.00  0.00    +0.000 HD
ATOM     28  H   UNL     1      47.403  -1.011   7.228  0.00  0.00    +0.000 HD
ENDBRANCH  21  24
ENDBRANCH  16  18
ENDBRANCH  15  16
ENDBRANCH   1  15
TORSDOF 5
ENDMDL
MODEL 6
REMARK VINA RESULT:    -7.420      2.922      7.526
REMARK INTER + INTRA:         -10.318
REMARK INTER:                  -9.887
REMARK INTRA:                  -0.431
REMARK UNBOUND:                -0.730
REMARK  Name = 
REMARK  6 active torsions:
REMARK  status: ('A' for Active; 'I' for Inactive)
REMARK    1  A    between atoms: C_1  and  N_2
REMARK    2  A    between atoms: C_8  and  C_9
REMARK    3  A    between atoms: C_9  and  C_10
REMARK    4  A    between atoms: C_10  and  N_11
REMARK    5  A    between atoms: N_11  and  C_12
REMARK    6  A    between atoms: C_15  and  C_16
REMARK                            x       y       z     vdW  Elec       q    Type
REMARK                         _______ _______ _______ _____ _____    ______ ____
ROOT
ATOM      1  C   UNL     1      45.845   7.545  12.182  0.00  0.00    +0.000 C 
ENDROOT
BRANCH   1   9
ATOM      2  C   UNL     1      47.484   1.213   6.787  0.00  0.00    +0.000 C 
ATOM      3  N   UNL     1      46.335   2.003   7.225  0.00  0.00    +0.000 NA
ATOM      4  C   UNL     1      45.787   1.459   8.498  0.00  0.00    +0.000 C 
ATOM      5  C   UNL     1      44.659   2.335   9.108  0.00  0.00    +0.000 C 
ATOM      6  N   UNL     1      45.204   3.684   9.279  0.00  0.00    +0.000 N 
ATOM      7  C   UNL     1      44.646   4.516  10.230  0.00  0.00    +0.000 A 
ATOM      8  C   UNL     1      45.415   5.583  10.704  0.00  0.00    +0.000 A 
ATOM      9  C   UNL     1      44.944   6.424  11.713  0.00  0.00    +0.000 A 
ATOM     10  C   UNL     1      43.677   6.149  12.224  0.00  0.00    +0.000 A 
ATOM     11  C   UNL     1      42.971   5.071  11.714  0.00  0.00    +0.000 A 
ATOM     12  N   UNL     1      43.431   4.251  10.746  0.00  0.00    +0.000 NA
ATOM     13  C   UNL     1      45.609   4.288   8.004  0.00  0.00    +0.000 C 
ATOM     14  C   UNL     1      46.736   3.419   7.408  0.00  0.00    +0.000 C 
ENDBRANCH   1   9
BRANCH   1  15
ATOM     15  C   UNL     1      47.336   7.237  12.076  0.00  0.00    +0.000 C 
BRANCH  15  16
ATOM     16  N   UNL     1      48.035   7.432  13.348  0.00  0.00    +0.000 N 
ATOM     17  H   UNL     1      47.849   8.346  13.758  0.00  0.00    +0.000 HD
BRANCH  16  18
ATOM     18  C   UNL     1      47.876   6.401  14.293  0.00  0.00    +0.000 A 
ATOM     19  C   UNL     1      47.108   5.255  14.051  0.00  0.00    +0.000 A 
ATOM     20  C   UNL     1      47.035   4.231  14.992  0.00  0.00    +0.000 A 
ATOM     21  C   UNL     1      47.771   4.361  16.157  0.00  0.00    +0.000 A 
ATOM     22  N   UNL     1      48.569   5.429  16.435  0.00  0.00    +0.000 NA
ATOM     23  C   UNL     1      48.608   6.402  15.487  0.00  0.00    +0.000 A 
BRANCH  21  24
ATOM     24  C   UNL     1      47.723   3.266  17.176  0.00  0.00    +0.000 C 
ATOM     25  N   UNL     1      48.936   2.850  17.646  0.00  0.00    +0.000 N 
ATOM     26  O   UNL     1      46.670   2.767  17.565  0.00  0.00    +0.000 OA
ATOM     27  H   UNL     1      49.781   3.268  17.282  0.00  0.00    +0.000 HD
ATOM     28  H   UNL     1      48.979   2.089  18.309  0.00  0.00    +0.000 HD
ENDBRANCH  21  24
ENDBRANCH  16  18
ENDBRANCH  15  16
ENDBRANCH   1  15
TORSDOF 5
ENDMDL
MODEL 7
REMARK VINA RESULT:    -6.680      2.840      7.336
REMARK INTER + INTRA:          -9.362
REMARK INTER:                  -8.952
REMARK INTRA:                  -0.411
REMARK UNBOUND:                -0.730
REMARK  Name = 
REMARK  6 active torsions:
REMARK  status: ('A' for Active; 'I' for Inactive)
REMARK    1  A    between atoms: C_1  and  N_2
REMARK    2  A    between atoms: C_8  and  C_9
REMARK    3  A    between atoms: C_9  and  C_10
REMARK    4  A    between atoms: C_10  and  N_11
REMARK    5  A    between atoms: N_11  and  C_12
REMARK    6  A    between atoms: C_15  and  C_16
REMARK                            x       y       z     vdW  Elec       q    Type
REMARK                         _______ _______ _______ _____ _____    ______ ____
ROOT
ATOM      1  C   UNL     1      45.177   6.391  12.900  0.00  0.00    +0.000 C 
ENDROOT
BRANCH   1   9
ATOM      2  C   UNL     1      47.957   2.082   6.148  0.00  0.00    +0.000 C 
ATOM      3  N   UNL     1      46.686   2.375   6.807  0.00  0.00    +0.000 NA
ATOM      4  C   UNL     1      46.468   1.447   7.950  0.00  0.00    +0.000 C 
ATOM      5  C   UNL     1      45.212   1.793   8.795  0.00  0.00    +0.000 C 
ATOM      6  N   UNL     1      45.357   3.182   9.238  0.00  0.00    +0.000 N 
ATOM      7  C   UNL     1      44.695   3.593  10.378  0.00  0.00    +0.000 A 
ATOM      8  C   UNL     1      45.170   4.729  11.042  0.00  0.00    +0.000 A 
ATOM      9  C   UNL     1      44.593   5.164  12.235  0.00  0.00    +0.000 A 
ATOM     10  C   UNL     1      43.527   4.416  12.732  0.00  0.00    +0.000 A 
ATOM     11  C   UNL     1      43.111   3.298  12.028  0.00  0.00    +0.000 A 
ATOM     12  N   UNL     1      43.676   2.870  10.878  0.00  0.00    +0.000 NA
ATOM     13  C   UNL     1      45.422   4.122   8.114  0.00  0.00    +0.000 C 
ATOM     14  C   UNL     1      46.677   3.780   7.284  0.00  0.00    +0.000 C 
ENDBRANCH   1   9
BRANCH   1  15
ATOM     15  C   UNL     1      45.273   7.612  11.989  0.00  0.00    +0.000 C 
BRANCH  15  16
ATOM     16  N   UNL     1      46.068   8.688  12.585  0.00  0.00    +0.000 N 
ATOM     17  H   UNL     1      45.853   8.832  13.570  0.00  0.00    +0.000 HD
BRANCH  16  18
ATOM     18  C   UNL     1      47.456   8.610  12.366  0.00  0.00    +0.000 A 
ATOM     19  C   UNL     1      48.078   7.490  11.799  0.00  0.00    +0.000 A 
ATOM     20  C   UNL     1      49.446   7.485  11.542  0.00  0.00    +0.000 A 
ATOM     21  C   UNL     1      50.168   8.631  11.826  0.00  0.00    +0.000 A 
ATOM     22  N   UNL     1      49.617   9.767  12.338  0.00  0.00    +0.000 NA
ATOM     23  C   UNL     1      48.280   9.723  12.573  0.00  0.00    +0.000 A 
BRANCH  21  24
ATOM     24  C   UNL     1      51.637   8.658  11.541  0.00  0.00    +0.000 C 
ATOM     25  N   UNL     1      52.162   7.494  11.059  0.00  0.00    +0.000 N 
ATOM     26  O   UNL     1      52.331   9.654  11.730  0.00  0.00    +0.000 OA
ATOM     27  H   UNL     1      51.562   6.688  10.941  0.00  0.00    +0.000 HD
ATOM     28  H   UNL     1      53.153   7.431  10.880  0.00  0.00    +0.000 HD
ENDBRANCH  21  24
ENDBRANCH  16  18
ENDBRANCH  15  16
ENDBRANCH   1  15
TORSDOF 5
ENDMDL
MODEL 8
REMARK VINA RESULT:    -6.488      3.483      7.731
REMARK INTER + INTRA:          -9.114
REMARK INTER:                  -8.327
REMARK INTRA:                  -0.787
REMARK UNBOUND:                -0.730
REMARK  Name = 
REMARK  6 active torsions:
REMARK  status: ('A' for Active; 'I' for Inactive)
REMARK    1  A    between atoms: C_1  and  N_2
REMARK    2  A    between atoms: C_8  and  C_9
REMARK    3  A    between atoms: C_9  and  C_10
REMARK    4  A    between atoms: C_10  and  N_11
REMARK    5  A    between atoms: N_11  and  C_12
REMARK    6  A    between atoms: C_15  and  C_16
REMARK                            x       y       z     vdW  Elec       q    Type
REMARK                         _______ _______ _______ _____ _____    ______ ____
ROOT
ATOM      1  C   UNL     1      48.134   9.401  12.809  0.00  0.00    +0.000 C 
ENDROOT
BRANCH   1   9
ATOM      2  C   UNL     1      43.330   2.500  11.723  0.00  0.00    +0.000 C 
ATOM      3  N   UNL     1      43.517   3.808  11.099  0.00  0.00    +0.000 NA
ATOM      4  C   UNL     1      42.753   4.850  11.839  0.00  0.00    +0.000 C 
ATOM      5  C   UNL     1      43.022   6.291  11.329  0.00  0.00    +0.000 C 
ATOM      6  N   UNL     1      44.468   6.515  11.405  0.00  0.00    +0.000 N 
ATOM      7  C   UNL     1      44.941   7.808  11.511  0.00  0.00    +0.000 A 
ATOM      8  C   UNL     1      46.226   7.999  12.029  0.00  0.00    +0.000 A 
ATOM      9  C   UNL     1      46.742   9.280  12.228  0.00  0.00    +0.000 A 
ATOM     10  C   UNL     1      45.921  10.354  11.889  0.00  0.00    +0.000 A 
ATOM     11  C   UNL     1      44.656  10.093  11.388  0.00  0.00    +0.000 A 
ATOM     12  N   UNL     1      44.151   8.855  11.205  0.00  0.00    +0.000 NA
ATOM     13  C   UNL     1      45.222   5.584  10.557  0.00  0.00    +0.000 C 
ATOM     14  C   UNL     1      44.959   4.155  11.075  0.00  0.00    +0.000 C 
ENDBRANCH   1   9
BRANCH   1  15
ATOM     15  C   UNL     1      48.229   9.038  14.289  0.00  0.00    +0.000 C 
BRANCH  15  16
ATOM     16  N   UNL     1      49.160   7.933  14.530  0.00  0.00    +0.000 N 
ATOM     17  H   UNL     1      50.052   8.250  14.907  0.00  0.00    +0.000 HD
BRANCH  16  18
ATOM     18  C   UNL     1      48.642   6.853  15.270  0.00  0.00    +0.000 A 
ATOM     19  C   UNL     1      47.882   5.828  14.694  0.00  0.00    +0.000 A 
ATOM     20  C   UNL     1      47.447   4.746  15.455  0.00  0.00    +0.000 A 
ATOM     21  C   UNL     1      47.818   4.693  16.787  0.00  0.00    +0.000 A 
ATOM     22  N   UNL     1      48.590   5.635  17.397  0.00  0.00    +0.000 NA
ATOM     23  C   UNL     1      48.990   6.671  16.615  0.00  0.00    +0.000 A 
BRANCH  21  24
ATOM     24  C   UNL     1      47.379   3.531  17.621  0.00  0.00    +0.000 C 
ATOM     25  N   UNL     1      48.184   3.235  18.684  0.00  0.00    +0.000 N 
ATOM     26  O   UNL     1      46.368   2.880  17.373  0.00  0.00    +0.000 OA
ATOM     27  H   UNL     1      49.022   3.779  18.841  0.00  0.00    +0.000 HD
ATOM     28  H   UNL     1      47.966   2.440  19.268  0.00  0.00    +0.000 HD
ENDBRANCH  21  24
ENDBRANCH  16  18
ENDBRANCH  15  16
ENDBRANCH   1  15
TORSDOF 5
ENDMDL
MODEL 9
REMARK VINA RESULT:    -6.265      2.947      4.897
REMARK INTER + INTRA:          -8.826
REMARK INTER:                  -8.026
REMARK INTRA:                  -0.800
REMARK UNBOUND:                -0.730
REMARK  Name = 
REMARK  6 active torsions:
REMARK  status: ('A' for Active; 'I' for Inactive)
REMARK    1  A    between atoms: C_1  and  N_2
REMARK    2  A    between atoms: C_8  and  C_9
REMARK    3  A    between atoms: C_9  and  C_10
REMARK    4  A    between atoms: C_10  and  N_11
REMARK    5  A    between atoms: N_11  and  C_12
REMARK    6  A    between atoms: C_15  and  C_16
REMARK                            x       y       z     vdW  Elec       q    Type
REMARK                         _______ _______ _______ _____ _____    ______ ____
ROOT
ATOM      1  C   UNL     1      46.757   9.727  12.325  0.00  0.00    +0.000 C 
ENDROOT
BRANCH   1   9
ATOM      2  C   UNL     1      47.857   6.720  20.175  0.00  0.00    +0.000 C 
ATOM      3  N   UNL     1      48.657   6.952  18.974  0.00  0.00    +0.000 NA
ATOM      4  C   UNL     1      48.491   5.826  18.015  0.00  0.00    +0.000 C 
ATOM      5  C   UNL     1      49.189   6.071  16.650  0.00  0.00    +0.000 C 
ATOM      6  N   UNL     1      48.662   7.328  16.114  0.00  0.00    +0.000 N 
ATOM      7  C   UNL     1      48.695   7.539  14.749  0.00  0.00    +0.000 A 
ATOM      8  C   UNL     1      47.817   8.483  14.208  0.00  0.00    +0.000 A 
ATOM      9  C   UNL     1      47.747   8.701  12.831  0.00  0.00    +0.000 A 
ATOM     10  C   UNL     1      48.589   7.937  12.026  0.00  0.00    +0.000 A 
ATOM     11  C   UNL     1      49.430   7.014  12.627  0.00  0.00    +0.000 A 
ATOM     12  N   UNL     1      49.490   6.795  13.958  0.00  0.00    +0.000 NA
ATOM     13  C   UNL     1      48.954   8.472  16.985  0.00  0.00    +0.000 C 
ATOM     14  C   UNL     1      48.250   8.228  18.336  0.00  0.00    +0.000 C 
ENDBRANCH   1   9
BRANCH   1  15
ATOM     15  C   UNL     1      45.472   9.132  11.754  0.00  0.00    +0.000 C 
BRANCH  15  16
ATOM     16  N   UNL     1      44.805   8.238  12.703  0.00  0.00    +0.000 N 
ATOM     17  H   UNL     1      43.925   8.620  13.045  0.00  0.00    +0.000 HD
BRANCH  16  18
ATOM     18  C   UNL     1      44.660   6.903  12.281  0.00  0.00    +0.000 A 
ATOM     19  C   UNL     1      45.423   5.850  12.801  0.00  0.00    +0.000 A 
ATOM     20  C   UNL     1      45.198   4.537  12.399  0.00  0.00    +0.000 A 
ATOM     21  C   UNL     1      44.174   4.296  11.499  0.00  0.00    +0.000 A 
ATOM     22  N   UNL     1      43.369   5.268  10.989  0.00  0.00    +0.000 NA
ATOM     23  C   UNL     1      43.627   6.533  11.410  0.00  0.00    +0.000 A 
BRANCH  21  24
ATOM     24  C   UNL     1      43.899   2.890  11.066  0.00  0.00    +0.000 C 
ATOM     25  N   UNL     1      44.732   2.401  10.100  0.00  0.00    +0.000 N 
ATOM     26  O   UNL     1      42.987   2.216  11.537  0.00  0.00    +0.000 OA
ATOM     27  H   UNL     1      45.456   2.996   9.719  0.00  0.00    +0.000 HD
ATOM     28  H   UNL     1      44.580   1.472   9.735  0.00  0.00    +0.000 HD
ENDBRANCH  21  24
ENDBRANCH  16  18
ENDBRANCH  15  16
ENDBRANCH   1  15
TORSDOF 5
ENDMDL
