MODEL 1
REMARK VINA RESULT:    -8.330      0.000      0.000
REMARK INTER + INTRA:         -10.581
REMARK INTER:                 -10.765
REMARK INTRA:                   0.184
REMARK UNBOUND:                 0.184
REMARK  Name = 
REMARK  6 active torsions:
REMARK  status: ('A' for Active; 'I' for Inactive)
REMARK    1  A    between atoms: C_1  and  O_2
REMARK    2  A    between atoms: O_2  and  C_3
REMARK    3  A    between atoms: C_5  and  C_6
REMARK    4  A    between atoms: C_6  and  N_7
REMARK    5  A    between atoms: C_11  and  C_12
REMARK    6  A    between atoms: C_21  and  C_22
REMARK                            x       y       z     vdW  Elec       q    Type
REMARK                         _______ _______ _______ _____ _____    ______ ____
ROOT
ATOM      1  C   UNL     1      43.959   5.164  11.202  0.00  0.00    +0.000 C 
ATOM      2  C   UNL     1      42.594   5.553  11.736  0.00  0.00    +0.000 C 
ATOM      3  C   UNL     1      43.001   4.119  11.781  0.00  0.00    +0.000 C 
ENDROOT
BRANCH   1   4
ATOM      4  N   UNL     1      44.218   5.028   9.767  0.00  0.00    +0.000 N 
ATOM      5  C   UNL     1      44.988   4.067   9.120  0.00  0.00    +0.000 A 
ATOM      6  C   UNL     1      45.298   2.798   9.614  0.00  0.00    +0.000 A 
ATOM      7  N   UNL     1      46.016   1.858   8.931  0.00  0.00    +0.000 NA
ATOM      8  C   UNL     1      46.420   2.251   7.693  0.00  0.00    +0.000 A 
ATOM      9  C   UNL     1      46.125   3.503   7.186  0.00  0.00    +0.000 A 
ATOM     10  N   UNL     1      45.411   4.425   7.886  0.00  0.00    +0.000 NA
ATOM     11  H   UNL     1      44.214   5.863   9.186  0.00  0.00    +0.000 HD
BRANCH   8  12
ATOM     12  C   UNL     1      47.204   1.293   6.866  0.00  0.00    +0.000 C 
ATOM     13  N   UNL     1      48.263   1.817   6.173  0.00  0.00    +0.000 N 
ATOM     14  O   UNL     1      46.922   0.105   6.801  0.00  0.00    +0.000 OA
ATOM     15  H   UNL     1      48.485   2.803   6.245  0.00  0.00    +0.000 HD
ATOM     16  H   UNL     1      48.825   1.208   5.597  0.00  0.00    +0.000 HD
ENDBRANCH   8  12
ENDBRANCH   1   4
BRANCH   1  19
ATOM     17  C   UNL     1      46.854   4.827  13.748  0.00  0.00    +0.000 A 
ATOM     18  C   UNL     1      45.776   4.529  12.893  0.00  0.00    +0.000 A 
ATOM     19  C   UNL     1      45.187   5.492  12.053  0.00  0.00    +0.000 A 
ATOM     20  C   UNL     1      45.754   6.774  12.063  0.00  0.00    +0.000 A 
ATOM     21  C   UNL     1      46.864   7.071  12.857  0.00  0.00    +0.000 A 
ATOM     22  C   UNL     1      47.417   6.108  13.707  0.00  0.00    +0.000 A 
BRANCH  17  24
ATOM     23  C   UNL     1      47.073   3.851  15.911  0.00  0.00    +0.000 C 
ATOM     24  O   UNL     1      47.263   3.761  14.502  0.00  0.00    +0.000 OA
ENDBRANCH  17  24
BRANCH  22  25
ATOM     25  C   UNL     1      48.557   6.502  14.474  0.00  0.00    +0.000 C 
ATOM     26  N   UNL     1      49.491   6.779  15.106  0.00  0.00    +0.000 NA
ENDBRANCH  22  25
ENDBRANCH   1  19
TORSDOF 5
ENDMDL
MODEL 2
REMARK VINA RESULT:    -8.267      1.351      2.061
REMARK INTER + INTRA:         -10.500
REMARK INTER:                 -10.545
REMARK INTRA:                   0.045
REMARK UNBOUND:                 0.184
REMARK  Name = 
REMARK  6 active torsions:
REMARK  status: ('A' for Active; 'I' for Inactive)
REMARK    1  A    between atoms: C_1  and  O_2
REMARK    2  A    between atoms: O_2  and  C_3
REMARK    3  A    between atoms: C_5  and  C_6
REMARK    4  A    between atoms: C_6  and  N_7
REMARK    5  A    between atoms: C_11  and  C_12
REMARK    6  A    between atoms: C_21  and  C_22
REMARK                            x       y       z     vdW  Elec       q    Type
REMARK                         _______ _______ _______ _____ _____    ______ ____
ROOT
ATOM      1  C   UNL     1      43.885   5.353  11.124  0.00  0.00    +0.000 C 
ATOM      2  C   UNL     1      42.517   5.889  11.501  0.00  0.00    +0.000 C 
ATOM      3  C   UNL     1      42.776   4.425  11.627  0.00  0.00    +0.000 C 
ENDROOT
BRANCH   1   4
ATOM      4  N   UNL     1      44.275   5.140   9.729  0.00  0.00    +0.000 N 
ATOM      5  C   UNL     1      44.981   4.071   9.188  0.00  0.00    +0.000 A 
ATOM      6  C   UNL     1      45.073   2.790   9.736  0.00  0.00    +0.000 A 
ATOM      7  N   UNL     1      45.733   1.747   9.152  0.00  0.00    +0.000 NA
ATOM      8  C   UNL     1      46.313   2.046   7.959  0.00  0.00    +0.000 A 
ATOM      9  C   UNL     1      46.235   3.308   7.401  0.00  0.00    +0.000 A 
ATOM     10  N   UNL     1      45.574   4.334   8.001  0.00  0.00    +0.000 NA
ATOM     11  H   UNL     1      44.439   5.950   9.136  0.00  0.00    +0.000 HD
BRANCH   8  12
ATOM     12  C   UNL     1      47.052   0.972   7.240  0.00  0.00    +0.000 C 
ATOM     13  N   UNL     1      46.755  -0.314   7.604  0.00  0.00    +0.000 N 
ATOM     14  O   UNL     1      47.882   1.217   6.377  0.00  0.00    +0.000 OA
ATOM     15  H   UNL     1      46.060  -0.498   8.317  0.00  0.00    +0.000 HD
ATOM     16  H   UNL     1      47.231  -1.078   7.146  0.00  0.00    +0.000 HD
ENDBRANCH   8  12
ENDBRANCH   1   4
BRANCH   1  19
ATOM     17  C   UNL     1      46.952   6.975  12.838  0.00  0.00    +0.000 A 
ATOM     18  C   UNL     1      45.829   6.763  12.017  0.00  0.00    +0.000 A 
ATOM     19  C   UNL     1      45.045   5.597  12.091  0.00  0.00    +0.000 A 
ATOM     20  C   UNL     1      45.402   4.654  13.065  0.00  0.00    +0.000 A 
ATOM     21  C   UNL     1      46.474   4.876  13.932  0.00  0.00    +0.000 A 
ATOM     22  C   UNL     1      47.259   6.029  13.824  0.00  0.00    +0.000 A 
BRANCH  17  24
ATOM     23  C   UNL     1      48.719   8.117  11.720  0.00  0.00    +0.000 C 
ATOM     24  O   UNL     1      47.593   8.159  12.592  0.00  0.00    +0.000 OA
ENDBRANCH  17  24
BRANCH  22  25
ATOM     25  C   UNL     1      48.329   6.172  14.761  0.00  0.00    +0.000 C 
ATOM     26  N   UNL     1      49.222   6.259  15.498  0.00  0.00    +0.000 NA
ENDBRANCH  22  25
ENDBRANCH   1  19
TORSDOF 5
ENDMDL
MODEL 3
REMARK VINA RESULT:    -7.541      2.219      3.104
REMARK INTER + INTRA:          -9.561
REMARK INTER:                  -9.025
REMARK INTRA:                  -0.536
REMARK UNBOUND:                 0.184
REMARK  Name = 
REMARK  6 active torsions:
REMARK  status: ('A' for Active; 'I' for Inactive)
REMARK    1  A    between atoms: C_1  and  O_2
REMARK    2  A    between atoms: O_2  and  C_3
REMARK    3  A    between atoms: C_5  and  C_6
REMARK    4  A    between atoms: C_6  and  N_7
REMARK    5  A    between atoms: C_11  and  C_12
REMARK    6  A    between atoms: C_21  and  C_22
REMARK                            x       y       z     vdW  Elec       q    Type
REMARK                         _______ _______ _______ _____ _____    ______ ____
ROOT
ATOM      1  C   UNL     1      44.039   5.185  11.727  0.00  0.00    +0.000 C 
ATOM      2  C   UNL     1      42.636   5.614  11.342  0.00  0.00    +0.000 C 
ATOM      3  C   UNL     1      42.849   4.953  12.662  0.00  0.00    +0.000 C 
ENDROOT
BRANCH   1   4
ATOM      4  N   UNL     1      44.648   3.963  11.196  0.00  0.00    +0.000 N 
ATOM      5  C   UNL     1      45.222   3.763   9.945  0.00  0.00    +0.000 A 
ATOM      6  C   UNL     1      45.745   4.758   9.117  0.00  0.00    +0.000 A 
ATOM      7  N   UNL     1      46.349   4.521   7.914  0.00  0.00    +0.000 NA
ATOM      8  C   UNL     1      46.413   3.207   7.567  0.00  0.00    +0.000 A 
ATOM      9  C   UNL     1      45.899   2.209   8.373  0.00  0.00    +0.000 A 
ATOM     10  N   UNL     1      45.299   2.468   9.565  0.00  0.00    +0.000 NA
ATOM     11  H   UNL     1      44.313   3.062  11.530  0.00  0.00    +0.000 HD
BRANCH   8  12
ATOM     12  C   UNL     1      47.059   2.846   6.275  0.00  0.00    +0.000 C 
ATOM     13  N   UNL     1      48.381   2.496   6.337  0.00  0.00    +0.000 N 
ATOM     14  O   UNL     1      46.450   2.864   5.215  0.00  0.00    +0.000 OA
ATOM     15  H   UNL     1      48.866   2.481   7.226  0.00  0.00    +0.000 HD
ATOM     16  H   UNL     1      48.864   2.244   5.487  0.00  0.00    +0.000 HD
ENDBRANCH   8  12
ENDBRANCH   1   4
BRANCH   1  19
ATOM     17  C   UNL     1      45.766   8.623  12.139  0.00  0.00    +0.000 A 
ATOM     18  C   UNL     1      44.830   7.619  11.827  0.00  0.00    +0.000 A 
ATOM     19  C   UNL     1      45.030   6.267  12.160  0.00  0.00    +0.000 A 
ATOM     20  C   UNL     1      46.196   5.955  12.871  0.00  0.00    +0.000 A 
ATOM     21  C   UNL     1      47.104   6.946  13.247  0.00  0.00    +0.000 A 
ATOM     22  C   UNL     1      46.903   8.282  12.881  0.00  0.00    +0.000 A 
BRANCH  17  24
ATOM     23  C   UNL     1      44.170   9.969  10.990  0.00  0.00    +0.000 C 
ATOM     24  O   UNL     1      45.398   9.868  11.706  0.00  0.00    +0.000 OA
ENDBRANCH  17  24
BRANCH  22  25
ATOM     25  C   UNL     1      47.883   9.226  13.318  0.00  0.00    +0.000 C 
ATOM     26  N   UNL     1      48.674   9.978  13.716  0.00  0.00    +0.000 NA
ENDBRANCH  22  25
ENDBRANCH   1  19
TORSDOF 5
ENDMDL
MODEL 4
REMARK VINA RESULT:    -7.226      2.049      6.949
REMARK INTER + INTRA:          -9.154
REMARK INTER:                  -9.103
REMARK INTRA:                  -0.050
REMARK UNBOUND:                 0.184
REMARK  Name = 
REMARK  6 active torsions:
REMARK  status: ('A' for Active; 'I' for Inactive)
REMARK    1  A    between atoms: C_1  and  O_2
REMARK    2  A    between atoms: O_2  and  C_3
REMARK    3  A    between atoms: C_5  and  C_6
REMARK    4  A    between atoms: C_6  and  N_7
REMARK    5  A    between atoms: C_11  and  C_12
REMARK    6  A    between atoms: C_21  and  C_22
REMARK                            x       y       z     vdW  Elec       q    Type
REMARK                         _______ _______ _______ _____ _____    ______ ____
ROOT
ATOM      1  C   UNL     1      44.502   4.164  11.529  0.00  0.00    +0.000 C 
ATOM      2  C   UNL     1      43.498   3.210  12.147  0.00  0.00    +0.000 C 
ATOM      3  C   UNL     1      43.014   4.517  11.614  0.00  0.00    +0.000 C 
ENDROOT
BRANCH   1   4
ATOM      4  N   UNL     1      45.378   5.004  12.349  0.00  0.00    +0.000 N 
ATOM      5  C   UNL     1      46.177   4.621  13.421  0.00  0.00    +0.000 A 
ATOM      6  C   UNL     1      46.667   3.335  13.659  0.00  0.00    +0.000 A 
ATOM      7  N   UNL     1      47.493   3.004  14.695  0.00  0.00    +0.000 NA
ATOM      8  C   UNL     1      47.822   4.045  15.506  0.00  0.00    +0.000 A 
ATOM      9  C   UNL     1      47.346   5.324  15.289  0.00  0.00    +0.000 A 
ATOM     10  N   UNL     1      46.522   5.631  14.252  0.00  0.00    +0.000 NA
ATOM     11  H   UNL     1      45.139   5.985  12.476  0.00  0.00    +0.000 HD
BRANCH   8  12
ATOM     12  C   UNL     1      48.724   3.785  16.662  0.00  0.00    +0.000 C 
ATOM     13  N   UNL     1      48.747   4.745  17.638  0.00  0.00    +0.000 N 
ATOM     14  O   UNL     1      49.410   2.777  16.739  0.00  0.00    +0.000 OA
ATOM     15  H   UNL     1      48.166   5.571  17.559  0.00  0.00    +0.000 HD
ATOM     16  H   UNL     1      49.344   4.615  18.442  0.00  0.00    +0.000 HD
ENDBRANCH   8  12
ENDBRANCH   1   4
BRANCH   1  19
ATOM     17  C   UNL     1      45.685   2.188   8.419  0.00  0.00    +0.000 A 
ATOM     18  C   UNL     1      45.121   2.519   9.666  0.00  0.00    +0.000 A 
ATOM     19  C   UNL     1      45.036   3.843  10.132  0.00  0.00    +0.000 A 
ATOM     20  C   UNL     1      45.499   4.848   9.272  0.00  0.00    +0.000 A 
ATOM     21  C   UNL     1      46.002   4.545   8.005  0.00  0.00    +0.000 A 
ATOM     22  C   UNL     1      46.105   3.219   7.571  0.00  0.00    +0.000 A 
BRANCH  17  24
ATOM     23  C   UNL     1      46.924   0.281   7.707  0.00  0.00    +0.000 C 
ATOM     24  O   UNL     1      45.697   0.844   8.165  0.00  0.00    +0.000 OA
ENDBRANCH  17  24
BRANCH  22  25
ATOM     25  C   UNL     1      46.624   3.009   6.257  0.00  0.00    +0.000 C 
ATOM     26  N   UNL     1      47.064   2.799   5.202  0.00  0.00    +0.000 NA
ENDBRANCH  22  25
ENDBRANCH   1  19
TORSDOF 5
ENDMDL
MODEL 5
REMARK VINA RESULT:    -6.963      2.265      7.088
REMARK INTER + INTRA:          -8.814
REMARK INTER:                  -9.393
REMARK INTRA:                   0.579
REMARK UNBOUND:                 0.184
REMARK  Name = 
REMARK  6 active torsions:
REMARK  status: ('A' for Active; 'I' for Inactive)
REMARK    1  A    between atoms: C_1  and  O_2
REMARK    2  A    between atoms: O_2  and  C_3
REMARK    3  A    between atoms: C_5  and  C_6
REMARK    4  A    between atoms: C_6  and  N_7
REMARK    5  A    between atoms: C_11  and  C_12
REMARK    6  A    between atoms: C_21  and  C_22
REMARK                            x       y       z     vdW  Elec       q    Type
REMARK                         _______ _______ _______ _____ _____    ______ ____
ROOT
ATOM      1  C   UNL     1      44.452   4.492  11.019  0.00  0.00    +0.000 C 
ATOM      2  C   UNL     1      44.205   3.535  12.170  0.00  0.00    +0.000 C 
ATOM      3  C   UNL     1      43.051   3.954  11.322  0.00  0.00    +0.000 C 
ENDROOT
BRANCH   1   4
ATOM      4  N   UNL     1      44.614   5.932  11.232  0.00  0.00    +0.000 N 
ATOM      5  C   UNL     1      45.522   6.581  12.062  0.00  0.00    +0.000 A 
ATOM      6  C   UNL     1      46.738   6.062  12.509  0.00  0.00    +0.000 A 
ATOM      7  N   UNL     1      47.631   6.747  13.284  0.00  0.00    +0.000 NA
ATOM      8  C   UNL     1      47.246   8.013  13.599  0.00  0.00    +0.000 A 
ATOM      9  C   UNL     1      46.045   8.544  13.168  0.00  0.00    +0.000 A 
ATOM     10  N   UNL     1      45.170   7.843  12.399  0.00  0.00    +0.000 NA
ATOM     11  H   UNL     1      43.804   6.538  11.126  0.00  0.00    +0.000 HD
BRANCH   8  12
ATOM     12  C   UNL     1      48.156   8.842  14.436  0.00  0.00    +0.000 C 
ATOM     13  N   UNL     1      47.667   9.238  15.652  0.00  0.00    +0.000 N 
ATOM     14  O   UNL     1      49.276   9.160  14.063  0.00  0.00    +0.000 OA
ATOM     15  H   UNL     1      46.738   8.959  15.946  0.00  0.00    +0.000 HD
ATOM     16  H   UNL     1      48.245   9.803  16.256  0.00  0.00    +0.000 HD
ENDBRANCH   8  12
ENDBRANCH   1   4
BRANCH   1  19
ATOM     17  C   UNL     1      45.845   2.027   8.381  0.00  0.00    +0.000 A 
ATOM     18  C   UNL     1      45.164   2.565   9.489  0.00  0.00    +0.000 A 
ATOM     19  C   UNL     1      45.123   3.945   9.758  0.00  0.00    +0.000 A 
ATOM     20  C   UNL     1      45.758   4.789   8.836  0.00  0.00    +0.000 A 
ATOM     21  C   UNL     1      46.383   4.280   7.697  0.00  0.00    +0.000 A 
ATOM     22  C   UNL     1      46.439   2.901   7.462  0.00  0.00    +0.000 A 
BRANCH  17  24
ATOM     23  C   UNL     1      46.876  -0.002   7.676  0.00  0.00    +0.000 C 
ATOM     24  O   UNL     1      45.788   0.662   8.313  0.00  0.00    +0.000 OA
ENDBRANCH  17  24
BRANCH  22  25
ATOM     25  C   UNL     1      47.093   2.476   6.265  0.00  0.00    +0.000 C 
ATOM     26  N   UNL     1      47.654   2.164   5.297  0.00  0.00    +0.000 NA
ENDBRANCH  22  25
ENDBRANCH   1  19
TORSDOF 5
ENDMDL
MODEL 6
REMARK VINA RESULT:    -6.525      2.078      6.924
REMARK INTER + INTRA:          -8.249
REMARK INTER:                  -8.371
REMARK INTRA:                   0.122
REMARK UNBOUND:                 0.184
REMARK  Name = 
REMARK  6 active torsions:
REMARK  status: ('A' for Active; 'I' for Inactive)
REMARK    1  A    between atoms: C_1  and  O_2
REMARK    2  A    between atoms: O_2  and  C_3
REMARK    3  A    between atoms: C_5  and  C_6
REMARK    4  A    between atoms: C_6  and  N_7
REMARK    5  A    between atoms: C_11  and  C_12
REMARK    6  A    between atoms: C_21  and  C_22
REMARK                            x       y       z     vdW  Elec       q    Type
REMARK                         _______ _______ _______ _____ _____    ______ ____
ROOT
ATOM      1  C   UNL     1      44.186   5.484  11.378  0.00  0.00    +0.000 C 
ATOM      2  C   UNL     1      43.102   5.077  12.359  0.00  0.00    +0.000 C 
ATOM      3  C   UNL     1      42.716   5.840  11.137  0.00  0.00    +0.000 C 
ENDROOT
BRANCH   1   4
ATOM      4  N   UNL     1      45.061   6.632  11.625  0.00  0.00    +0.000 N 
ATOM      5  C   UNL     1      46.138   6.719  12.501  0.00  0.00    +0.000 A 
ATOM      6  C   UNL     1      46.889   5.645  12.983  0.00  0.00    +0.000 A 
ATOM      7  N   UNL     1      47.974   5.770  13.804  0.00  0.00    +0.000 NA
ATOM      8  C   UNL     1      48.288   7.053  14.129  0.00  0.00    +0.000 A 
ATOM      9  C   UNL     1      47.555   8.129  13.664  0.00  0.00    +0.000 A 
ATOM     10  N   UNL     1      46.476   7.981  12.849  0.00  0.00    +0.000 NA
ATOM     11  H   UNL     1      44.687   7.570  11.501  0.00  0.00    +0.000 HD
BRANCH   8  12
ATOM     12  C   UNL     1      49.460   7.293  15.016  0.00  0.00    +0.000 C 
ATOM     13  N   UNL     1      49.961   8.567  15.024  0.00  0.00    +0.000 N 
ATOM     14  O   UNL     1      49.954   6.406  15.697  0.00  0.00    +0.000 OA
ATOM     15  H   UNL     1      49.534   9.289  14.456  0.00  0.00    +0.000 HD
ATOM     16  H   UNL     1      50.756   8.780  15.608  0.00  0.00    +0.000 HD
ENDBRANCH   8  12
ENDBRANCH   1   4
BRANCH   1  19
ATOM     17  C   UNL     1      46.032   3.775   8.438  0.00  0.00    +0.000 A 
ATOM     18  C   UNL     1      45.549   4.741   9.341  0.00  0.00    +0.000 A 
ATOM     19  C   UNL     1      44.773   4.406  10.466  0.00  0.00    +0.000 A 
ATOM     20  C   UNL     1      44.534   3.043  10.687  0.00  0.00    +0.000 A 
ATOM     21  C   UNL     1      45.059   2.067   9.839  0.00  0.00    +0.000 A 
ATOM     22  C   UNL     1      45.803   2.421   8.709  0.00  0.00    +0.000 A 
BRANCH  17  24
ATOM     23  C   UNL     1      46.597   3.681   6.125  0.00  0.00    +0.000 C 
ATOM     24  O   UNL     1      46.742   4.308   7.396  0.00  0.00    +0.000 OA
ENDBRANCH  17  24
BRANCH  22  25
ATOM     25  C   UNL     1      46.306   1.351   7.906  0.00  0.00    +0.000 C 
ATOM     26  N   UNL     1      46.745   0.472   7.285  0.00  0.00    +0.000 NA
ENDBRANCH  22  25
ENDBRANCH   1  19
TORSDOF 5
ENDMDL
MODEL 7
REMARK VINA RESULT:    -6.337      4.257      6.542
REMARK INTER + INTRA:          -8.005
REMARK INTER:                  -7.607
REMARK INTRA:                  -0.398
REMARK UNBOUND:                 0.184
REMARK  Name = 
REMARK  6 active torsions:
REMARK  status: ('A' for Active; 'I' for Inactive)
REMARK    1  A    between atoms: C_1  and  O_2
REMARK    2  A    between atoms: O_2  and  C_3
REMARK    3  A    between atoms: C_5  and  C_6
REMARK    4  A    between atoms: C_6  and  N_7
REMARK    5  A    between atoms: C_11  and  C_12
REMARK    6  A    between atoms: C_21  and  C_22
REMARK                            x       y       z     vdW  Elec       q    Type
REMARK                         _______ _______ _______ _____ _____    ______ ____
ROOT
ATOM      1  C   UNL     1      48.587   7.832  12.739  0.00  0.00    +0.000 C 
ATOM      2  C   UNL     1      49.369   7.456  11.494  0.00  0.00    +0.000 C 
ATOM      3  C   UNL     1      50.078   8.157  12.604  0.00  0.00    +0.000 C 
ENDROOT
BRANCH   1   4
ATOM      4  N   UNL     1      47.707   9.001  12.776  0.00  0.00    +0.000 N 
ATOM      5  C   UNL     1      46.459   9.156  12.180  0.00  0.00    +0.000 A 
ATOM      6  C   UNL     1      45.592   8.124  11.817  0.00  0.00    +0.000 A 
ATOM      7  N   UNL     1      44.351   8.314  11.279  0.00  0.00    +0.000 NA
ATOM      8  C   UNL     1      44.001   9.618  11.119  0.00  0.00    +0.000 A 
ATOM      9  C   UNL     1      44.847  10.654  11.470  0.00  0.00    +0.000 A 
ATOM     10  N   UNL     1      46.080  10.442  12.001  0.00  0.00    +0.000 NA
ATOM     11  H   UNL     1      48.122   9.926  12.870  0.00  0.00    +0.000 HD
BRANCH   8  12
ATOM     12  C   UNL     1      42.662   9.928  10.545  0.00  0.00    +0.000 C 
ATOM     13  N   UNL     1      41.598   9.274  11.105  0.00  0.00    +0.000 N 
ATOM     14  O   UNL     1      42.516  10.717   9.623  0.00  0.00    +0.000 OA
ATOM     15  H   UNL     1      41.739   8.628  11.872  0.00  0.00    +0.000 HD
ATOM     16  H   UNL     1      40.670   9.449  10.749  0.00  0.00    +0.000 HD
ENDBRANCH   8  12
ENDBRANCH   1   4
BRANCH   1  19
ATOM     17  C   UNL     1      47.055   4.612  14.242  0.00  0.00    +0.000 A 
ATOM     18  C   UNL     1      47.468   5.606  13.335  0.00  0.00    +0.000 A 
ATOM     19  C   UNL     1      48.230   6.721  13.728  0.00  0.00    +0.000 A 
ATOM     20  C   UNL     1      48.613   6.784  15.076  0.00  0.00    +0.000 A 
ATOM     21  C   UNL     1      48.267   5.775  15.976  0.00  0.00    +0.000 A 
ATOM     22  C   UNL     1      47.484   4.688  15.573  0.00  0.00    +0.000 A 
BRANCH  17  24
ATOM     23  C   UNL     1      45.235   4.039  12.814  0.00  0.00    +0.000 C 
ATOM     24  O   UNL     1      46.300   3.627  13.666  0.00  0.00    +0.000 OA
ENDBRANCH  17  24
BRANCH  22  25
ATOM     25  C   UNL     1      47.189   3.702  16.564  0.00  0.00    +0.000 C 
ATOM     26  N   UNL     1      46.932   2.933  17.395  0.00  0.00    +0.000 NA
ENDBRANCH  22  25
ENDBRANCH   1  19
TORSDOF 5
ENDMDL
MODEL 8
REMARK VINA RESULT:    -6.248      4.053      6.805
REMARK INTER + INTRA:          -7.890
REMARK INTER:                  -7.652
REMARK INTRA:                  -0.239
REMARK UNBOUND:                 0.184
REMARK  Name = 
REMARK  6 active torsions:
REMARK  status: ('A' for Active; 'I' for Inactive)
REMARK    1  A    between atoms: C_1  and  O_2
REMARK    2  A    between atoms: O_2  and  C_3
REMARK    3  A    between atoms: C_5  and  C_6
REMARK    4  A    between atoms: C_6  and  N_7
REMARK    5  A    between atoms: C_11  and  C_12
REMARK    6  A    between atoms: C_21  and  C_22
REMARK                            x       y       z     vdW  Elec       q    Type
REMARK                         _______ _______ _______ _____ _____    ______ ____
ROOT
ATOM      1  C   UNL     1      48.011   4.477  16.883  0.00  0.00    +0.000 C 
ATOM      2  C   UNL     1      47.952   5.937  17.294  0.00  0.00    +0.000 C 
ATOM      3  C   UNL     1      47.229   4.927  18.120  0.00  0.00    +0.000 C 
ENDROOT
BRANCH   1   4
ATOM      4  N   UNL     1      47.186   3.945  15.797  0.00  0.00    +0.000 N 
ATOM      5  C   UNL     1      46.822   4.570  14.609  0.00  0.00    +0.000 A 
ATOM      6  C   UNL     1      47.506   5.621  13.995  0.00  0.00    +0.000 A 
ATOM      7  N   UNL     1      47.149   6.179  12.800  0.00  0.00    +0.000 NA
ATOM      8  C   UNL     1      46.048   5.623  12.226  0.00  0.00    +0.000 A 
ATOM      9  C   UNL     1      45.356   4.584  12.820  0.00  0.00    +0.000 A 
ATOM     10  N   UNL     1      45.728   4.045  14.012  0.00  0.00    +0.000 NA
ATOM     11  H   UNL     1      46.469   3.258  16.017  0.00  0.00    +0.000 HD
BRANCH   8  12
ATOM     12  C   UNL     1      45.583   6.159  10.918  0.00  0.00    +0.000 C 
ATOM     13  N   UNL     1      44.657   7.166  10.972  0.00  0.00    +0.000 N 
ATOM     14  O   UNL     1      45.997   5.726   9.852  0.00  0.00    +0.000 OA
ATOM     15  H   UNL     1      44.331   7.516  11.865  0.00  0.00    +0.000 HD
ATOM     16  H   UNL     1      44.310   7.562  10.111  0.00  0.00    +0.000 HD
ENDBRANCH   8  12
ENDBRANCH   1   4
BRANCH   1  19
ATOM     17  C   UNL     1      51.688   3.685  17.793  0.00  0.00    +0.000 A 
ATOM     18  C   UNL     1      50.463   4.354  17.616  0.00  0.00    +0.000 A 
ATOM     19  C   UNL     1      49.304   3.705  17.152  0.00  0.00    +0.000 A 
ATOM     20  C   UNL     1      49.403   2.328  16.912  0.00  0.00    +0.000 A 
ATOM     21  C   UNL     1      50.592   1.634  17.142  0.00  0.00    +0.000 A 
ATOM     22  C   UNL     1      51.742   2.303  17.576  0.00  0.00    +0.000 A 
BRANCH  17  24
ATOM     23  C   UNL     1      52.522   5.902  18.049  0.00  0.00    +0.000 C 
ATOM     24  O   UNL     1      52.699   4.499  18.225  0.00  0.00    +0.000 OA
ENDBRANCH  17  24
BRANCH  22  25
ATOM     25  C   UNL     1      52.909   1.506  17.793  0.00  0.00    +0.000 C 
ATOM     26  N   UNL     1      53.837   0.841  18.005  0.00  0.00    +0.000 NA
ENDBRANCH  22  25
ENDBRANCH   1  19
TORSDOF 5
ENDMDL
MODEL 9
REMARK VINA RESULT:    -6.093      3.459      5.102
REMARK INTER + INTRA:          -7.690
REMARK INTER:                  -7.235
REMARK INTRA:                  -0.455
REMARK UNBOUND:                 0.184
REMARK  Name = 
REMARK  6 active torsions:
REMARK  status: ('A' for Active; 'I' for Inactive)
REMARK    1  A    between atoms: C_1  and  O_2
REMARK    2  A    between atoms: O_2  and  C_3
REMARK    3  A    between atoms: C_5  and  C_6
REMARK    4  A    between atoms: C_6  and  N_7
REMARK    5  A    between atoms: C_11  and  C_12
REMARK    6  A    between atoms: C_21  and  C_22
REMARK                            x       y       z     vdW  Elec       q    Type
REMARK                         _______ _______ _______ _____ _____    ______ ____
ROOT
ATOM      1  C   UNL     1      48.337   8.126  12.732  0.00  0.00    +0.000 C 
ATOM      2  C   UNL     1      49.516   7.814  11.831  0.00  0.00    +0.000 C 
ATOM      3  C   UNL     1      49.094   9.235  11.996  0.00  0.00    +0.000 C 
ENDROOT
BRANCH   1   4
ATOM      4  N   UNL     1      46.954   7.933  12.292  0.00  0.00    +0.000 N 
ATOM      5  C   UNL     1      46.267   6.735  12.118  0.00  0.00    +0.000 A 
ATOM      6  C   UNL     1      46.569   5.522  12.738  0.00  0.00    +0.000 A 
ATOM      7  N   UNL     1      45.842   4.375  12.584  0.00  0.00    +0.000 NA
ATOM      8  C   UNL     1      44.765   4.499  11.763  0.00  0.00    +0.000 A 
ATOM      9  C   UNL     1      44.450   5.691  11.139  0.00  0.00    +0.000 A 
ATOM     10  N   UNL     1      45.190   6.820  11.304  0.00  0.00    +0.000 NA
ATOM     11  H   UNL     1      46.535   8.622  11.672  0.00  0.00    +0.000 HD
BRANCH   8  12
ATOM     12  C   UNL     1      43.905   3.304  11.537  0.00  0.00    +0.000 C 
ATOM     13  N   UNL     1      43.707   2.488  12.618  0.00  0.00    +0.000 N 
ATOM     14  O   UNL     1      43.405   3.059  10.449  0.00  0.00    +0.000 OA
ATOM     15  H   UNL     1      44.126   2.712  13.513  0.00  0.00    +0.000 HD
ATOM     16  H   UNL     1      43.133   1.664  12.514  0.00  0.00    +0.000 HD
ENDBRANCH   8  12
ENDBRANCH   1   4
BRANCH   1  19
ATOM     17  C   UNL     1      49.219   6.795  16.257  0.00  0.00    +0.000 A 
ATOM     18  C   UNL     1      49.090   6.916  14.861  0.00  0.00    +0.000 A 
ATOM     19  C   UNL     1      48.550   8.060  14.246  0.00  0.00    +0.000 A 
ATOM     20  C   UNL     1      48.181   9.118  15.088  0.00  0.00    +0.000 A 
ATOM     21  C   UNL     1      48.362   9.043  16.470  0.00  0.00    +0.000 A 
ATOM     22  C   UNL     1      48.874   7.885  17.066  0.00  0.00    +0.000 A 
BRANCH  17  24
ATOM     23  C   UNL     1      48.817   4.575  17.022  0.00  0.00    +0.000 C 
ATOM     24  O   UNL     1      49.742   5.596  16.656  0.00  0.00    +0.000 OA
ENDBRANCH  17  24
BRANCH  22  25
ATOM     25  C   UNL     1      49.030   7.905  18.486  0.00  0.00    +0.000 C 
ATOM     26  N   UNL     1      49.139   7.963  19.641  0.00  0.00    +0.000 NA
ENDBRANCH  22  25
ENDBRANCH   1  19
TORSDOF 5
ENDMDL
