MODEL 1
REMARK VINA RESULT:    -8.452      0.000      0.000
REMARK INTER + INTRA:         -12.870
REMARK INTER:                 -11.664
REMARK INTRA:                  -1.206
REMARK UNBOUND:                -1.206
REMARK  Name = 
REMARK  7 active torsions:
REMARK  status: ('A' for Active; 'I' for Inactive)
REMARK    1  A    between atoms: N_1  and  C_2
REMARK    2  A    between atoms: C_2  and  N_3
REMARK    3  A    between atoms: C_2  and  C_11
REMARK    4  A    between atoms: C_4  and  C_6
REMARK    5  A    between atoms: C_14  and  C_15
REMARK    6  A    between atoms: C_15  and  N_16
REMARK    7  A    between atoms: C_17  and  C_19
REMARK                            x       y       z     vdW  Elec       q    Type
REMARK                         _______ _______ _______ _____ _____    ______ ____
ROOT
ATOM      1  C   UNL     1      45.174   5.395  10.829  0.00  0.00    +0.000 A 
ATOM      2  C   UNL     1      46.356   6.059  10.460  0.00  0.00    +0.000 A 
ATOM      3  C   UNL     1      46.960   6.988  11.319  0.00  0.00    +0.000 A 
ATOM      4  C   UNL     1      46.401   7.265  12.573  0.00  0.00    +0.000 A 
ATOM      5  C   UNL     1      45.192   6.646  12.918  0.00  0.00    +0.000 A 
ATOM      6  C   UNL     1      44.590   5.721  12.061  0.00  0.00    +0.000 A 
ENDROOT
BRANCH   1   7
ATOM      7  C   UNL     1      44.588   4.338   9.915  0.00  0.00    +0.000 C 
BRANCH   7   8
ATOM      8  N   UNL     1      45.452   3.999   8.832  0.00  0.00    +0.000 N 
ATOM      9  C   UNL     1      45.581   2.699   8.405  0.00  0.00    +0.000 C 
ATOM     10  O   UNL     1      44.961   1.763   8.897  0.00  0.00    +0.000 OA
ATOM     11  H   UNL     1      46.157   4.661   8.567  0.00  0.00    +0.000 HD
BRANCH   9  12
ATOM     12  C   UNL     1      46.491   2.514   7.303  0.00  0.00    +0.000 A 
ATOM     13  C   UNL     1      46.648   3.147   6.085  0.00  0.00    +0.000 A 
ATOM     14  C   UNL     1      47.686   2.453   5.438  0.00  0.00    +0.000 A 
ATOM     15  N   UNL     1      48.170   1.458   6.183  0.00  0.00    +0.000 NA
ATOM     16  N   UNL     1      47.431   1.516   7.305  0.00  0.00    +0.000 N 
ATOM     17  H   UNL     1      47.605   0.841   8.046  0.00  0.00    +0.000 HD
ENDBRANCH   9  12
ENDBRANCH   7   8
BRANCH   7  18
ATOM     18  N   UNL     1      43.377   4.800   9.267  0.00  0.00    +0.000 NA
ATOM     19  H   UNL     1      43.321   4.363   8.353  0.00  0.00    +0.000 HD
ATOM     20  H   UNL     1      43.416   5.800   9.127  0.00  0.00    +0.000 HD
ENDBRANCH   7  18
ENDBRANCH   1   7
BRANCH   4  21
ATOM     21  C   UNL     1      47.067   8.202  13.552  0.00  0.00    +0.000 C 
BRANCH  21  22
ATOM     22  N   UNL     1      47.537   7.509  14.722  0.00  0.00    +0.000 N 
ATOM     23  C   UNL     1      48.759   6.884  14.745  0.00  0.00    +0.000 C 
ATOM     24  O   UNL     1      49.529   6.901  13.788  0.00  0.00    +0.000 OA
ATOM     25  H   UNL     1      46.828   7.206  15.380  0.00  0.00    +0.000 HD
BRANCH  23  26
ATOM     26  C   UNL     1      49.124   6.243  16.015  0.00  0.00    +0.000 A 
ATOM     27  C   UNL     1      50.177   6.729  16.770  0.00  0.00    +0.000 A 
ATOM     28  S   UNL     1      50.395   5.901  18.248  0.00  0.00    +0.000 S 
ATOM     29  C   UNL     1      49.126   4.827  17.896  0.00  0.00    +0.000 A 
ATOM     30  N   UNL     1      48.791   3.829  18.757  0.00  0.00    +0.000 NA
ATOM     31  C   UNL     1      47.827   3.072  18.348  0.00  0.00    +0.000 A 
ATOM     32  N   UNL     1      47.161   3.227  17.157  0.00  0.00    +0.000 N 
ATOM     33  C   UNL     1      47.445   4.235  16.273  0.00  0.00    +0.000 A 
ATOM     34  O   UNL     1      46.802   4.371  15.238  0.00  0.00    +0.000 OA
ATOM     35  C   UNL     1      48.531   5.108  16.680  0.00  0.00    +0.000 A 
ATOM     36  H   UNL     1      46.406   2.611  16.901  0.00  0.00    +0.000 HD
ENDBRANCH  23  26
ENDBRANCH  21  22
ENDBRANCH   4  21
TORSDOF 7
ENDMDL
MODEL 2
REMARK VINA RESULT:    -8.080      1.980      2.321
REMARK INTER + INTRA:         -12.356
REMARK INTER:                 -11.360
REMARK INTRA:                  -0.996
REMARK UNBOUND:                -1.206
REMARK  Name = 
REMARK  7 active torsions:
REMARK  status: ('A' for Active; 'I' for Inactive)
REMARK    1  A    between atoms: N_1  and  C_2
REMARK    2  A    between atoms: C_2  and  N_3
REMARK    3  A    between atoms: C_2  and  C_11
REMARK    4  A    between atoms: C_4  and  C_6
REMARK    5  A    between atoms: C_14  and  C_15
REMARK    6  A    between atoms: C_15  and  N_16
REMARK    7  A    between atoms: C_17  and  C_19
REMARK                            x       y       z     vdW  Elec       q    Type
REMARK                         _______ _______ _______ _____ _____    ______ ____
ROOT
ATOM      1  C   UNL     1      45.529   5.092  11.265  0.00  0.00    +0.000 A 
ATOM      2  C   UNL     1      46.139   6.291  10.861  0.00  0.00    +0.000 A 
ATOM      3  C   UNL     1      46.917   7.041  11.754  0.00  0.00    +0.000 A 
ATOM      4  C   UNL     1      47.113   6.602  13.069  0.00  0.00    +0.000 A 
ATOM      5  C   UNL     1      46.458   5.436  13.489  0.00  0.00    +0.000 A 
ATOM      6  C   UNL     1      45.681   4.689  12.599  0.00  0.00    +0.000 A 
ENDROOT
BRANCH   1   7
ATOM      7  C   UNL     1      44.759   4.261  10.257  0.00  0.00    +0.000 C 
BRANCH   7   8
ATOM      8  N   UNL     1      45.530   3.933   9.104  0.00  0.00    +0.000 N 
ATOM      9  C   UNL     1      45.602   2.642   8.637  0.00  0.00    +0.000 C 
ATOM     10  O   UNL     1      45.003   1.705   9.154  0.00  0.00    +0.000 OA
ATOM     11  H   UNL     1      46.225   4.589   8.799  0.00  0.00    +0.000 HD
BRANCH   9  12
ATOM     12  C   UNL     1      46.419   2.469   7.465  0.00  0.00    +0.000 A 
ATOM     13  C   UNL     1      46.551   3.176   6.285  0.00  0.00    +0.000 A 
ATOM     14  C   UNL     1      47.483   2.451   5.521  0.00  0.00    +0.000 A 
ATOM     15  N   UNL     1      47.928   1.369   6.159  0.00  0.00    +0.000 NA
ATOM     16  N   UNL     1      47.270   1.401   7.332  0.00  0.00    +0.000 N 
ATOM     17  H   UNL     1      47.434   0.662   8.010  0.00  0.00    +0.000 HD
ENDBRANCH   9  12
ENDBRANCH   7   8
BRANCH   7  18
ATOM     18  N   UNL     1      43.620   4.982   9.726  0.00  0.00    +0.000 NA
ATOM     19  H   UNL     1      43.747   5.077   8.723  0.00  0.00    +0.000 HD
ATOM     20  H   UNL     1      43.581   5.912  10.120  0.00  0.00    +0.000 HD
ENDBRANCH   7  18
ENDBRANCH   1   7
BRANCH   4  21
ATOM     21  C   UNL     1      48.007   7.345  14.032  0.00  0.00    +0.000 C 
BRANCH  21  22
ATOM     22  N   UNL     1      47.931   6.802  15.362  0.00  0.00    +0.000 N 
ATOM     23  C   UNL     1      49.054   6.394  16.037  0.00  0.00    +0.000 C 
ATOM     24  O   UNL     1      50.184   6.493  15.564  0.00  0.00    +0.000 OA
ATOM     25  H   UNL     1      47.035   6.415  15.639  0.00  0.00    +0.000 HD
BRANCH  23  26
ATOM     26  C   UNL     1      48.833   5.889  17.398  0.00  0.00    +0.000 A 
ATOM     27  C   UNL     1      49.093   4.565  17.707  0.00  0.00    +0.000 A 
ATOM     28  S   UNL     1      48.850   4.189  19.356  0.00  0.00    +0.000 S 
ATOM     29  C   UNL     1      48.330   5.771  19.695  0.00  0.00    +0.000 A 
ATOM     30  N   UNL     1      47.942   6.130  20.948  0.00  0.00    +0.000 NA
ATOM     31  C   UNL     1      47.545   7.355  21.054  0.00  0.00    +0.000 A 
ATOM     32  N   UNL     1      47.508   8.259  20.022  0.00  0.00    +0.000 N 
ATOM     33  C   UNL     1      47.917   7.950  18.750  0.00  0.00    +0.000 A 
ATOM     34  O   UNL     1      47.912   8.793  17.861  0.00  0.00    +0.000 OA
ATOM     35  C   UNL     1      48.362   6.580  18.574  0.00  0.00    +0.000 A 
ATOM     36  H   UNL     1      47.201   9.206  20.172  0.00  0.00    +0.000 HD
ENDBRANCH  23  26
ENDBRANCH  21  22
ENDBRANCH   4  21
TORSDOF 7
ENDMDL
MODEL 3
REMARK VINA RESULT:    -7.671      2.274      2.464
REMARK INTER + INTRA:         -11.792
REMARK INTER:                 -10.644
REMARK INTRA:                  -1.147
REMARK UNBOUND:                -1.206
REMARK  Name = 
REMARK  7 active torsions:
REMARK  status: ('A' for Active; 'I' for Inactive)
REMARK    1  A    between atoms: N_1  and  C_2
REMARK    2  A    between atoms: C_2  and  N_3
REMARK    3  A    between atoms: C_2  and  C_11
REMARK    4  A    between atoms: C_4  and  C_6
REMARK    5  A    between atoms: C_14  and  C_15
REMARK    6  A    between atoms: C_15  and  N_16
REMARK    7  A    between atoms: C_17  and  C_19
REMARK                            x       y       z     vdW  Elec       q    Type
REMARK                         _______ _______ _______ _____ _____    ______ ____
ROOT
ATOM      1  C   UNL     1      45.244   5.674  11.559  0.00  0.00    +0.000 A 
ATOM      2  C   UNL     1      44.927   7.030  11.371  0.00  0.00    +0.000 A 
ATOM      3  C   UNL     1      45.621   8.035  12.059  0.00  0.00    +0.000 A 
ATOM      4  C   UNL     1      46.657   7.707  12.942  0.00  0.00    +0.000 A 
ATOM      5  C   UNL     1      46.936   6.353  13.172  0.00  0.00    +0.000 A 
ATOM      6  C   UNL     1      46.243   5.351  12.487  0.00  0.00    +0.000 A 
ENDROOT
BRANCH   1   7
ATOM      7  C   UNL     1      44.531   4.614  10.742  0.00  0.00    +0.000 C 
BRANCH   7   8
ATOM      8  N   UNL     1      45.333   4.097   9.682  0.00  0.00    +0.000 N 
ATOM      9  C   UNL     1      45.048   2.885   9.100  0.00  0.00    +0.000 C 
ATOM     10  O   UNL     1      44.094   2.188   9.426  0.00  0.00    +0.000 OA
ATOM     11  H   UNL     1      46.248   4.487   9.550  0.00  0.00    +0.000 HD
BRANCH   9  12
ATOM     12  C   UNL     1      45.948   2.498   8.044  0.00  0.00    +0.000 A 
ATOM     13  C   UNL     1      46.431   3.145   6.922  0.00  0.00    +0.000 A 
ATOM     14  C   UNL     1      47.234   2.195   6.264  0.00  0.00    +0.000 A 
ATOM     15  N   UNL     1      47.276   1.032   6.914  0.00  0.00    +0.000 NA
ATOM     16  N   UNL     1      46.491   1.239   7.986  0.00  0.00    +0.000 N 
ATOM     17  H   UNL     1      46.352   0.483   8.650  0.00  0.00    +0.000 HD
ENDBRANCH   9  12
ENDBRANCH   7   8
BRANCH   7  18
ATOM     18  N   UNL     1      43.364   5.149  10.071  0.00  0.00    +0.000 NA
ATOM     19  H   UNL     1      43.613   5.337   9.105  0.00  0.00    +0.000 HD
ATOM     20  H   UNL     1      43.089   6.025  10.494  0.00  0.00    +0.000 HD
ENDBRANCH   7  18
ENDBRANCH   1   7
BRANCH   4  21
ATOM     21  C   UNL     1      47.475   8.767  13.640  0.00  0.00    +0.000 C 
BRANCH  21  22
ATOM     22  N   UNL     1      47.417   8.634  15.071  0.00  0.00    +0.000 N 
ATOM     23  C   UNL     1      48.252   9.347  15.894  0.00  0.00    +0.000 C 
ATOM     24  O   UNL     1      49.072  10.156  15.465  0.00  0.00    +0.000 OA
ATOM     25  H   UNL     1      47.007   7.777  15.426  0.00  0.00    +0.000 HD
BRANCH  23  26
ATOM     26  C   UNL     1      48.062   9.136  17.334  0.00  0.00    +0.000 A 
ATOM     27  C   UNL     1      47.766  10.201  18.168  0.00  0.00    +0.000 A 
ATOM     28  S   UNL     1      47.504   9.742  19.792  0.00  0.00    +0.000 S 
ATOM     29  C   UNL     1      47.839   8.113  19.443  0.00  0.00    +0.000 A 
ATOM     30  N   UNL     1      47.811   7.165  20.418  0.00  0.00    +0.000 NA
ATOM     31  C   UNL     1      48.113   5.975  20.015  0.00  0.00    +0.000 A 
ATOM     32  N   UNL     1      48.434   5.644  18.722  0.00  0.00    +0.000 N 
ATOM     33  C   UNL     1      48.446   6.560  17.702  0.00  0.00    +0.000 A 
ATOM     34  O   UNL     1      48.695   6.223  16.550  0.00  0.00    +0.000 OA
ATOM     35  C   UNL     1      48.125   7.917  18.104  0.00  0.00    +0.000 A 
ATOM     36  H   UNL     1      48.647   4.693  18.467  0.00  0.00    +0.000 HD
ENDBRANCH  23  26
ENDBRANCH  21  22
ENDBRANCH   4  21
TORSDOF 7
ENDMDL
MODEL 4
REMARK VINA RESULT:    -7.228      3.485      8.482
REMARK INTER + INTRA:         -11.181
REMARK INTER:                 -10.373
REMARK INTRA:                  -0.808
REMARK UNBOUND:                -1.206
REMARK  Name = 
REMARK  7 active torsions:
REMARK  status: ('A' for Active; 'I' for Inactive)
REMARK    1  A    between atoms: N_1  and  C_2
REMARK    2  A    between atoms: C_2  and  N_3
REMARK    3  A    between atoms: C_2  and  C_11
REMARK    4  A    between atoms: C_4  and  C_6
REMARK    5  A    between atoms: C_14  and  C_15
REMARK    6  A    between atoms: C_15  and  N_16
REMARK    7  A    between atoms: C_17  and  C_19
REMARK                            x       y       z     vdW  Elec       q    Type
REMARK                         _______ _______ _______ _____ _____    ______ ____
ROOT
ATOM      1  C   UNL     1      48.932   4.949  17.394  0.00  0.00    +0.000 A 
ATOM      2  C   UNL     1      47.824   4.541  16.632  0.00  0.00    +0.000 A 
ATOM      3  C   UNL     1      47.502   5.181  15.427  0.00  0.00    +0.000 A 
ATOM      4  C   UNL     1      48.289   6.236  14.950  0.00  0.00    +0.000 A 
ATOM      5  C   UNL     1      49.360   6.681  15.737  0.00  0.00    +0.000 A 
ATOM      6  C   UNL     1      49.681   6.044  16.939  0.00  0.00    +0.000 A 
ENDROOT
BRANCH   1   7
ATOM      7  C   UNL     1      49.303   4.188  18.651  0.00  0.00    +0.000 C 
BRANCH   7   8
ATOM      8  N   UNL     1      50.551   3.507  18.541  0.00  0.00    +0.000 N 
ATOM      9  C   UNL     1      50.748   2.529  17.595  0.00  0.00    +0.000 C 
ATOM     10  O   UNL     1      49.892   2.195  16.783  0.00  0.00    +0.000 OA
ATOM     11  H   UNL     1      51.183   3.554  19.318  0.00  0.00    +0.000 HD
BRANCH   9  12
ATOM     12  C   UNL     1      52.059   1.933  17.608  0.00  0.00    +0.000 A 
ATOM     13  C   UNL     1      53.329   2.437  17.815  0.00  0.00    +0.000 A 
ATOM     14  C   UNL     1      54.194   1.341  17.638  0.00  0.00    +0.000 A 
ATOM     15  N   UNL     1      53.536   0.218  17.351  0.00  0.00    +0.000 NA
ATOM     16  N   UNL     1      52.247   0.602  17.338  0.00  0.00    +0.000 N 
ATOM     17  H   UNL     1      51.529  -0.088  17.131  0.00  0.00    +0.000 HD
ENDBRANCH   9  12
ENDBRANCH   7   8
BRANCH   7  18
ATOM     18  N   UNL     1      48.352   3.135  18.941  0.00  0.00    +0.000 NA
ATOM     19  H   UNL     1      47.463   3.567  19.173  0.00  0.00    +0.000 HD
ATOM     20  H   UNL     1      48.654   2.603  19.745  0.00  0.00    +0.000 HD
ENDBRANCH   7  18
ENDBRANCH   1   7
BRANCH   4  21
ATOM     21  C   UNL     1      48.016   6.896  13.620  0.00  0.00    +0.000 C 
BRANCH  21  22
ATOM     22  N   UNL     1      47.296   6.027  12.728  0.00  0.00    +0.000 N 
ATOM     23  C   UNL     1      46.340   6.510  11.869  0.00  0.00    +0.000 C 
ATOM     24  O   UNL     1      46.064   7.705  11.790  0.00  0.00    +0.000 OA
ATOM     25  H   UNL     1      47.260   5.047  12.987  0.00  0.00    +0.000 HD
BRANCH  23  26
ATOM     26  C   UNL     1      45.708   5.515  10.994  0.00  0.00    +0.000 A 
ATOM     27  C   UNL     1      45.818   5.618   9.618  0.00  0.00    +0.000 A 
ATOM     28  S   UNL     1      45.083   4.326   8.776  0.00  0.00    +0.000 S 
ATOM     29  C   UNL     1      44.541   3.620  10.225  0.00  0.00    +0.000 A 
ATOM     30  N   UNL     1      43.811   2.473  10.217  0.00  0.00    +0.000 NA
ATOM     31  C   UNL     1      43.443   2.066  11.387  0.00  0.00    +0.000 A 
ATOM     32  N   UNL     1      43.746   2.699  12.567  0.00  0.00    +0.000 N 
ATOM     33  C   UNL     1      44.503   3.840  12.625  0.00  0.00    +0.000 A 
ATOM     34  O   UNL     1      44.792   4.356  13.698  0.00  0.00    +0.000 OA
ATOM     35  C   UNL     1      44.932   4.347  11.334  0.00  0.00    +0.000 A 
ATOM     36  H   UNL     1      43.441   2.323  13.451  0.00  0.00    +0.000 HD
ENDBRANCH  23  26
ENDBRANCH  21  22
ENDBRANCH   4  21
TORSDOF 7
ENDMDL
MODEL 5
REMARK VINA RESULT:    -6.943      2.158      2.786
REMARK INTER + INTRA:         -10.787
REMARK INTER:                  -9.688
REMARK INTRA:                  -1.100
REMARK UNBOUND:                -1.206
REMARK  Name = 
REMARK  7 active torsions:
REMARK  status: ('A' for Active; 'I' for Inactive)
REMARK    1  A    between atoms: N_1  and  C_2
REMARK    2  A    between atoms: C_2  and  N_3
REMARK    3  A    between atoms: C_2  and  C_11
REMARK    4  A    between atoms: C_4  and  C_6
REMARK    5  A    between atoms: C_14  and  C_15
REMARK    6  A    between atoms: C_15  and  N_16
REMARK    7  A    between atoms: C_17  and  C_19
REMARK                            x       y       z     vdW  Elec       q    Type
REMARK                         _______ _______ _______ _____ _____    ______ ____
ROOT
ATOM      1  C   UNL     1      45.912   6.128  12.652  0.00  0.00    +0.000 A 
ATOM      2  C   UNL     1      46.799   5.321  13.385  0.00  0.00    +0.000 A 
ATOM      3  C   UNL     1      47.765   5.892  14.226  0.00  0.00    +0.000 A 
ATOM      4  C   UNL     1      47.857   7.282  14.363  0.00  0.00    +0.000 A 
ATOM      5  C   UNL     1      47.011   8.088  13.589  0.00  0.00    +0.000 A 
ATOM      6  C   UNL     1      46.048   7.519  12.749  0.00  0.00    +0.000 A 
ENDROOT
BRANCH   1   7
ATOM      7  C   UNL     1      44.826   5.483  11.813  0.00  0.00    +0.000 C 
BRANCH   7   8
ATOM      8  N   UNL     1      45.343   4.758  10.699  0.00  0.00    +0.000 N 
ATOM      9  C   UNL     1      44.625   3.741  10.116  0.00  0.00    +0.000 C 
ATOM     10  O   UNL     1      43.505   3.407  10.488  0.00  0.00    +0.000 OA
ATOM     11  H   UNL     1      46.328   4.811  10.518  0.00  0.00    +0.000 HD
BRANCH   9  12
ATOM     12  C   UNL     1      45.279   3.103   9.002  0.00  0.00    +0.000 A 
ATOM     13  C   UNL     1      45.656   1.800   8.742  0.00  0.00    +0.000 A 
ATOM     14  C   UNL     1      46.304   1.845   7.494  0.00  0.00    +0.000 A 
ATOM     15  N   UNL     1      46.333   3.075   6.983  0.00  0.00    +0.000 NA
ATOM     16  N   UNL     1      45.707   3.819   7.913  0.00  0.00    +0.000 N 
ATOM     17  H   UNL     1      45.603   4.818   7.758  0.00  0.00    +0.000 HD
ENDBRANCH   9  12
ENDBRANCH   7   8
BRANCH   7  18
ATOM     18  N   UNL     1      43.952   6.471  11.214  0.00  0.00    +0.000 NA
ATOM     19  H   UNL     1      44.491   7.318  11.060  0.00  0.00    +0.000 HD
ATOM     20  H   UNL     1      43.198   6.699  11.847  0.00  0.00    +0.000 HD
ENDBRANCH   7  18
ENDBRANCH   1   7
BRANCH   4  21
ATOM     21  C   UNL     1      48.834   7.926  15.317  0.00  0.00    +0.000 C 
BRANCH  21  22
ATOM     22  N   UNL     1      49.823   6.992  15.783  0.00  0.00    +0.000 N 
ATOM     23  C   UNL     1      49.734   6.408  17.022  0.00  0.00    +0.000 C 
ATOM     24  O   UNL     1      48.798   6.623  17.789  0.00  0.00    +0.000 OA
ATOM     25  H   UNL     1      50.733   7.043  15.339  0.00  0.00    +0.000 HD
BRANCH  23  26
ATOM     26  C   UNL     1      50.796   5.451  17.355  0.00  0.00    +0.000 A 
ATOM     27  C   UNL     1      52.040   5.897  17.768  0.00  0.00    +0.000 A 
ATOM     28  S   UNL     1      53.113   4.636  18.184  0.00  0.00    +0.000 S 
ATOM     29  C   UNL     1      51.968   3.451  17.766  0.00  0.00    +0.000 A 
ATOM     30  N   UNL     1      52.259   2.126  17.867  0.00  0.00    +0.000 NA
ATOM     31  C   UNL     1      51.305   1.340  17.489  0.00  0.00    +0.000 A 
ATOM     32  N   UNL     1      50.083   1.758  17.025  0.00  0.00    +0.000 N 
ATOM     33  C   UNL     1      49.736   3.082  16.934  0.00  0.00    +0.000 A 
ATOM     34  O   UNL     1      48.620   3.420  16.557  0.00  0.00    +0.000 OA
ATOM     35  C   UNL     1      50.778   4.008  17.336  0.00  0.00    +0.000 A 
ATOM     36  H   UNL     1      49.374   1.094  16.759  0.00  0.00    +0.000 HD
ENDBRANCH  23  26
ENDBRANCH  21  22
ENDBRANCH   4  21
TORSDOF 7
ENDMDL
MODEL 6
REMARK VINA RESULT:    -6.906      3.364      5.538
REMARK INTER + INTRA:         -10.736
REMARK INTER:                  -9.841
REMARK INTRA:                  -0.894
REMARK UNBOUND:                -1.206
REMARK  Name = 
REMARK  7 active torsions:
REMARK  status: ('A' for Active; 'I' for Inactive)
REMARK    1  A    between atoms: N_1  and  C_2
REMARK    2  A    between atoms: C_2  and  N_3
REMARK    3  A    between atoms: C_2  and  C_11
REMARK    4  A    between atoms: C_4  and  C_6
REMARK    5  A    between atoms: C_14  and  C_15
REMARK    6  A    between atoms: C_15  and  N_16
REMARK    7  A    between atoms: C_17  and  C_19
REMARK                            x       y       z     vdW  Elec       q    Type
REMARK                         _______ _______ _______ _____ _____    ______ ____
ROOT
ATOM      1  C   UNL     1      47.652   5.879  14.434  0.00  0.00    +0.000 A 
ATOM      2  C   UNL     1      48.471   6.305  15.493  0.00  0.00    +0.000 A 
ATOM      3  C   UNL     1      48.635   5.515  16.640  0.00  0.00    +0.000 A 
ATOM      4  C   UNL     1      47.994   4.275  16.748  0.00  0.00    +0.000 A 
ATOM      5  C   UNL     1      47.132   3.877  15.717  0.00  0.00    +0.000 A 
ATOM      6  C   UNL     1      46.967   4.664  14.574  0.00  0.00    +0.000 A 
ENDROOT
BRANCH   1   7
ATOM      7  C   UNL     1      47.555   6.716  13.173  0.00  0.00    +0.000 C 
BRANCH   7   8
ATOM      8  N   UNL     1      46.996   6.001  12.074  0.00  0.00    +0.000 N 
ATOM      9  C   UNL     1      45.706   6.230  11.657  0.00  0.00    +0.000 C 
ATOM     10  O   UNL     1      44.968   7.062  12.174  0.00  0.00    +0.000 OA
ATOM     11  H   UNL     1      47.447   5.154  11.784  0.00  0.00    +0.000 HD
BRANCH   9  12
ATOM     12  C   UNL     1      45.283   5.431  10.535  0.00  0.00    +0.000 A 
ATOM     13  C   UNL     1      44.302   4.473  10.368  0.00  0.00    +0.000 A 
ATOM     14  C   UNL     1      44.441   4.031   9.039  0.00  0.00    +0.000 A 
ATOM     15  N   UNL     1      45.424   4.660   8.396  0.00  0.00    +0.000 NA
ATOM     16  N   UNL     1      45.919   5.502   9.322  0.00  0.00    +0.000 N 
ATOM     17  H   UNL     1      46.700   6.103   9.075  0.00  0.00    +0.000 HD
ENDBRANCH   9  12
ENDBRANCH   7   8
BRANCH   7  18
ATOM     18  N   UNL     1      48.862   7.124  12.699  0.00  0.00    +0.000 NA
ATOM     19  H   UNL     1      48.789   7.324  11.706  0.00  0.00    +0.000 HD
ATOM     20  H   UNL     1      49.525   6.370  12.812  0.00  0.00    +0.000 HD
ENDBRANCH   7  18
ENDBRANCH   1   7
BRANCH   4  21
ATOM     21  C   UNL     1      48.210   3.367  17.934  0.00  0.00    +0.000 C 
BRANCH  21  22
ATOM     22  N   UNL     1      49.601   3.056  18.125  0.00  0.00    +0.000 N 
ATOM     23  C   UNL     1      50.280   2.237  17.258  0.00  0.00    +0.000 C 
ATOM     24  O   UNL     1      49.755   1.748  16.260  0.00  0.00    +0.000 OA
ATOM     25  H   UNL     1      49.960   3.164  19.067  0.00  0.00    +0.000 HD
BRANCH  23  26
ATOM     26  C   UNL     1      51.703   2.030  17.557  0.00  0.00    +0.000 A 
ATOM     27  C   UNL     1      52.209   0.751  17.713  0.00  0.00    +0.000 A 
ATOM     28  S   UNL     1      53.897   0.714  17.978  0.00  0.00    +0.000 S 
ATOM     29  C   UNL     1      53.992   2.411  17.953  0.00  0.00    +0.000 A 
ATOM     30  N   UNL     1      55.177   3.051  18.143  0.00  0.00    +0.000 NA
ATOM     31  C   UNL     1      55.096   4.340  18.126  0.00  0.00    +0.000 A 
ATOM     32  N   UNL     1      53.938   5.050  17.929  0.00  0.00    +0.000 N 
ATOM     33  C   UNL     1      52.727   4.448  17.704  0.00  0.00    +0.000 A 
ATOM     34  O   UNL     1      51.719   5.111  17.488  0.00  0.00    +0.000 OA
ATOM     35  C   UNL     1      52.761   2.997  17.725  0.00  0.00    +0.000 A 
ATOM     36  H   UNL     1      53.943   6.058  17.913  0.00  0.00    +0.000 HD
ENDBRANCH  23  26
ENDBRANCH  21  22
ENDBRANCH   4  21
TORSDOF 7
ENDMDL
MODEL 7
REMARK VINA RESULT:    -6.649      4.719      7.408
REMARK INTER + INTRA:         -10.382
REMARK INTER:                  -9.273
REMARK INTRA:                  -1.109
REMARK UNBOUND:                -1.206
REMARK  Name = 
REMARK  7 active torsions:
REMARK  status: ('A' for Active; 'I' for Inactive)
REMARK    1  A    between atoms: N_1  and  C_2
REMARK    2  A    between atoms: C_2  and  N_3
REMARK    3  A    between atoms: C_2  and  C_11
REMARK    4  A    between atoms: C_4  and  C_6
REMARK    5  A    between atoms: C_14  and  C_15
REMARK    6  A    between atoms: C_15  and  N_16
REMARK    7  A    between atoms: C_17  and  C_19
REMARK                            x       y       z     vdW  Elec       q    Type
REMARK                         _______ _______ _______ _____ _____    ______ ____
ROOT
ATOM      1  C   UNL     1      50.537   8.649  11.394  0.00  0.00    +0.000 A 
ATOM      2  C   UNL     1      50.067   7.384  11.788  0.00  0.00    +0.000 A 
ATOM      3  C   UNL     1      48.778   7.227  12.317  0.00  0.00    +0.000 A 
ATOM      4  C   UNL     1      47.925   8.329  12.453  0.00  0.00    +0.000 A 
ATOM      5  C   UNL     1      48.414   9.598  12.113  0.00  0.00    +0.000 A 
ATOM      6  C   UNL     1      49.699   9.755  11.587  0.00  0.00    +0.000 A 
ENDROOT
BRANCH   1   7
ATOM      7  C   UNL     1      51.904   8.777  10.752  0.00  0.00    +0.000 C 
BRANCH   7   8
ATOM      8  N   UNL     1      52.244   7.655   9.940  0.00  0.00    +0.000 N 
ATOM      9  C   UNL     1      53.236   7.735   8.993  0.00  0.00    +0.000 C 
ATOM     10  O   UNL     1      53.901   8.747   8.797  0.00  0.00    +0.000 OA
ATOM     11  H   UNL     1      51.584   6.902   9.878  0.00  0.00    +0.000 HD
BRANCH   9  12
ATOM     12  C   UNL     1      53.463   6.520   8.253  0.00  0.00    +0.000 A 
ATOM     13  C   UNL     1      54.425   5.531   8.323  0.00  0.00    +0.000 A 
ATOM     14  C   UNL     1      54.115   4.639   7.280  0.00  0.00    +0.000 A 
ATOM     15  N   UNL     1      53.034   5.015   6.598  0.00  0.00    +0.000 NA
ATOM     16  N   UNL     1      52.657   6.155   7.204  0.00  0.00    +0.000 N 
ATOM     17  H   UNL     1      51.841   6.652   6.858  0.00  0.00    +0.000 HD
ENDBRANCH   9  12
ENDBRANCH   7   8
BRANCH   7  18
ATOM     18  N   UNL     1      52.960   8.827  11.742  0.00  0.00    +0.000 NA
ATOM     19  H   UNL     1      52.914   7.977  12.296  0.00  0.00    +0.000 HD
ATOM     20  H   UNL     1      52.815   9.608  12.367  0.00  0.00    +0.000 HD
ENDBRANCH   7  18
ENDBRANCH   1   7
BRANCH   4  21
ATOM     21  C   UNL     1      46.506   8.183  12.947  0.00  0.00    +0.000 C 
BRANCH  21  22
ATOM     22  N   UNL     1      45.976   6.873  12.675  0.00  0.00    +0.000 N 
ATOM     23  C   UNL     1      44.981   6.678  11.751  0.00  0.00    +0.000 C 
ATOM     24  O   UNL     1      44.506   7.596  11.085  0.00  0.00    +0.000 OA
ATOM     25  H   UNL     1      46.101   6.179  13.403  0.00  0.00    +0.000 HD
BRANCH  23  26
ATOM     26  C   UNL     1      44.557   5.286  11.554  0.00  0.00    +0.000 A 
ATOM     27  C   UNL     1      43.840   4.624  12.535  0.00  0.00    +0.000 A 
ATOM     28  S   UNL     1      43.372   3.043  12.089  0.00  0.00    +0.000 S 
ATOM     29  C   UNL     1      44.167   3.173  10.592  0.00  0.00    +0.000 A 
ATOM     30  N   UNL     1      44.175   2.139   9.709  0.00  0.00    +0.000 NA
ATOM     31  C   UNL     1      44.840   2.368   8.624  0.00  0.00    +0.000 A 
ATOM     32  N   UNL     1      45.492   3.541   8.339  0.00  0.00    +0.000 N 
ATOM     33  C   UNL     1      45.486   4.620   9.185  0.00  0.00    +0.000 A 
ATOM     34  O   UNL     1      46.041   5.669   8.880  0.00  0.00    +0.000 OA
ATOM     35  C   UNL     1      44.761   4.410  10.425  0.00  0.00    +0.000 A 
ATOM     36  H   UNL     1      45.983   3.664   7.467  0.00  0.00    +0.000 HD
ENDBRANCH  23  26
ENDBRANCH  21  22
ENDBRANCH   4  21
TORSDOF 7
ENDMDL
MODEL 8
REMARK VINA RESULT:    -6.645      2.007      2.753
REMARK INTER + INTRA:         -10.376
REMARK INTER:                  -9.535
REMARK INTRA:                  -0.842
REMARK UNBOUND:                -1.206
REMARK  Name = 
REMARK  7 active torsions:
REMARK  status: ('A' for Active; 'I' for Inactive)
REMARK    1  A    between atoms: N_1  and  C_2
REMARK    2  A    between atoms: C_2  and  N_3
REMARK    3  A    between atoms: C_2  and  C_11
REMARK    4  A    between atoms: C_4  and  C_6
REMARK    5  A    between atoms: C_14  and  C_15
REMARK    6  A    between atoms: C_15  and  N_16
REMARK    7  A    between atoms: C_17  and  C_19
REMARK                            x       y       z     vdW  Elec       q    Type
REMARK                         _______ _______ _______ _____ _____    ______ ____
ROOT
ATOM      1  C   UNL     1      45.495   6.996  12.550  0.00  0.00    +0.000 A 
ATOM      2  C   UNL     1      45.670   8.373  12.763  0.00  0.00    +0.000 A 
ATOM      3  C   UNL     1      46.800   8.862  13.434  0.00  0.00    +0.000 A 
ATOM      4  C   UNL     1      47.788   7.983  13.895  0.00  0.00    +0.000 A 
ATOM      5  C   UNL     1      47.587   6.606  13.733  0.00  0.00    +0.000 A 
ATOM      6  C   UNL     1      46.459   6.119  13.066  0.00  0.00    +0.000 A 
ENDROOT
BRANCH   1   7
ATOM      7  C   UNL     1      44.303   6.503  11.753  0.00  0.00    +0.000 C 
BRANCH   7   8
ATOM      8  N   UNL     1      44.673   5.653  10.669  0.00  0.00    +0.000 N 
ATOM      9  C   UNL     1      44.606   4.285  10.781  0.00  0.00    +0.000 C 
ATOM     10  O   UNL     1      44.211   3.710  11.790  0.00  0.00    +0.000 OA
ATOM     11  H   UNL     1      45.230   6.045   9.932  0.00  0.00    +0.000 HD
BRANCH   9  12
ATOM     12  C   UNL     1      45.013   3.562   9.604  0.00  0.00    +0.000 A 
ATOM     13  C   UNL     1      45.267   3.939   8.299  0.00  0.00    +0.000 A 
ATOM     14  C   UNL     1      45.571   2.744   7.622  0.00  0.00    +0.000 A 
ATOM     15  N   UNL     1      45.529   1.682   8.426  0.00  0.00    +0.000 NA
ATOM     16  N   UNL     1      45.188   2.202   9.619  0.00  0.00    +0.000 N 
ATOM     17  H   UNL     1      45.082   1.581  10.416  0.00  0.00    +0.000 HD
ENDBRANCH   9  12
ENDBRANCH   7   8
BRANCH   7  18
ATOM     18  N   UNL     1      43.594   7.595  11.117  0.00  0.00    +0.000 NA
ATOM     19  H   UNL     1      43.249   7.268  10.220  0.00  0.00    +0.000 HD
ATOM     20  H   UNL     1      44.224   8.365  10.942  0.00  0.00    +0.000 HD
ENDBRANCH   7  18
ENDBRANCH   1   7
BRANCH   4  21
ATOM     21  C   UNL     1      49.053   8.480  14.552  0.00  0.00    +0.000 C 
BRANCH  21  22
ATOM     22  N   UNL     1      49.062   8.219  15.966  0.00  0.00    +0.000 N 
ATOM     23  C   UNL     1      49.879   7.263  16.516  0.00  0.00    +0.000 C 
ATOM     24  O   UNL     1      50.665   6.599  15.845  0.00  0.00    +0.000 OA
ATOM     25  H   UNL     1      48.233   8.498  16.479  0.00  0.00    +0.000 HD
BRANCH  23  26
ATOM     26  C   UNL     1      49.807   7.125  17.976  0.00  0.00    +0.000 A 
ATOM     27  C   UNL     1      50.199   8.166  18.801  0.00  0.00    +0.000 A 
ATOM     28  S   UNL     1      49.967   7.844  20.462  0.00  0.00    +0.000 S 
ATOM     29  C   UNL     1      49.391   6.279  20.133  0.00  0.00    +0.000 A 
ATOM     30  N   UNL     1      49.026   5.439  21.139  0.00  0.00    +0.000 NA
ATOM     31  C   UNL     1      48.635   4.272  20.744  0.00  0.00    +0.000 A 
ATOM     32  N   UNL     1      48.568   3.870  19.434  0.00  0.00    +0.000 N 
ATOM     33  C   UNL     1      48.898   4.692  18.387  0.00  0.00    +0.000 A 
ATOM     34  O   UNL     1      48.785   4.316  17.226  0.00  0.00    +0.000 OA
ATOM     35  C   UNL     1      49.356   6.012  18.777  0.00  0.00    +0.000 A 
ATOM     36  H   UNL     1      48.240   2.949  19.189  0.00  0.00    +0.000 HD
ENDBRANCH  23  26
ENDBRANCH  21  22
ENDBRANCH   4  21
TORSDOF 7
ENDMDL
MODEL 9
REMARK VINA RESULT:    -6.053      4.299      5.854
REMARK INTER + INTRA:          -9.559
REMARK INTER:                  -8.240
REMARK INTRA:                  -1.319
REMARK UNBOUND:                -1.206
REMARK  Name = 
REMARK  7 active torsions:
REMARK  status: ('A' for Active; 'I' for Inactive)
REMARK    1  A    between atoms: N_1  and  C_2
REMARK    2  A    between atoms: C_2  and  N_3
REMARK    3  A    between atoms: C_2  and  C_11
REMARK    4  A    between atoms: C_4  and  C_6
REMARK    5  A    between atoms: C_14  and  C_15
REMARK    6  A    between atoms: C_15  and  N_16
REMARK    7  A    between atoms: C_17  and  C_19
REMARK                            x       y       z     vdW  Elec       q    Type
REMARK                         _______ _______ _______ _____ _____    ______ ____
ROOT
ATOM      1  C   UNL     1      46.204   7.206  12.673  0.00  0.00    +0.000 A 
ATOM      2  C   UNL     1      47.277   6.300  12.712  0.00  0.00    +0.000 A 
ATOM      3  C   UNL     1      48.481   6.634  13.347  0.00  0.00    +0.000 A 
ATOM      4  C   UNL     1      48.634   7.879  13.970  0.00  0.00    +0.000 A 
ATOM      5  C   UNL     1      47.586   8.805  13.882  0.00  0.00    +0.000 A 
ATOM      6  C   UNL     1      46.385   8.472  13.247  0.00  0.00    +0.000 A 
ENDROOT
BRANCH   1   7
ATOM      7  C   UNL     1      44.887   6.788  12.049  0.00  0.00    +0.000 C 
BRANCH   7   8
ATOM      8  N   UNL     1      45.033   5.739  11.094  0.00  0.00    +0.000 N 
ATOM      9  C   UNL     1      44.016   4.846  10.855  0.00  0.00    +0.000 C 
ATOM     10  O   UNL     1      42.927   4.899  11.416  0.00  0.00    +0.000 OA
ATOM     11  H   UNL     1      45.961   5.495  10.801  0.00  0.00    +0.000 HD
BRANCH   9  12
ATOM     12  C   UNL     1      44.314   3.843   9.864  0.00  0.00    +0.000 A 
ATOM     13  C   UNL     1      44.640   3.901   8.523  0.00  0.00    +0.000 A 
ATOM     14  C   UNL     1      44.756   2.561   8.112  0.00  0.00    +0.000 A 
ATOM     15  N   UNL     1      44.534   1.705   9.110  0.00  0.00    +0.000 NA
ATOM     16  N   UNL     1      44.269   2.504  10.159  0.00  0.00    +0.000 N 
ATOM     17  H   UNL     1      44.055   2.083  11.059  0.00  0.00    +0.000 HD
ENDBRANCH   9  12
ENDBRANCH   7   8
BRANCH   7  18
ATOM     18  N   UNL     1      44.283   7.867  11.295  0.00  0.00    +0.000 NA
ATOM     19  H   UNL     1      43.978   8.579  11.952  0.00  0.00    +0.000 HD
ATOM     20  H   UNL     1      43.467   7.535  10.802  0.00  0.00    +0.000 HD
ENDBRANCH   7  18
ENDBRANCH   1   7
BRANCH   4  21
ATOM     21  C   UNL     1      49.888   8.242  14.728  0.00  0.00    +0.000 C 
BRANCH  21  22
ATOM     22  N   UNL     1      51.061   8.154  13.899  0.00  0.00    +0.000 N 
ATOM     23  C   UNL     1      51.587   9.258  13.277  0.00  0.00    +0.000 C 
ATOM     24  O   UNL     1      51.110  10.383  13.410  0.00  0.00    +0.000 OA
ATOM     25  H   UNL     1      51.273   7.238  13.517  0.00  0.00    +0.000 HD
BRANCH  23  26
ATOM     26  C   UNL     1      52.803   9.028  12.488  0.00  0.00    +0.000 A 
ATOM     27  C   UNL     1      54.006   9.597  12.868  0.00  0.00    +0.000 A 
ATOM     28  S   UNL     1      55.318   9.149  11.870  0.00  0.00    +0.000 S 
ATOM     29  C   UNL     1      54.306   8.227  10.862  0.00  0.00    +0.000 A 
ATOM     30  N   UNL     1      54.801   7.576   9.776  0.00  0.00    +0.000 NA
ATOM     31  C   UNL     1      53.915   6.939   9.085  0.00  0.00    +0.000 A 
ATOM     32  N   UNL     1      52.577   6.886   9.386  0.00  0.00    +0.000 N 
ATOM     33  C   UNL     1      52.038   7.502  10.487  0.00  0.00    +0.000 A 
ATOM     34  O   UNL     1      50.846   7.399  10.751  0.00  0.00    +0.000 OA
ATOM     35  C   UNL     1      52.992   8.243  11.291  0.00  0.00    +0.000 A 
ATOM     36  H   UNL     1      51.936   6.358   8.815  0.00  0.00    +0.000 HD
ENDBRANCH  23  26
ENDBRANCH  21  22
ENDBRANCH   4  21
TORSDOF 7
ENDMDL
