MODEL 1
REMARK VINA RESULT:    -8.037      0.000      0.000
REMARK INTER + INTRA:         -12.730
REMARK INTER:                 -11.560
REMARK INTRA:                  -1.169
REMARK UNBOUND:                -1.169
REMARK  Name = 
REMARK  8 active torsions:
REMARK  status: ('A' for Active; 'I' for Inactive)
REMARK    1  A    between atoms: N_1  and  C_2
REMARK    2  A    between atoms: C_2  and  C_3
REMARK    3  A    between atoms: C_3  and  N_4
REMARK    4  A    between atoms: C_3  and  C_17
REMARK    5  A    between atoms: C_5  and  C_7
REMARK    6  A    between atoms: C_20  and  O_21
REMARK    7  A    between atoms: O_21  and  C_22
REMARK    8  A    between atoms: C_22  and  C_23
REMARK                            x       y       z     vdW  Elec       q    Type
REMARK                         _______ _______ _______ _____ _____    ______ ____
ROOT
ATOM      1  C   UNL     1      47.906   6.830  13.656  0.00  0.00    +0.000 C 
ENDROOT
BRANCH   1   2
ATOM      2  C   UNL     1      46.897   5.983  12.883  0.00  0.00    +0.000 A 
ATOM      3  C   UNL     1      46.264   6.480  11.736  0.00  0.00    +0.000 A 
ATOM      4  C   UNL     1      45.343   5.691  11.037  0.00  0.00    +0.000 A 
ATOM      5  C   UNL     1      45.057   4.393  11.466  0.00  0.00    +0.000 A 
ATOM      6  C   UNL     1      45.650   3.908  12.629  0.00  0.00    +0.000 A 
ATOM      7  C   UNL     1      46.577   4.687  13.319  0.00  0.00    +0.000 A 
BRANCH   5   8
ATOM      8  O   UNL     1      44.186   3.683  10.680  0.00  0.00    +0.000 OA
BRANCH   8   9
ATOM      9  C   UNL     1      44.192   4.056   9.296  0.00  0.00    +0.000 C 
BRANCH   9  10
ATOM     10  C   UNL     1      45.231   3.286   8.514  0.00  0.00    +0.000 A 
ATOM     11  C   UNL     1      45.468   1.935   8.757  0.00  0.00    +0.000 A 
ATOM     12  C   UNL     1      46.454   1.285   8.022  0.00  0.00    +0.000 A 
ATOM     13  C   UNL     1      47.184   1.999   7.077  0.00  0.00    +0.000 A 
ATOM     14  C   UNL     1      46.901   3.341   6.909  0.00  0.00    +0.000 A 
ATOM     15  N   UNL     1      45.951   3.999   7.607  0.00  0.00    +0.000 NA
ENDBRANCH   9  10
ENDBRANCH   8   9
ENDBRANCH   5   8
ENDBRANCH   1   2
BRANCH   1  16
ATOM     16  N   UNL     1      47.880   6.405  15.052  0.00  0.00    +0.000 N 
ATOM     17  C   UNL     1      49.014   6.269  15.811  0.00  0.00    +0.000 C 
ATOM     18  O   UNL     1      50.116   6.652  15.434  0.00  0.00    +0.000 OA
ATOM     19  H   UNL     1      47.071   5.849  15.317  0.00  0.00    +0.000 HD
BRANCH  17  20
ATOM     20  C   UNL     1      48.842   5.675  17.140  0.00  0.00    +0.000 A 
ATOM     21  C   UNL     1      49.076   4.320  17.330  0.00  0.00    +0.000 A 
ATOM     22  S   UNL     1      48.758   3.789  18.919  0.00  0.00    +0.000 S 
ATOM     23  C   UNL     1      48.259   5.344  19.396  0.00  0.00    +0.000 A 
ATOM     24  N   UNL     1      47.781   5.576  20.649  0.00  0.00    +0.000 NA
ATOM     25  C   UNL     1      47.404   6.793  20.858  0.00  0.00    +0.000 A 
ATOM     26  N   UNL     1      47.487   7.807  19.935  0.00  0.00    +0.000 N 
ATOM     27  C   UNL     1      48.018   7.631  18.684  0.00  0.00    +0.000 A 
ATOM     28  O   UNL     1      48.182   8.577  17.919  0.00  0.00    +0.000 OA
ATOM     29  C   UNL     1      48.393   6.266  18.375  0.00  0.00    +0.000 A 
ATOM     30  H   UNL     1      47.214   8.747  20.180  0.00  0.00    +0.000 HD
ENDBRANCH  17  20
ENDBRANCH   1  16
BRANCH   1  31
ATOM     31  C   UNL     1      47.605   8.351  13.466  0.00  0.00    +0.000 C 
BRANCH  31  32
ATOM     32  N   UNL     1      47.147   9.033  14.687  0.00  0.00    +0.000 NA
ATOM     33  H   UNL     1      47.359   8.442  15.489  0.00  0.00    +0.000 HD
ATOM     34  H   UNL     1      46.132   9.128  14.663  0.00  0.00    +0.000 HD
ENDBRANCH  31  32
ENDBRANCH   1  31
TORSDOF 8
ENDMDL
MODEL 2
REMARK VINA RESULT:    -7.602      1.576      2.214
REMARK INTER + INTRA:         -12.105
REMARK INTER:                 -10.996
REMARK INTRA:                  -1.109
REMARK UNBOUND:                -1.169
REMARK  Name = 
REMARK  8 active torsions:
REMARK  status: ('A' for Active; 'I' for Inactive)
REMARK    1  A    between atoms: N_1  and  C_2
REMARK    2  A    between atoms: C_2  and  C_3
REMARK    3  A    between atoms: C_3  and  N_4
REMARK    4  A    between atoms: C_3  and  C_17
REMARK    5  A    between atoms: C_5  and  C_7
REMARK    6  A    between atoms: C_20  and  O_21
REMARK    7  A    between atoms: O_21  and  C_22
REMARK    8  A    between atoms: C_22  and  C_23
REMARK                            x       y       z     vdW  Elec       q    Type
REMARK                         _______ _______ _______ _____ _____    ______ ____
ROOT
ATOM      1  C   UNL     1      48.571   6.704  13.378  0.00  0.00    +0.000 C 
ENDROOT
BRANCH   1   2
ATOM      2  C   UNL     1      47.345   6.104  12.694  0.00  0.00    +0.000 A 
ATOM      3  C   UNL     1      46.801   6.688  11.543  0.00  0.00    +0.000 A 
ATOM      4  C   UNL     1      45.678   6.126  10.925  0.00  0.00    +0.000 A 
ATOM      5  C   UNL     1      45.096   4.967  11.441  0.00  0.00    +0.000 A 
ATOM      6  C   UNL     1      45.605   4.404  12.609  0.00  0.00    +0.000 A 
ATOM      7  C   UNL     1      46.731   4.955  13.217  0.00  0.00    +0.000 A 
BRANCH   5   8
ATOM      8  O   UNL     1      44.037   4.463  10.731  0.00  0.00    +0.000 OA
BRANCH   8   9
ATOM      9  C   UNL     1      44.161   3.079  10.374  0.00  0.00    +0.000 C 
BRANCH   9  10
ATOM     10  C   UNL     1      45.062   2.890   9.176  0.00  0.00    +0.000 A 
ATOM     11  C   UNL     1      45.244   3.902   8.238  0.00  0.00    +0.000 A 
ATOM     12  C   UNL     1      46.067   3.662   7.142  0.00  0.00    +0.000 A 
ATOM     13  C   UNL     1      46.674   2.418   7.004  0.00  0.00    +0.000 A 
ATOM     14  C   UNL     1      46.428   1.459   7.969  0.00  0.00    +0.000 A 
ATOM     15  N   UNL     1      45.634   1.664   9.042  0.00  0.00    +0.000 NA
ENDBRANCH   9  10
ENDBRANCH   8   9
ENDBRANCH   5   8
ENDBRANCH   1   2
BRANCH   1  16
ATOM     16  N   UNL     1      48.270   6.855  14.799  0.00  0.00    +0.000 N 
ATOM     17  C   UNL     1      49.223   6.747  15.778  0.00  0.00    +0.000 C 
ATOM     18  O   UNL     1      50.424   6.684  15.534  0.00  0.00    +0.000 OA
ATOM     19  H   UNL     1      47.308   6.651  15.057  0.00  0.00    +0.000 HD
BRANCH  17  20
ATOM     20  C   UNL     1      48.741   6.756  17.162  0.00  0.00    +0.000 A 
ATOM     21  C   UNL     1      48.245   7.927  17.717  0.00  0.00    +0.000 A 
ATOM     22  S   UNL     1      47.797   7.770  19.355  0.00  0.00    +0.000 S 
ATOM     23  C   UNL     1      48.288   6.140  19.388  0.00  0.00    +0.000 A 
ATOM     24  N   UNL     1      48.238   5.415  20.538  0.00  0.00    +0.000 NA
ATOM     25  C   UNL     1      48.677   4.205  20.424  0.00  0.00    +0.000 A 
ATOM     26  N   UNL     1      49.137   3.647  19.256  0.00  0.00    +0.000 N 
ATOM     27  C   UNL     1      49.146   4.323  18.063  0.00  0.00    +0.000 A 
ATOM     28  O   UNL     1      49.458   3.767  17.014  0.00  0.00    +0.000 OA
ATOM     29  C   UNL     1      48.728   5.708  18.151  0.00  0.00    +0.000 A 
ATOM     30  H   UNL     1      49.425   2.681  19.227  0.00  0.00    +0.000 HD
ENDBRANCH  17  20
ENDBRANCH   1  16
BRANCH   1  31
ATOM     31  C   UNL     1      48.985   8.043  12.687  0.00  0.00    +0.000 C 
BRANCH  31  32
ATOM     32  N   UNL     1      50.376   8.450  12.940  0.00  0.00    +0.000 NA
ATOM     33  H   UNL     1      50.844   7.706  13.456  0.00  0.00    +0.000 HD
ATOM     34  H   UNL     1      50.386   9.269  13.548  0.00  0.00    +0.000 HD
ENDBRANCH  31  32
ENDBRANCH   1  31
TORSDOF 8
ENDMDL
MODEL 3
REMARK VINA RESULT:    -7.586      2.850      4.903
REMARK INTER + INTRA:         -12.081
REMARK INTER:                 -10.685
REMARK INTRA:                  -1.396
REMARK UNBOUND:                -1.169
REMARK  Name = 
REMARK  8 active torsions:
REMARK  status: ('A' for Active; 'I' for Inactive)
REMARK    1  A    between atoms: N_1  and  C_2
REMARK    2  A    between atoms: C_2  and  C_3
REMARK    3  A    between atoms: C_3  and  N_4
REMARK    4  A    between atoms: C_3  and  C_17
REMARK    5  A    between atoms: C_5  and  C_7
REMARK    6  A    between atoms: C_20  and  O_21
REMARK    7  A    between atoms: O_21  and  C_22
REMARK    8  A    between atoms: C_22  and  C_23
REMARK                            x       y       z     vdW  Elec       q    Type
REMARK                         _______ _______ _______ _____ _____    ______ ____
ROOT
ATOM      1  C   UNL     1      46.975   5.568  14.407  0.00  0.00    +0.000 C 
ENDROOT
BRANCH   1   2
ATOM      2  C   UNL     1      46.246   5.080  13.157  0.00  0.00    +0.000 A 
ATOM      3  C   UNL     1      45.843   3.745  13.030  0.00  0.00    +0.000 A 
ATOM      4  C   UNL     1      45.174   3.313  11.879  0.00  0.00    +0.000 A 
ATOM      5  C   UNL     1      44.886   4.213  10.851  0.00  0.00    +0.000 A 
ATOM      6  C   UNL     1      45.320   5.532  10.951  0.00  0.00    +0.000 A 
ATOM      7  C   UNL     1      45.975   5.968  12.102  0.00  0.00    +0.000 A 
BRANCH   5   8
ATOM      8  O   UNL     1      44.176   3.705   9.794  0.00  0.00    +0.000 OA
BRANCH   8   9
ATOM      9  C   UNL     1      44.503   2.351   9.450  0.00  0.00    +0.000 C 
BRANCH   9  10
ATOM     10  C   UNL     1      45.568   2.289   8.380  0.00  0.00    +0.000 A 
ATOM     11  C   UNL     1      45.798   3.360   7.521  0.00  0.00    +0.000 A 
ATOM     12  C   UNL     1      46.776   3.235   6.540  0.00  0.00    +0.000 A 
ATOM     13  C   UNL     1      47.487   2.044   6.433  0.00  0.00    +0.000 A 
ATOM     14  C   UNL     1      47.186   1.021   7.312  0.00  0.00    +0.000 A 
ATOM     15  N   UNL     1      46.243   1.113   8.273  0.00  0.00    +0.000 NA
ENDBRANCH   9  10
ENDBRANCH   8   9
ENDBRANCH   5   8
ENDBRANCH   1   2
BRANCH   1  16
ATOM     16  N   UNL     1      48.199   6.242  13.985  0.00  0.00    +0.000 N 
ATOM     17  C   UNL     1      48.803   7.225  14.726  0.00  0.00    +0.000 C 
ATOM     18  O   UNL     1      48.463   7.496  15.873  0.00  0.00    +0.000 OA
ATOM     19  H   UNL     1      48.362   6.247  12.981  0.00  0.00    +0.000 HD
BRANCH  17  20
ATOM     20  C   UNL     1      49.927   7.921  14.095  0.00  0.00    +0.000 A 
ATOM     21  C   UNL     1      51.203   7.812  14.631  0.00  0.00    +0.000 A 
ATOM     22  S   UNL     1      52.370   8.745  13.811  0.00  0.00    +0.000 S 
ATOM     23  C   UNL     1      51.203   9.358  12.735  0.00  0.00    +0.000 A 
ATOM     24  N   UNL     1      51.531  10.288  11.797  0.00  0.00    +0.000 NA
ATOM     25  C   UNL     1      50.537  10.690  11.076  0.00  0.00    +0.000 A 
ATOM     26  N   UNL     1      49.249  10.226  11.191  0.00  0.00    +0.000 N 
ATOM     27  C   UNL     1      48.889   9.246  12.079  0.00  0.00    +0.000 A 
ATOM     28  O   UNL     1      47.757   8.772  12.086  0.00  0.00    +0.000 OA
ATOM     29  C   UNL     1      49.954   8.810  12.960  0.00  0.00    +0.000 A 
ATOM     30  H   UNL     1      48.529  10.552  10.565  0.00  0.00    +0.000 HD
ENDBRANCH  17  20
ENDBRANCH   1  16
BRANCH   1  31
ATOM     31  C   UNL     1      47.230   4.382  15.391  0.00  0.00    +0.000 C 
BRANCH  31  32
ATOM     32  N   UNL     1      47.262   4.770  16.810  0.00  0.00    +0.000 NA
ATOM     33  H   UNL     1      48.132   4.434  17.220  0.00  0.00    +0.000 HD
ATOM     34  H   UNL     1      46.510   4.294  17.309  0.00  0.00    +0.000 HD
ENDBRANCH  31  32
ENDBRANCH   1  31
TORSDOF 8
ENDMDL
MODEL 4
REMARK VINA RESULT:    -7.199      3.241      4.892
REMARK INTER + INTRA:         -11.525
REMARK INTER:                 -10.359
REMARK INTRA:                  -1.167
REMARK UNBOUND:                -1.169
REMARK  Name = 
REMARK  8 active torsions:
REMARK  status: ('A' for Active; 'I' for Inactive)
REMARK    1  A    between atoms: N_1  and  C_2
REMARK    2  A    between atoms: C_2  and  C_3
REMARK    3  A    between atoms: C_3  and  N_4
REMARK    4  A    between atoms: C_3  and  C_17
REMARK    5  A    between atoms: C_5  and  C_7
REMARK    6  A    between atoms: C_20  and  O_21
REMARK    7  A    between atoms: O_21  and  C_22
REMARK    8  A    between atoms: C_22  and  C_23
REMARK                            x       y       z     vdW  Elec       q    Type
REMARK                         _______ _______ _______ _____ _____    ______ ____
ROOT
ATOM      1  C   UNL     1      47.162   6.049  14.099  0.00  0.00    +0.000 C 
ENDROOT
BRANCH   1   2
ATOM      2  C   UNL     1      46.352   5.484  12.933  0.00  0.00    +0.000 A 
ATOM      3  C   UNL     1      46.346   6.116  11.684  0.00  0.00    +0.000 A 
ATOM      4  C   UNL     1      45.600   5.586  10.625  0.00  0.00    +0.000 A 
ATOM      5  C   UNL     1      44.867   4.411  10.798  0.00  0.00    +0.000 A 
ATOM      6  C   UNL     1      44.834   3.800  12.048  0.00  0.00    +0.000 A 
ATOM      7  C   UNL     1      45.587   4.319  13.100  0.00  0.00    +0.000 A 
BRANCH   5   8
ATOM      8  O   UNL     1      44.219   3.942   9.684  0.00  0.00    +0.000 OA
BRANCH   8   9
ATOM      9  C   UNL     1      44.471   2.563   9.382  0.00  0.00    +0.000 C 
BRANCH   9  10
ATOM     10  C   UNL     1      45.567   2.409   8.353  0.00  0.00    +0.000 A 
ATOM     11  C   UNL     1      45.894   3.443   7.480  0.00  0.00    +0.000 A 
ATOM     12  C   UNL     1      46.896   3.234   6.538  0.00  0.00    +0.000 A 
ATOM     13  C   UNL     1      47.535   1.999   6.483  0.00  0.00    +0.000 A 
ATOM     14  C   UNL     1      47.139   1.018   7.373  0.00  0.00    +0.000 A 
ATOM     15  N   UNL     1      46.171   1.191   8.296  0.00  0.00    +0.000 NA
ENDBRANCH   9  10
ENDBRANCH   8   9
ENDBRANCH   5   8
ENDBRANCH   1   2
BRANCH   1  16
ATOM     16  N   UNL     1      48.358   6.686  13.553  0.00  0.00    +0.000 N 
ATOM     17  C   UNL     1      48.683   7.995  13.801  0.00  0.00    +0.000 C 
ATOM     18  O   UNL     1      48.094   8.681  14.630  0.00  0.00    +0.000 OA
ATOM     19  H   UNL     1      48.712   6.271  12.696  0.00  0.00    +0.000 HD
BRANCH  17  20
ATOM     20  C   UNL     1      49.819   8.538  13.051  0.00  0.00    +0.000 A 
ATOM     21  C   UNL     1      49.604   9.211  11.856  0.00  0.00    +0.000 A 
ATOM     22  S   UNL     1      51.041   9.710  11.086  0.00  0.00    +0.000 S 
ATOM     23  C   UNL     1      52.001   9.008  12.304  0.00  0.00    +0.000 A 
ATOM     24  N   UNL     1      53.359   9.015  12.219  0.00  0.00    +0.000 NA
ATOM     25  C   UNL     1      53.955   8.414  13.194  0.00  0.00    +0.000 A 
ATOM     26  N   UNL     1      53.317   7.829  14.261  0.00  0.00    +0.000 N 
ATOM     27  C   UNL     1      51.955   7.855  14.416  0.00  0.00    +0.000 A 
ATOM     28  O   UNL     1      51.417   7.423  15.432  0.00  0.00    +0.000 OA
ATOM     29  C   UNL     1      51.234   8.458  13.313  0.00  0.00    +0.000 A 
ATOM     30  H   UNL     1      53.847   7.414  15.012  0.00  0.00    +0.000 HD
ENDBRANCH  17  20
ENDBRANCH   1  16
BRANCH   1  31
ATOM     31  C   UNL     1      47.480   4.928  15.140  0.00  0.00    +0.000 C 
BRANCH  31  32
ATOM     32  N   UNL     1      47.796   5.427  16.487  0.00  0.00    +0.000 NA
ATOM     33  H   UNL     1      47.805   6.445  16.464  0.00  0.00    +0.000 HD
ATOM     34  H   UNL     1      48.741   5.139  16.743  0.00  0.00    +0.000 HD
ENDBRANCH  31  32
ENDBRANCH   1  31
TORSDOF 8
ENDMDL
MODEL 5
REMARK VINA RESULT:    -6.972      2.120      2.712
REMARK INTER + INTRA:         -11.198
REMARK INTER:                  -9.872
REMARK INTRA:                  -1.326
REMARK UNBOUND:                -1.169
REMARK  Name = 
REMARK  8 active torsions:
REMARK  status: ('A' for Active; 'I' for Inactive)
REMARK    1  A    between atoms: N_1  and  C_2
REMARK    2  A    between atoms: C_2  and  C_3
REMARK    3  A    between atoms: C_3  and  N_4
REMARK    4  A    between atoms: C_3  and  C_17
REMARK    5  A    between atoms: C_5  and  C_7
REMARK    6  A    between atoms: C_20  and  O_21
REMARK    7  A    between atoms: O_21  and  C_22
REMARK    8  A    between atoms: C_22  and  C_23
REMARK                            x       y       z     vdW  Elec       q    Type
REMARK                         _______ _______ _______ _____ _____    ______ ____
ROOT
ATOM      1  C   UNL     1      48.782   8.574  14.156  0.00  0.00    +0.000 C 
ENDROOT
BRANCH   1   2
ATOM      2  C   UNL     1      47.705   8.029  13.220  0.00  0.00    +0.000 A 
ATOM      3  C   UNL     1      48.014   7.073  12.243  0.00  0.00    +0.000 A 
ATOM      4  C   UNL     1      47.016   6.581  11.393  0.00  0.00    +0.000 A 
ATOM      5  C   UNL     1      45.699   7.025  11.521  0.00  0.00    +0.000 A 
ATOM      6  C   UNL     1      45.393   8.006  12.461  0.00  0.00    +0.000 A 
ATOM      7  C   UNL     1      46.382   8.487  13.317  0.00  0.00    +0.000 A 
BRANCH   5   8
ATOM      8  O   UNL     1      44.787   6.439  10.682  0.00  0.00    +0.000 OA
BRANCH   8   9
ATOM      9  C   UNL     1      44.512   5.061  10.967  0.00  0.00    +0.000 C 
BRANCH   9  10
ATOM     10  C   UNL     1      44.984   4.155   9.853  0.00  0.00    +0.000 A 
ATOM     11  C   UNL     1      44.863   2.771   9.942  0.00  0.00    +0.000 A 
ATOM     12  C   UNL     1      45.337   1.988   8.895  0.00  0.00    +0.000 A 
ATOM     13  C   UNL     1      45.928   2.602   7.796  0.00  0.00    +0.000 A 
ATOM     14  C   UNL     1      46.027   3.980   7.792  0.00  0.00    +0.000 A 
ATOM     15  N   UNL     1      45.577   4.766   8.793  0.00  0.00    +0.000 NA
ENDBRANCH   9  10
ENDBRANCH   8   9
ENDBRANCH   5   8
ENDBRANCH   1   2
BRANCH   1  16
ATOM     16  N   UNL     1      48.799   7.745  15.359  0.00  0.00    +0.000 N 
ATOM     17  C   UNL     1      49.903   7.039  15.761  0.00  0.00    +0.000 C 
ATOM     18  O   UNL     1      51.007   7.178  15.243  0.00  0.00    +0.000 OA
ATOM     19  H   UNL     1      47.890   7.401  15.656  0.00  0.00    +0.000 HD
BRANCH  17  20
ATOM     20  C   UNL     1      49.717   6.124  16.890  0.00  0.00    +0.000 A 
ATOM     21  C   UNL     1      50.510   6.248  18.023  0.00  0.00    +0.000 A 
ATOM     22  S   UNL     1      50.203   5.057  19.204  0.00  0.00    +0.000 S 
ATOM     23  C   UNL     1      49.028   4.311  18.224  0.00  0.00    +0.000 A 
ATOM     24  N   UNL     1      48.408   3.166  18.618  0.00  0.00    +0.000 NA
ATOM     25  C   UNL     1      47.569   2.692  17.759  0.00  0.00    +0.000 A 
ATOM     26  N   UNL     1      47.273   3.275  16.550  0.00  0.00    +0.000 N 
ATOM     27  C   UNL     1      47.829   4.460  16.143  0.00  0.00    +0.000 A 
ATOM     28  O   UNL     1      47.465   5.016  15.109  0.00  0.00    +0.000 OA
ATOM     29  C   UNL     1      48.830   4.998  17.042  0.00  0.00    +0.000 A 
ATOM     30  H   UNL     1      46.574   2.874  15.945  0.00  0.00    +0.000 HD
ENDBRANCH  17  20
ENDBRANCH   1  16
BRANCH   1  31
ATOM     31  C   UNL     1      48.535  10.088  14.452  0.00  0.00    +0.000 C 
BRANCH  31  32
ATOM     32  N   UNL     1      48.516  10.429  15.884  0.00  0.00    +0.000 NA
ATOM     33  H   UNL     1      49.271  11.088  16.071  0.00  0.00    +0.000 HD
ATOM     34  H   UNL     1      48.722   9.595  16.434  0.00  0.00    +0.000 HD
ENDBRANCH  31  32
ENDBRANCH   1  31
TORSDOF 8
ENDMDL
MODEL 6
REMARK VINA RESULT:    -6.945      1.671      2.101
REMARK INTER + INTRA:         -11.159
REMARK INTER:                  -9.962
REMARK INTRA:                  -1.197
REMARK UNBOUND:                -1.169
REMARK  Name = 
REMARK  8 active torsions:
REMARK  status: ('A' for Active; 'I' for Inactive)
REMARK    1  A    between atoms: N_1  and  C_2
REMARK    2  A    between atoms: C_2  and  C_3
REMARK    3  A    between atoms: C_3  and  N_4
REMARK    4  A    between atoms: C_3  and  C_17
REMARK    5  A    between atoms: C_5  and  C_7
REMARK    6  A    between atoms: C_20  and  O_21
REMARK    7  A    between atoms: O_21  and  C_22
REMARK    8  A    between atoms: C_22  and  C_23
REMARK                            x       y       z     vdW  Elec       q    Type
REMARK                         _______ _______ _______ _____ _____    ______ ____
ROOT
ATOM      1  C   UNL     1      48.626   6.624  13.894  0.00  0.00    +0.000 C 
ENDROOT
BRANCH   1   2
ATOM      2  C   UNL     1      47.303   6.337  13.186  0.00  0.00    +0.000 A 
ATOM      3  C   UNL     1      46.883   7.113  12.098  0.00  0.00    +0.000 A 
ATOM      4  C   UNL     1      45.669   6.837  11.458  0.00  0.00    +0.000 A 
ATOM      5  C   UNL     1      44.871   5.774  11.887  0.00  0.00    +0.000 A 
ATOM      6  C   UNL     1      45.262   5.026  12.995  0.00  0.00    +0.000 A 
ATOM      7  C   UNL     1      46.476   5.290  13.625  0.00  0.00    +0.000 A 
BRANCH   5   8
ATOM      8  O   UNL     1      43.732   5.551  11.158  0.00  0.00    +0.000 OA
BRANCH   8   9
ATOM      9  C   UNL     1      43.447   4.169  10.903  0.00  0.00    +0.000 C 
BRANCH   9  10
ATOM     10  C   UNL     1      44.322   3.612   9.805  0.00  0.00    +0.000 A 
ATOM     11  C   UNL     1      44.661   2.262   9.759  0.00  0.00    +0.000 A 
ATOM     12  C   UNL     1      45.490   1.812   8.737  0.00  0.00    +0.000 A 
ATOM     13  C   UNL     1      45.968   2.719   7.797  0.00  0.00    +0.000 A 
ATOM     14  C   UNL     1      45.601   4.046   7.922  0.00  0.00    +0.000 A 
ATOM     15  N   UNL     1      44.799   4.511   8.902  0.00  0.00    +0.000 NA
ENDBRANCH   9  10
ENDBRANCH   8   9
ENDBRANCH   5   8
ENDBRANCH   1   2
BRANCH   1  16
ATOM     16  N   UNL     1      48.328   7.046  15.259  0.00  0.00    +0.000 N 
ATOM     17  C   UNL     1      49.054   6.626  16.344  0.00  0.00    +0.000 C 
ATOM     18  O   UNL     1      50.106   6.004  16.240  0.00  0.00    +0.000 OA
ATOM     19  H   UNL     1      47.364   7.325  15.421  0.00  0.00    +0.000 HD
BRANCH  17  20
ATOM     20  C   UNL     1      48.533   6.999  17.662  0.00  0.00    +0.000 A 
ATOM     21  C   UNL     1      48.307   6.022  18.622  0.00  0.00    +0.000 A 
ATOM     22  S   UNL     1      47.634   6.628  20.066  0.00  0.00    +0.000 S 
ATOM     23  C   UNL     1      47.584   8.211  19.443  0.00  0.00    +0.000 A 
ATOM     24  N   UNL     1      47.041   9.232  20.160  0.00  0.00    +0.000 NA
ATOM     25  C   UNL     1      47.037  10.369  19.548  0.00  0.00    +0.000 A 
ATOM     26  N   UNL     1      47.551  10.583  18.292  0.00  0.00    +0.000 N 
ATOM     27  C   UNL     1      48.162   9.597  17.562  0.00  0.00    +0.000 A 
ATOM     28  O   UNL     1      48.711   9.839  16.490  0.00  0.00    +0.000 OA
ATOM     29  C   UNL     1      48.131   8.285  18.176  0.00  0.00    +0.000 A 
ATOM     30  H   UNL     1      47.554  11.508  17.889  0.00  0.00    +0.000 HD
ENDBRANCH  17  20
ENDBRANCH   1  16
BRANCH   1  31
ATOM     31  C   UNL     1      49.462   7.672  13.091  0.00  0.00    +0.000 C 
BRANCH  31  32
ATOM     32  N   UNL     1      50.892   7.697  13.437  0.00  0.00    +0.000 NA
ATOM     33  H   UNL     1      51.038   8.393  14.166  0.00  0.00    +0.000 HD
ATOM     34  H   UNL     1      51.431   8.012  12.629  0.00  0.00    +0.000 HD
ENDBRANCH  31  32
ENDBRANCH   1  31
TORSDOF 8
ENDMDL
MODEL 7
REMARK VINA RESULT:    -6.815      3.393      8.254
REMARK INTER + INTRA:         -10.972
REMARK INTER:                  -9.847
REMARK INTRA:                  -1.125
REMARK UNBOUND:                -1.169
REMARK  Name = 
REMARK  8 active torsions:
REMARK  status: ('A' for Active; 'I' for Inactive)
REMARK    1  A    between atoms: N_1  and  C_2
REMARK    2  A    between atoms: C_2  and  C_3
REMARK    3  A    between atoms: C_3  and  N_4
REMARK    4  A    between atoms: C_3  and  C_17
REMARK    5  A    between atoms: C_5  and  C_7
REMARK    6  A    between atoms: C_20  and  O_21
REMARK    7  A    between atoms: O_21  and  C_22
REMARK    8  A    between atoms: C_22  and  C_23
REMARK                            x       y       z     vdW  Elec       q    Type
REMARK                         _______ _______ _______ _____ _____    ______ ____
ROOT
ATOM      1  C   UNL     1      48.194   7.889  12.556  0.00  0.00    +0.000 C 
ENDROOT
BRANCH   1   2
ATOM      2  C   UNL     1      48.466   7.302  13.940  0.00  0.00    +0.000 A 
ATOM      3  C   UNL     1      47.949   6.054  14.309  0.00  0.00    +0.000 A 
ATOM      4  C   UNL     1      48.208   5.528  15.580  0.00  0.00    +0.000 A 
ATOM      5  C   UNL     1      48.999   6.235  16.488  0.00  0.00    +0.000 A 
ATOM      6  C   UNL     1      49.481   7.495  16.143  0.00  0.00    +0.000 A 
ATOM      7  C   UNL     1      49.235   8.014  14.874  0.00  0.00    +0.000 A 
BRANCH   5   8
ATOM      8  O   UNL     1      49.242   5.608  17.683  0.00  0.00    +0.000 OA
BRANCH   8   9
ATOM      9  C   UNL     1      49.009   4.193  17.673  0.00  0.00    +0.000 C 
BRANCH   9  10
ATOM     10  C   UNL     1      50.302   3.414  17.738  0.00  0.00    +0.000 A 
ATOM     11  C   UNL     1      50.387   2.107  17.266  0.00  0.00    +0.000 A 
ATOM     12  C   UNL     1      51.598   1.432  17.374  0.00  0.00    +0.000 A 
ATOM     13  C   UNL     1      52.686   2.071  17.960  0.00  0.00    +0.000 A 
ATOM     14  C   UNL     1      52.516   3.363  18.420  0.00  0.00    +0.000 A 
ATOM     15  N   UNL     1      51.353   4.043  18.330  0.00  0.00    +0.000 NA
ENDBRANCH   9  10
ENDBRANCH   8   9
ENDBRANCH   5   8
ENDBRANCH   1   2
BRANCH   1  16
ATOM     16  N   UNL     1      47.536   6.864  11.750  0.00  0.00    +0.000 N 
ATOM     17  C   UNL     1      46.184   6.854  11.518  0.00  0.00    +0.000 C 
ATOM     18  O   UNL     1      45.450   7.787  11.822  0.00  0.00    +0.000 OA
ATOM     19  H   UNL     1      48.025   5.975  11.703  0.00  0.00    +0.000 HD
BRANCH  17  20
ATOM     20  C   UNL     1      45.649   5.673  10.833  0.00  0.00    +0.000 A 
ATOM     21  C   UNL     1      45.777   5.551   9.456  0.00  0.00    +0.000 A 
ATOM     22  S   UNL     1      45.035   4.153   8.824  0.00  0.00    +0.000 S 
ATOM     23  C   UNL     1      44.483   3.683  10.364  0.00  0.00    +0.000 A 
ATOM     24  N   UNL     1      43.702   2.581  10.525  0.00  0.00    +0.000 NA
ATOM     25  C   UNL     1      43.326   2.368  11.743  0.00  0.00    +0.000 A 
ATOM     26  N   UNL     1      43.684   3.144  12.819  0.00  0.00    +0.000 N 
ATOM     27  C   UNL     1      44.519   4.226  12.709  0.00  0.00    +0.000 A 
ATOM     28  O   UNL     1      44.911   4.835  13.700  0.00  0.00    +0.000 OA
ATOM     29  C   UNL     1      44.913   4.548  11.353  0.00  0.00    +0.000 A 
ATOM     30  H   UNL     1      43.390   2.895  13.751  0.00  0.00    +0.000 HD
ENDBRANCH  17  20
ENDBRANCH   1  16
BRANCH   1  31
ATOM     31  C   UNL     1      49.516   8.422  11.917  0.00  0.00    +0.000 C 
BRANCH  31  32
ATOM     32  N   UNL     1      50.501   7.375  11.602  0.00  0.00    +0.000 NA
ATOM     33  H   UNL     1      50.500   6.689  12.355  0.00  0.00    +0.000 HD
ATOM     34  H   UNL     1      51.436   7.782  11.588  0.00  0.00    +0.000 HD
ENDBRANCH  31  32
ENDBRANCH   1  31
TORSDOF 8
ENDMDL
MODEL 8
REMARK VINA RESULT:    -6.678      3.821      5.908
REMARK INTER + INTRA:         -10.775
REMARK INTER:                  -9.877
REMARK INTRA:                  -0.898
REMARK UNBOUND:                -1.169
REMARK  Name = 
REMARK  8 active torsions:
REMARK  status: ('A' for Active; 'I' for Inactive)
REMARK    1  A    between atoms: N_1  and  C_2
REMARK    2  A    between atoms: C_2  and  C_3
REMARK    3  A    between atoms: C_3  and  N_4
REMARK    4  A    between atoms: C_3  and  C_17
REMARK    5  A    between atoms: C_5  and  C_7
REMARK    6  A    between atoms: C_20  and  O_21
REMARK    7  A    between atoms: O_21  and  C_22
REMARK    8  A    between atoms: C_22  and  C_23
REMARK                            x       y       z     vdW  Elec       q    Type
REMARK                         _______ _______ _______ _____ _____    ______ ____
ROOT
ATOM      1  C   UNL     1      46.395   4.524  14.203  0.00  0.00    +0.000 C 
ENDROOT
BRANCH   1   2
ATOM      2  C   UNL     1      46.337   5.853  13.452  0.00  0.00    +0.000 A 
ATOM      3  C   UNL     1      45.149   6.295  12.857  0.00  0.00    +0.000 A 
ATOM      4  C   UNL     1      45.110   7.516  12.174  0.00  0.00    +0.000 A 
ATOM      5  C   UNL     1      46.253   8.315  12.092  0.00  0.00    +0.000 A 
ATOM      6  C   UNL     1      47.448   7.862  12.644  0.00  0.00    +0.000 A 
ATOM      7  C   UNL     1      47.485   6.653  13.336  0.00  0.00    +0.000 A 
BRANCH   5   8
ATOM      8  O   UNL     1      46.096   9.518  11.453  0.00  0.00    +0.000 OA
BRANCH   8   9
ATOM      9  C   UNL     1      45.197  10.427  12.103  0.00  0.00    +0.000 C 
BRANCH   9  10
ATOM     10  C   UNL     1      43.955  10.668  11.278  0.00  0.00    +0.000 A 
ATOM     11  C   UNL     1      43.952  10.485   9.898  0.00  0.00    +0.000 A 
ATOM     12  C   UNL     1      42.785  10.746   9.188  0.00  0.00    +0.000 A 
ATOM     13  C   UNL     1      41.658  11.194   9.869  0.00  0.00    +0.000 A 
ATOM     14  C   UNL     1      41.747  11.368  11.237  0.00  0.00    +0.000 A 
ATOM     15  N   UNL     1      42.865  11.124  11.952  0.00  0.00    +0.000 NA
ENDBRANCH   9  10
ENDBRANCH   8   9
ENDBRANCH   5   8
ENDBRANCH   1   2
BRANCH   1  16
ATOM     16  N   UNL     1      47.489   4.595  15.167  0.00  0.00    +0.000 N 
ATOM     17  C   UNL     1      47.391   4.103  16.443  0.00  0.00    +0.000 C 
ATOM     18  O   UNL     1      46.446   3.420  16.822  0.00  0.00    +0.000 OA
ATOM     19  H   UNL     1      48.156   5.345  15.004  0.00  0.00    +0.000 HD
BRANCH  17  20
ATOM     20  C   UNL     1      48.509   4.398  17.343  0.00  0.00    +0.000 A 
ATOM     21  C   UNL     1      48.491   5.547  18.122  0.00  0.00    +0.000 A 
ATOM     22  S   UNL     1      49.903   5.763  19.052  0.00  0.00    +0.000 S 
ATOM     23  C   UNL     1      50.605   4.349  18.416  0.00  0.00    +0.000 A 
ATOM     24  N   UNL     1      51.871   3.981  18.750  0.00  0.00    +0.000 NA
ATOM     25  C   UNL     1      52.285   2.908  18.162  0.00  0.00    +0.000 A 
ATOM     26  N   UNL     1      51.537   2.155  17.290  0.00  0.00    +0.000 N 
ATOM     27  C   UNL     1      50.238   2.456  16.974  0.00  0.00    +0.000 A 
ATOM     28  O   UNL     1      49.557   1.707  16.280  0.00  0.00    +0.000 OA
ATOM     29  C   UNL     1      49.747   3.690  17.555  0.00  0.00    +0.000 A 
ATOM     30  H   UNL     1      51.909   1.302  16.899  0.00  0.00    +0.000 HD
ENDBRANCH  17  20
ENDBRANCH   1  16
BRANCH   1  31
ATOM     31  C   UNL     1      46.529   3.333  13.201  0.00  0.00    +0.000 C 
BRANCH  31  32
ATOM     32  N   UNL     1      45.248   2.845  12.666  0.00  0.00    +0.000 NA
ATOM     33  H   UNL     1      44.490   3.289  13.181  0.00  0.00    +0.000 HD
ATOM     34  H   UNL     1      45.165   1.844  12.842  0.00  0.00    +0.000 HD
ENDBRANCH  31  32
ENDBRANCH   1  31
TORSDOF 8
ENDMDL
MODEL 9
REMARK VINA RESULT:    -6.466      3.175      8.814
REMARK INTER + INTRA:         -10.470
REMARK INTER:                  -9.405
REMARK INTRA:                  -1.065
REMARK UNBOUND:                -1.169
REMARK  Name = 
REMARK  8 active torsions:
REMARK  status: ('A' for Active; 'I' for Inactive)
REMARK    1  A    between atoms: N_1  and  C_2
REMARK    2  A    between atoms: C_2  and  C_3
REMARK    3  A    between atoms: C_3  and  N_4
REMARK    4  A    between atoms: C_3  and  C_17
REMARK    5  A    between atoms: C_5  and  C_7
REMARK    6  A    between atoms: C_20  and  O_21
REMARK    7  A    between atoms: O_21  and  C_22
REMARK    8  A    between atoms: C_22  and  C_23
REMARK                            x       y       z     vdW  Elec       q    Type
REMARK                         _______ _______ _______ _____ _____    ______ ____
ROOT
ATOM      1  C   UNL     1      47.792   7.064  13.531  0.00  0.00    +0.000 C 
ENDROOT
BRANCH   1   2
ATOM      2  C   UNL     1      48.378   6.490  14.820  0.00  0.00    +0.000 A 
ATOM      3  C   UNL     1      49.546   7.020  15.381  0.00  0.00    +0.000 A 
ATOM      4  C   UNL     1      50.070   6.484  16.564  0.00  0.00    +0.000 A 
ATOM      5  C   UNL     1      49.424   5.426  17.206  0.00  0.00    +0.000 A 
ATOM      6  C   UNL     1      48.286   4.867  16.631  0.00  0.00    +0.000 A 
ATOM      7  C   UNL     1      47.755   5.407  15.461  0.00  0.00    +0.000 A 
BRANCH   5   8
ATOM      8  O   UNL     1      49.984   5.013  18.387  0.00  0.00    +0.000 OA
BRANCH   8   9
ATOM      9  C   UNL     1      51.413   4.893  18.361  0.00  0.00    +0.000 C 
BRANCH   9  10
ATOM     10  C   UNL     1      51.848   3.468  18.111  0.00  0.00    +0.000 A 
ATOM     11  C   UNL     1      51.003   2.546  17.499  0.00  0.00    +0.000 A 
ATOM     12  C   UNL     1      51.450   1.242  17.318  0.00  0.00    +0.000 A 
ATOM     13  C   UNL     1      52.720   0.888  17.761  0.00  0.00    +0.000 A 
ATOM     14  C   UNL     1      53.492   1.856  18.376  0.00  0.00    +0.000 A 
ATOM     15  N   UNL     1      53.084   3.129  18.567  0.00  0.00    +0.000 NA
ENDBRANCH   9  10
ENDBRANCH   8   9
ENDBRANCH   5   8
ENDBRANCH   1   2
BRANCH   1  16
ATOM     16  N   UNL     1      46.998   6.020  12.889  0.00  0.00    +0.000 N 
ATOM     17  C   UNL     1      45.775   6.260  12.317  0.00  0.00    +0.000 C 
ATOM     18  O   UNL     1      45.329   7.390  12.150  0.00  0.00    +0.000 OA
ATOM     19  H   UNL     1      47.184   5.077  13.218  0.00  0.00    +0.000 HD
BRANCH  17  20
ATOM     20  C   UNL     1      45.026   5.085  11.863  0.00  0.00    +0.000 A 
ATOM     21  C   UNL     1      44.248   4.367  12.761  0.00  0.00    +0.000 A 
ATOM     22  S   UNL     1      43.507   2.993  12.075  0.00  0.00    +0.000 S 
ATOM     23  C   UNL     1      44.234   3.288  10.565  0.00  0.00    +0.000 A 
ATOM     24  N   UNL     1      44.067   2.427   9.524  0.00  0.00    +0.000 NA
ATOM     25  C   UNL     1      44.708   2.758   8.452  0.00  0.00    +0.000 A 
ATOM     26  N   UNL     1      45.479   3.887   8.318  0.00  0.00    +0.000 N 
ATOM     27  C   UNL     1      45.622   4.811   9.320  0.00  0.00    +0.000 A 
ATOM     28  O   UNL     1      46.226   5.865   9.139  0.00  0.00    +0.000 OA
ATOM     29  C   UNL     1      44.979   4.452  10.569  0.00  0.00    +0.000 A 
ATOM     30  H   UNL     1      45.917   4.107   7.437  0.00  0.00    +0.000 HD
ENDBRANCH  17  20
ENDBRANCH   1  16
BRANCH   1  31
ATOM     31  C   UNL     1      48.926   7.629  12.618  0.00  0.00    +0.000 C 
BRANCH  31  32
ATOM     32  N   UNL     1      48.442   8.389  11.454  0.00  0.00    +0.000 NA
ATOM     33  H   UNL     1      49.247   8.747  10.942  0.00  0.00    +0.000 HD
ATOM     34  H   UNL     1      47.921   9.206  11.774  0.00  0.00    +0.000 HD
ENDBRANCH  31  32
ENDBRANCH   1  31
TORSDOF 8
ENDMDL
