MODEL 1
REMARK VINA RESULT:    -8.481      0.000      0.000
REMARK INTER + INTRA:         -11.715
REMARK INTER:                 -10.960
REMARK INTRA:                  -0.755
REMARK UNBOUND:                -0.755
REMARK  Name = 
REMARK  6 active torsions:
REMARK  status: ('A' for Active; 'I' for Inactive)
REMARK    1  A    between atoms: C_1  and  C_2
REMARK    2  A    between atoms: C_5  and  C_6
REMARK    3  A    between atoms: C_10  and  N_11
REMARK    4  A    between atoms: N_11  and  C_12
REMARK    5  A    between atoms: C_12  and  C_13
REMARK    6  A    between atoms: C_18  and  C_19
REMARK                            x       y       z     vdW  Elec       q    Type
REMARK                         _______ _______ _______ _____ _____    ______ ____
ROOT
ATOM      1  N   UNL     1      46.399   6.856  11.267  0.00  0.00    +0.000 N 
ATOM      2  H   UNL     1      46.590   7.757  10.845  0.00  0.00    +0.000 HD
ENDROOT
BRANCH   1   9
ATOM      3  C   UNL     1      48.086   9.061  12.211  0.00  0.00    +0.000 C 
ATOM      4  C   UNL     1      47.870   7.788  12.979  0.00  0.00    +0.000 A 
ATOM      5  C   UNL     1      48.552   7.633  14.197  0.00  0.00    +0.000 A 
ATOM      6  C   UNL     1      48.390   6.478  14.939  0.00  0.00    +0.000 A 
ATOM      7  C   UNL     1      47.539   5.511  14.438  0.00  0.00    +0.000 A 
ATOM      8  N   UNL     1      46.859   5.621  13.256  0.00  0.00    +0.000 NA
ATOM      9  C   UNL     1      47.021   6.754  12.532  0.00  0.00    +0.000 A 
BRANCH   7  10
ATOM     10  C   UNL     1      47.346   4.253  15.230  0.00  0.00    +0.000 C 
ATOM     11  N   UNL     1      46.999   4.417  16.542  0.00  0.00    +0.000 N 
ATOM     12  O   UNL     1      47.487   3.138  14.742  0.00  0.00    +0.000 OA
ATOM     13  H   UNL     1      46.838   5.344  16.906  0.00  0.00    +0.000 HD
ATOM     14  H   UNL     1      46.830   3.603  17.112  0.00  0.00    +0.000 HD
ENDBRANCH   7  10
ENDBRANCH   1   9
BRANCH   1  15
ATOM     15  C   UNL     1      44.977   6.529  11.262  0.00  0.00    +0.000 C 
BRANCH  15  16
ATOM     16  C   UNL     1      44.735   5.119  10.751  0.00  0.00    +0.000 A 
ATOM     17  C   UNL     1      43.868   4.253  11.426  0.00  0.00    +0.000 A 
ATOM     18  C   UNL     1      43.711   2.944  10.987  0.00  0.00    +0.000 A 
ATOM     19  F   UNL     1      42.893   2.119  11.656  0.00  0.00    +0.000 F 
ATOM     20  C   UNL     1      44.399   2.464   9.875  0.00  0.00    +0.000 A 
ATOM     21  C   UNL     1      45.269   3.302   9.155  0.00  0.00    +0.000 A 
ATOM     22  C   UNL     1      45.410   4.634   9.611  0.00  0.00    +0.000 A 
BRANCH  21  23
ATOM     23  C   UNL     1      46.020   2.795   7.985  0.00  0.00    +0.000 A 
ATOM     24  C   UNL     1      46.280   3.588   6.855  0.00  0.00    +0.000 A 
ATOM     25  C   UNL     1      46.988   3.075   5.768  0.00  0.00    +0.000 A 
ATOM     26  C   UNL     1      47.434   1.769   5.832  0.00  0.00    +0.000 A 
ATOM     27  N   UNL     1      47.212   0.960   6.886  0.00  0.00    +0.000 NA
ATOM     28  C   UNL     1      46.515   1.489   7.923  0.00  0.00    +0.000 A 
ENDBRANCH  21  23
ENDBRANCH  15  16
ENDBRANCH   1  15
TORSDOF 5
ENDMDL
MODEL 2
REMARK VINA RESULT:    -8.215      2.228      3.134
REMARK INTER + INTRA:         -11.372
REMARK INTER:                 -10.224
REMARK INTRA:                  -1.148
REMARK UNBOUND:                -0.755
REMARK  Name = 
REMARK  6 active torsions:
REMARK  status: ('A' for Active; 'I' for Inactive)
REMARK    1  A    between atoms: C_1  and  C_2
REMARK    2  A    between atoms: C_5  and  C_6
REMARK    3  A    between atoms: C_10  and  N_11
REMARK    4  A    between atoms: N_11  and  C_12
REMARK    5  A    between atoms: C_12  and  C_13
REMARK    6  A    between atoms: C_18  and  C_19
REMARK                            x       y       z     vdW  Elec       q    Type
REMARK                         _______ _______ _______ _____ _____    ______ ____
ROOT
ATOM      1  N   UNL     1      44.162   6.537  12.484  0.00  0.00    +0.000 N 
ATOM      2  H   UNL     1      44.003   5.728  13.075  0.00  0.00    +0.000 HD
ENDROOT
BRANCH   1   9
ATOM      3  C   UNL     1      46.217   4.724  13.528  0.00  0.00    +0.000 C 
ATOM      4  C   UNL     1      46.476   6.160  13.167  0.00  0.00    +0.000 A 
ATOM      5  C   UNL     1      47.767   6.669  13.384  0.00  0.00    +0.000 A 
ATOM      6  C   UNL     1      48.053   7.985  13.072  0.00  0.00    +0.000 A 
ATOM      7  C   UNL     1      47.034   8.753  12.542  0.00  0.00    +0.000 A 
ATOM      8  N   UNL     1      45.764   8.297  12.317  0.00  0.00    +0.000 NA
ATOM      9  C   UNL     1      45.486   7.008  12.625  0.00  0.00    +0.000 A 
BRANCH   7  10
ATOM     10  C   UNL     1      47.326  10.181  12.192  0.00  0.00    +0.000 C 
ATOM     11  N   UNL     1      46.269  11.044  12.260  0.00  0.00    +0.000 N 
ATOM     12  O   UNL     1      48.442  10.564  11.865  0.00  0.00    +0.000 OA
ATOM     13  H   UNL     1      45.372  10.714  12.582  0.00  0.00    +0.000 HD
ATOM     14  H   UNL     1      46.417  12.021  12.061  0.00  0.00    +0.000 HD
ENDBRANCH   7  10
ENDBRANCH   1   9
BRANCH   1  15
ATOM     15  C   UNL     1      43.741   6.309  11.106  0.00  0.00    +0.000 C 
BRANCH  15  16
ATOM     16  C   UNL     1      43.908   4.853  10.709  0.00  0.00    +0.000 A 
ATOM     17  C   UNL     1      43.299   3.835  11.453  0.00  0.00    +0.000 A 
ATOM     18  C   UNL     1      43.518   2.504  11.120  0.00  0.00    +0.000 A 
ATOM     19  F   UNL     1      42.945   1.540  11.854  0.00  0.00    +0.000 F 
ATOM     20  C   UNL     1      44.335   2.149  10.049  0.00  0.00    +0.000 A 
ATOM     21  C   UNL     1      44.956   3.136   9.264  0.00  0.00    +0.000 A 
ATOM     22  C   UNL     1      44.715   4.486   9.612  0.00  0.00    +0.000 A 
BRANCH  21  23
ATOM     23  C   UNL     1      45.843   2.768   8.137  0.00  0.00    +0.000 A 
ATOM     24  C   UNL     1      46.154   3.662   7.099  0.00  0.00    +0.000 A 
ATOM     25  C   UNL     1      46.990   3.278   6.051  0.00  0.00    +0.000 A 
ATOM     26  C   UNL     1      47.511   1.999   6.061  0.00  0.00    +0.000 A 
ATOM     27  N   UNL     1      47.246   1.097   7.026  0.00  0.00    +0.000 NA
ATOM     28  C   UNL     1      46.424   1.501   8.028  0.00  0.00    +0.000 A 
ENDBRANCH  21  23
ENDBRANCH  15  16
ENDBRANCH   1  15
TORSDOF 5
ENDMDL
MODEL 3
REMARK VINA RESULT:    -7.894      1.574      2.104
REMARK INTER + INTRA:         -10.957
REMARK INTER:                 -10.199
REMARK INTRA:                  -0.759
REMARK UNBOUND:                -0.755
REMARK  Name = 
REMARK  6 active torsions:
REMARK  status: ('A' for Active; 'I' for Inactive)
REMARK    1  A    between atoms: C_1  and  C_2
REMARK    2  A    between atoms: C_5  and  C_6
REMARK    3  A    between atoms: C_10  and  N_11
REMARK    4  A    between atoms: N_11  and  C_12
REMARK    5  A    between atoms: C_12  and  C_13
REMARK    6  A    between atoms: C_18  and  C_19
REMARK                            x       y       z     vdW  Elec       q    Type
REMARK                         _______ _______ _______ _____ _____    ______ ____
ROOT
ATOM      1  N   UNL     1      47.489   6.595  12.917  0.00  0.00    +0.000 N 
ATOM      2  H   UNL     1      48.197   7.131  12.428  0.00  0.00    +0.000 HD
ENDROOT
BRANCH   1   9
ATOM      3  C   UNL     1      49.157   8.541  14.341  0.00  0.00    +0.000 C 
ATOM      4  C   UNL     1      48.738   7.220  14.920  0.00  0.00    +0.000 A 
ATOM      5  C   UNL     1      49.210   6.884  16.199  0.00  0.00    +0.000 A 
ATOM      6  C   UNL     1      48.856   5.678  16.774  0.00  0.00    +0.000 A 
ATOM      7  C   UNL     1      48.029   4.842  16.047  0.00  0.00    +0.000 A 
ATOM      8  N   UNL     1      47.549   5.130  14.799  0.00  0.00    +0.000 NA
ATOM      9  C   UNL     1      47.899   6.312  14.239  0.00  0.00    +0.000 A 
BRANCH   7  10
ATOM     10  C   UNL     1      47.629   3.532  16.655  0.00  0.00    +0.000 C 
ATOM     11  N   UNL     1      48.592   2.563  16.682  0.00  0.00    +0.000 N 
ATOM     12  O   UNL     1      46.508   3.329  17.106  0.00  0.00    +0.000 OA
ATOM     13  H   UNL     1      49.522   2.772  16.351  0.00  0.00    +0.000 HD
ATOM     14  H   UNL     1      48.384   1.672  17.105  0.00  0.00    +0.000 HD
ENDBRANCH   7  10
ENDBRANCH   1   9
BRANCH   1  15
ATOM     15  C   UNL     1      46.163   7.193  12.807  0.00  0.00    +0.000 C 
BRANCH  15  16
ATOM     16  C   UNL     1      45.239   6.342  11.954  0.00  0.00    +0.000 A 
ATOM     17  C   UNL     1      43.857   6.346  12.173  0.00  0.00    +0.000 A 
ATOM     18  C   UNL     1      43.033   5.509  11.432  0.00  0.00    +0.000 A 
ATOM     19  F   UNL     1      41.713   5.507  11.668  0.00  0.00    +0.000 F 
ATOM     20  C   UNL     1      43.550   4.656  10.459  0.00  0.00    +0.000 A 
ATOM     21  C   UNL     1      44.930   4.628  10.194  0.00  0.00    +0.000 A 
ATOM     22  C   UNL     1      45.754   5.493  10.951  0.00  0.00    +0.000 A 
BRANCH  21  23
ATOM     23  C   UNL     1      45.492   3.710   9.177  0.00  0.00    +0.000 A 
ATOM     24  C   UNL     1      46.127   4.172   8.012  0.00  0.00    +0.000 A 
ATOM     25  C   UNL     1      46.641   3.277   7.074  0.00  0.00    +0.000 A 
ATOM     26  C   UNL     1      46.516   1.923   7.320  0.00  0.00    +0.000 A 
ATOM     27  N   UNL     1      45.914   1.421   8.416  0.00  0.00    +0.000 NA
ATOM     28  C   UNL     1      45.420   2.319   9.305  0.00  0.00    +0.000 A 
ENDBRANCH  21  23
ENDBRANCH  15  16
ENDBRANCH   1  15
TORSDOF 5
ENDMDL
MODEL 4
REMARK VINA RESULT:    -7.855      1.558      2.112
REMARK INTER + INTRA:         -10.906
REMARK INTER:                 -10.462
REMARK INTRA:                  -0.444
REMARK UNBOUND:                -0.755
REMARK  Name = 
REMARK  6 active torsions:
REMARK  status: ('A' for Active; 'I' for Inactive)
REMARK    1  A    between atoms: C_1  and  C_2
REMARK    2  A    between atoms: C_5  and  C_6
REMARK    3  A    between atoms: C_10  and  N_11
REMARK    4  A    between atoms: N_11  and  C_12
REMARK    5  A    between atoms: C_12  and  C_13
REMARK    6  A    between atoms: C_18  and  C_19
REMARK                            x       y       z     vdW  Elec       q    Type
REMARK                         _______ _______ _______ _____ _____    ______ ____
ROOT
ATOM      1  N   UNL     1      44.533   6.865  12.397  0.00  0.00    +0.000 N 
ATOM      2  H   UNL     1      44.540   6.006  12.934  0.00  0.00    +0.000 HD
ENDROOT
BRANCH   1   9
ATOM      3  C   UNL     1      44.556   9.708  11.678  0.00  0.00    +0.000 C 
ATOM      4  C   UNL     1      45.729   8.991  12.285  0.00  0.00    +0.000 A 
ATOM      5  C   UNL     1      46.916   9.718  12.475  0.00  0.00    +0.000 A 
ATOM      6  C   UNL     1      48.025   9.102  13.026  0.00  0.00    +0.000 A 
ATOM      7  C   UNL     1      47.907   7.771  13.377  0.00  0.00    +0.000 A 
ATOM      8  N   UNL     1      46.772   7.027  13.206  0.00  0.00    +0.000 NA
ATOM      9  C   UNL     1      45.689   7.633  12.665  0.00  0.00    +0.000 A 
BRANCH   7  10
ATOM     10  C   UNL     1      49.096   7.086  13.980  0.00  0.00    +0.000 C 
ATOM     11  N   UNL     1      50.319   7.514  13.546  0.00  0.00    +0.000 N 
ATOM     12  O   UNL     1      48.990   6.195  14.815  0.00  0.00    +0.000 OA
ATOM     13  H   UNL     1      50.381   8.283  12.897  0.00  0.00    +0.000 HD
ATOM     14  H   UNL     1      51.152   7.105  13.941  0.00  0.00    +0.000 HD
ENDBRANCH   7  10
ENDBRANCH   1   9
BRANCH   1  15
ATOM     15  C   UNL     1      44.273   6.633  10.980  0.00  0.00    +0.000 C 
BRANCH  15  16
ATOM     16  C   UNL     1      44.276   5.151  10.652  0.00  0.00    +0.000 A 
ATOM     17  C   UNL     1      43.592   4.238  11.463  0.00  0.00    +0.000 A 
ATOM     18  C   UNL     1      43.663   2.877  11.191  0.00  0.00    +0.000 A 
ATOM     19  F   UNL     1      43.021   2.012  11.988  0.00  0.00    +0.000 F 
ATOM     20  C   UNL     1      44.402   2.389  10.115  0.00  0.00    +0.000 A 
ATOM     21  C   UNL     1      45.093   3.270   9.264  0.00  0.00    +0.000 A 
ATOM     22  C   UNL     1      45.003   4.652   9.551  0.00  0.00    +0.000 A 
BRANCH  21  23
ATOM     23  C   UNL     1      45.898   2.760   8.131  0.00  0.00    +0.000 A 
ATOM     24  C   UNL     1      46.246   3.562   7.032  0.00  0.00    +0.000 A 
ATOM     25  C   UNL     1      47.003   3.046   5.980  0.00  0.00    +0.000 A 
ATOM     26  C   UNL     1      47.408   1.727   6.048  0.00  0.00    +0.000 A 
ATOM     27  N   UNL     1      47.102   0.908   7.074  0.00  0.00    +0.000 NA
ATOM     28  C   UNL     1      46.360   1.441   8.077  0.00  0.00    +0.000 A 
ENDBRANCH  21  23
ENDBRANCH  15  16
ENDBRANCH   1  15
TORSDOF 5
ENDMDL
MODEL 5
REMARK VINA RESULT:    -7.394      3.650      5.765
REMARK INTER + INTRA:         -10.310
REMARK INTER:                  -9.458
REMARK INTRA:                  -0.852
REMARK UNBOUND:                -0.755
REMARK  Name = 
REMARK  6 active torsions:
REMARK  status: ('A' for Active; 'I' for Inactive)
REMARK    1  A    between atoms: C_1  and  C_2
REMARK    2  A    between atoms: C_5  and  C_6
REMARK    3  A    between atoms: C_10  and  N_11
REMARK    4  A    between atoms: N_11  and  C_12
REMARK    5  A    between atoms: C_12  and  C_13
REMARK    6  A    between atoms: C_18  and  C_19
REMARK                            x       y       z     vdW  Elec       q    Type
REMARK                         _______ _______ _______ _____ _____    ______ ____
ROOT
ATOM      1  N   UNL     1      48.291   6.688  16.466  0.00  0.00    +0.000 N 
ATOM      2  H   UNL     1      47.337   6.718  16.124  0.00  0.00    +0.000 HD
ENDROOT
BRANCH   1   9
ATOM      3  C   UNL     1      47.526   6.844  19.293  0.00  0.00    +0.000 C 
ATOM      4  C   UNL     1      48.167   5.637  18.667  0.00  0.00    +0.000 A 
ATOM      5  C   UNL     1      48.454   4.541  19.497  0.00  0.00    +0.000 A 
ATOM      6  C   UNL     1      49.048   3.410  18.969  0.00  0.00    +0.000 A 
ATOM      7  C   UNL     1      49.332   3.409  17.617  0.00  0.00    +0.000 A 
ATOM      8  N   UNL     1      49.071   4.455  16.775  0.00  0.00    +0.000 NA
ATOM      9  C   UNL     1      48.491   5.562  17.295  0.00  0.00    +0.000 A 
BRANCH   7  10
ATOM     10  C   UNL     1      49.971   2.189  17.024  0.00  0.00    +0.000 C 
ATOM     11  N   UNL     1      50.967   1.615  17.762  0.00  0.00    +0.000 N 
ATOM     12  O   UNL     1      49.628   1.725  15.944  0.00  0.00    +0.000 OA
ATOM     13  H   UNL     1      51.195   1.986  18.672  0.00  0.00    +0.000 HD
ATOM     14  H   UNL     1      51.411   0.776  17.422  0.00  0.00    +0.000 HD
ENDBRANCH   7  10
ENDBRANCH   1   9
BRANCH   1  15
ATOM     15  C   UNL     1      49.270   6.835  15.394  0.00  0.00    +0.000 C 
BRANCH  15  16
ATOM     16  C   UNL     1      48.596   6.915  14.035  0.00  0.00    +0.000 A 
ATOM     17  C   UNL     1      48.990   7.876  13.098  0.00  0.00    +0.000 A 
ATOM     18  C   UNL     1      48.317   7.983  11.887  0.00  0.00    +0.000 A 
ATOM     19  F   UNL     1      48.691   8.923  11.007  0.00  0.00    +0.000 F 
ATOM     20  C   UNL     1      47.249   7.145  11.573  0.00  0.00    +0.000 A 
ATOM     21  C   UNL     1      46.828   6.155  12.478  0.00  0.00    +0.000 A 
ATOM     22  C   UNL     1      47.530   6.054  13.702  0.00  0.00    +0.000 A 
BRANCH  21  23
ATOM     23  C   UNL     1      45.680   5.274  12.162  0.00  0.00    +0.000 A 
ATOM     24  C   UNL     1      45.110   5.208  10.881  0.00  0.00    +0.000 A 
ATOM     25  C   UNL     1      44.026   4.369  10.622  0.00  0.00    +0.000 A 
ATOM     26  C   UNL     1      43.531   3.598  11.656  0.00  0.00    +0.000 A 
ATOM     27  N   UNL     1      44.033   3.622  12.906  0.00  0.00    +0.000 NA
ATOM     28  C   UNL     1      45.083   4.453  13.124  0.00  0.00    +0.000 A 
ENDBRANCH  21  23
ENDBRANCH  15  16
ENDBRANCH   1  15
TORSDOF 5
ENDMDL
MODEL 6
REMARK VINA RESULT:    -7.110      2.744      4.408
REMARK INTER + INTRA:          -9.943
REMARK INTER:                  -9.162
REMARK INTRA:                  -0.782
REMARK UNBOUND:                -0.755
REMARK  Name = 
REMARK  6 active torsions:
REMARK  status: ('A' for Active; 'I' for Inactive)
REMARK    1  A    between atoms: C_1  and  C_2
REMARK    2  A    between atoms: C_5  and  C_6
REMARK    3  A    between atoms: C_10  and  N_11
REMARK    4  A    between atoms: N_11  and  C_12
REMARK    5  A    between atoms: C_12  and  C_13
REMARK    6  A    between atoms: C_18  and  C_19
REMARK                            x       y       z     vdW  Elec       q    Type
REMARK                         _______ _______ _______ _____ _____    ______ ____
ROOT
ATOM      1  N   UNL     1      48.801   7.710  15.196  0.00  0.00    +0.000 N 
ATOM      2  H   UNL     1      48.062   8.402  15.249  0.00  0.00    +0.000 HD
ENDROOT
BRANCH   1   9
ATOM      3  C   UNL     1      49.414   8.587  17.926  0.00  0.00    +0.000 C 
ATOM      4  C   UNL     1      49.029   7.179  17.569  0.00  0.00    +0.000 A 
ATOM      5  C   UNL     1      49.006   6.224  18.598  0.00  0.00    +0.000 A 
ATOM      6  C   UNL     1      48.663   4.914  18.319  0.00  0.00    +0.000 A 
ATOM      7  C   UNL     1      48.345   4.601  17.011  0.00  0.00    +0.000 A 
ATOM      8  N   UNL     1      48.358   5.500  15.980  0.00  0.00    +0.000 NA
ATOM      9  C   UNL     1      48.696   6.782  16.257  0.00  0.00    +0.000 A 
BRANCH   7  10
ATOM     10  C   UNL     1      47.965   3.188  16.689  0.00  0.00    +0.000 C 
ATOM     11  N   UNL     1      46.966   2.647  17.449  0.00  0.00    +0.000 N 
ATOM     12  O   UNL     1      48.509   2.545  15.799  0.00  0.00    +0.000 OA
ATOM     13  H   UNL     1      46.499   3.213  18.140  0.00  0.00    +0.000 HD
ATOM     14  H   UNL     1      46.653   1.708  17.255  0.00  0.00    +0.000 HD
ENDBRANCH   7  10
ENDBRANCH   1   9
BRANCH   1  15
ATOM     15  C   UNL     1      48.904   7.108  13.871  0.00  0.00    +0.000 C 
BRANCH  15  16
ATOM     16  C   UNL     1      47.606   7.251  13.095  0.00  0.00    +0.000 A 
ATOM     17  C   UNL     1      46.806   8.389  13.245  0.00  0.00    +0.000 A 
ATOM     18  C   UNL     1      45.587   8.475  12.583  0.00  0.00    +0.000 A 
ATOM     19  F   UNL     1      44.821   9.561  12.753  0.00  0.00    +0.000 F 
ATOM     20  C   UNL     1      45.136   7.446  11.759  0.00  0.00    +0.000 A 
ATOM     21  C   UNL     1      45.913   6.291  11.566  0.00  0.00    +0.000 A 
ATOM     22  C   UNL     1      47.154   6.225  12.240  0.00  0.00    +0.000 A 
BRANCH  21  23
ATOM     23  C   UNL     1      45.432   5.183  10.708  0.00  0.00    +0.000 A 
ATOM     24  C   UNL     1      45.631   5.165   9.318  0.00  0.00    +0.000 A 
ATOM     25  C   UNL     1      45.160   4.107   8.541  0.00  0.00    +0.000 A 
ATOM     26  C   UNL     1      44.497   3.072   9.173  0.00  0.00    +0.000 A 
ATOM     27  N   UNL     1      44.273   3.037  10.501  0.00  0.00    +0.000 NA
ATOM     28  C   UNL     1      44.739   4.085  11.226  0.00  0.00    +0.000 A 
ENDBRANCH  21  23
ENDBRANCH  15  16
ENDBRANCH   1  15
TORSDOF 5
ENDMDL
MODEL 7
REMARK VINA RESULT:    -7.109      2.905      7.224
REMARK INTER + INTRA:          -9.942
REMARK INTER:                  -9.053
REMARK INTRA:                  -0.889
REMARK UNBOUND:                -0.755
REMARK  Name = 
REMARK  6 active torsions:
REMARK  status: ('A' for Active; 'I' for Inactive)
REMARK    1  A    between atoms: C_1  and  C_2
REMARK    2  A    between atoms: C_5  and  C_6
REMARK    3  A    between atoms: C_10  and  N_11
REMARK    4  A    between atoms: N_11  and  C_12
REMARK    5  A    between atoms: C_12  and  C_13
REMARK    6  A    between atoms: C_18  and  C_19
REMARK                            x       y       z     vdW  Elec       q    Type
REMARK                         _______ _______ _______ _____ _____    ______ ____
ROOT
ATOM      1  N   UNL     1      44.222   5.414  10.709  0.00  0.00    +0.000 N 
ATOM      2  H   UNL     1      43.313   5.780  10.450  0.00  0.00    +0.000 HD
ENDROOT
BRANCH   1   9
ATOM      3  C   UNL     1      43.267   2.830  11.713  0.00  0.00    +0.000 C 
ATOM      4  C   UNL     1      44.101   2.987  10.472  0.00  0.00    +0.000 A 
ATOM      5  C   UNL     1      44.477   1.823   9.783  0.00  0.00    +0.000 A 
ATOM      6  C   UNL     1      45.248   1.914   8.638  0.00  0.00    +0.000 A 
ATOM      7  C   UNL     1      45.614   3.178   8.214  0.00  0.00    +0.000 A 
ATOM      8  N   UNL     1      45.270   4.335   8.857  0.00  0.00    +0.000 NA
ATOM      9  C   UNL     1      44.517   4.241   9.978  0.00  0.00    +0.000 A 
BRANCH   7  10
ATOM     10  C   UNL     1      46.444   3.299   6.972  0.00  0.00    +0.000 C 
ATOM     11  N   UNL     1      46.940   2.131   6.465  0.00  0.00    +0.000 N 
ATOM     12  O   UNL     1      46.671   4.375   6.434  0.00  0.00    +0.000 OA
ATOM     13  H   UNL     1      46.696   1.252   6.897  0.00  0.00    +0.000 HD
ATOM     14  H   UNL     1      47.482   2.153   5.616  0.00  0.00    +0.000 HD
ENDBRANCH   7  10
ENDBRANCH   1   9
BRANCH   1  15
ATOM     15  C   UNL     1      45.264   6.435  10.665  0.00  0.00    +0.000 C 
BRANCH  15  16
ATOM     16  C   UNL     1      46.266   6.252  11.792  0.00  0.00    +0.000 A 
ATOM     17  C   UNL     1      45.960   5.450  12.897  0.00  0.00    +0.000 A 
ATOM     18  C   UNL     1      46.857   5.349  13.953  0.00  0.00    +0.000 A 
ATOM     19  F   UNL     1      46.541   4.594  15.015  0.00  0.00    +0.000 F 
ATOM     20  C   UNL     1      48.073   6.030  13.940  0.00  0.00    +0.000 A 
ATOM     21  C   UNL     1      48.430   6.835  12.845  0.00  0.00    +0.000 A 
ATOM     22  C   UNL     1      47.508   6.919  11.775  0.00  0.00    +0.000 A 
BRANCH  21  23
ATOM     23  C   UNL     1      49.710   7.579  12.831  0.00  0.00    +0.000 A 
ATOM     24  C   UNL     1      50.344   7.968  11.639  0.00  0.00    +0.000 A 
ATOM     25  C   UNL     1      51.552   8.664  11.665  0.00  0.00    +0.000 A 
ATOM     26  C   UNL     1      52.108   8.968  12.892  0.00  0.00    +0.000 A 
ATOM     27  N   UNL     1      51.550   8.618  14.068  0.00  0.00    +0.000 NA
ATOM     28  C   UNL     1      50.378   7.937  14.006  0.00  0.00    +0.000 A 
ENDBRANCH  21  23
ENDBRANCH  15  16
ENDBRANCH   1  15
TORSDOF 5
ENDMDL
MODEL 8
REMARK VINA RESULT:    -7.045      2.067      2.935
REMARK INTER + INTRA:          -9.860
REMARK INTER:                  -8.976
REMARK INTRA:                  -0.884
REMARK UNBOUND:                -0.755
REMARK  Name = 
REMARK  6 active torsions:
REMARK  status: ('A' for Active; 'I' for Inactive)
REMARK    1  A    between atoms: C_1  and  C_2
REMARK    2  A    between atoms: C_5  and  C_6
REMARK    3  A    between atoms: C_10  and  N_11
REMARK    4  A    between atoms: N_11  and  C_12
REMARK    5  A    between atoms: C_12  and  C_13
REMARK    6  A    between atoms: C_18  and  C_19
REMARK                            x       y       z     vdW  Elec       q    Type
REMARK                         _______ _______ _______ _____ _____    ______ ____
ROOT
ATOM      1  N   UNL     1      47.640   6.320  12.881  0.00  0.00    +0.000 N 
ATOM      2  H   UNL     1      48.454   6.822  12.545  0.00  0.00    +0.000 HD
ENDROOT
BRANCH   1   9
ATOM      3  C   UNL     1      46.720   3.642  13.644  0.00  0.00    +0.000 C 
ATOM      4  C   UNL     1      47.360   4.609  14.601  0.00  0.00    +0.000 A 
ATOM      5  C   UNL     1      47.483   4.219  15.944  0.00  0.00    +0.000 A 
ATOM      6  C   UNL     1      48.061   5.074  16.864  0.00  0.00    +0.000 A 
ATOM      7  C   UNL     1      48.507   6.299  16.404  0.00  0.00    +0.000 A 
ATOM      8  N   UNL     1      48.404   6.718  15.106  0.00  0.00    +0.000 NA
ATOM      9  C   UNL     1      47.837   5.878  14.209  0.00  0.00    +0.000 A 
BRANCH   7  10
ATOM     10  C   UNL     1      49.141   7.239  17.384  0.00  0.00    +0.000 C 
ATOM     11  N   UNL     1      48.627   8.504  17.422  0.00  0.00    +0.000 N 
ATOM     12  O   UNL     1      50.066   6.904  18.114  0.00  0.00    +0.000 OA
ATOM     13  H   UNL     1      47.832   8.740  16.848  0.00  0.00    +0.000 HD
ATOM     14  H   UNL     1      49.000   9.168  18.083  0.00  0.00    +0.000 HD
ENDBRANCH   7  10
ENDBRANCH   1   9
BRANCH   1  15
ATOM     15  C   UNL     1      46.402   7.062  12.666  0.00  0.00    +0.000 C 
BRANCH  15  16
ATOM     16  C   UNL     1      45.421   6.268  11.820  0.00  0.00    +0.000 A 
ATOM     17  C   UNL     1      44.046   6.331  12.073  0.00  0.00    +0.000 A 
ATOM     18  C   UNL     1      43.167   5.545  11.337  0.00  0.00    +0.000 A 
ATOM     19  F   UNL     1      41.855   5.599  11.604  0.00  0.00    +0.000 F 
ATOM     20  C   UNL     1      43.623   4.687  10.338  0.00  0.00    +0.000 A 
ATOM     21  C   UNL     1      44.993   4.602  10.039  0.00  0.00    +0.000 A 
ATOM     22  C   UNL     1      45.873   5.416  10.792  0.00  0.00    +0.000 A 
BRANCH  21  23
ATOM     23  C   UNL     1      45.489   3.678   8.994  0.00  0.00    +0.000 A 
ATOM     24  C   UNL     1      46.023   4.133   7.777  0.00  0.00    +0.000 A 
ATOM     25  C   UNL     1      46.477   3.232   6.813  0.00  0.00    +0.000 A 
ATOM     26  C   UNL     1      46.394   1.881   7.087  0.00  0.00    +0.000 A 
ATOM     27  N   UNL     1      45.889   1.385   8.233  0.00  0.00    +0.000 NA
ATOM     28  C   UNL     1      45.451   2.289   9.146  0.00  0.00    +0.000 A 
ENDBRANCH  21  23
ENDBRANCH  15  16
ENDBRANCH   1  15
TORSDOF 5
ENDMDL
MODEL 9
REMARK VINA RESULT:    -6.978      4.258      8.208
REMARK INTER + INTRA:          -9.773
REMARK INTER:                  -9.158
REMARK INTRA:                  -0.615
REMARK UNBOUND:                -0.755
REMARK  Name = 
REMARK  6 active torsions:
REMARK  status: ('A' for Active; 'I' for Inactive)
REMARK    1  A    between atoms: C_1  and  C_2
REMARK    2  A    between atoms: C_5  and  C_6
REMARK    3  A    between atoms: C_10  and  N_11
REMARK    4  A    between atoms: N_11  and  C_12
REMARK    5  A    between atoms: C_12  and  C_13
REMARK    6  A    between atoms: C_18  and  C_19
REMARK                            x       y       z     vdW  Elec       q    Type
REMARK                         _______ _______ _______ _____ _____    ______ ____
ROOT
ATOM      1  N   UNL     1      47.143   5.344  14.514  0.00  0.00    +0.000 N 
ATOM      2  H   UNL     1      48.146   5.471  14.442  0.00  0.00    +0.000 HD
ENDROOT
BRANCH   1   9
ATOM      3  C   UNL     1      47.737   7.450  12.561  0.00  0.00    +0.000 C 
ATOM      4  C   UNL     1      46.795   6.308  12.298  0.00  0.00    +0.000 A 
ATOM      5  C   UNL     1      46.132   6.277  11.060  0.00  0.00    +0.000 A 
ATOM      6  C   UNL     1      45.253   5.250  10.772  0.00  0.00    +0.000 A 
ATOM      7  C   UNL     1      45.069   4.277  11.735  0.00  0.00    +0.000 A 
ATOM      8  N   UNL     1      45.693   4.271  12.953  0.00  0.00    +0.000 NA
ATOM      9  C   UNL     1      46.553   5.279  13.232  0.00  0.00    +0.000 A 
BRANCH   7  10
ATOM     10  C   UNL     1      44.124   3.152  11.439  0.00  0.00    +0.000 C 
ATOM     11  N   UNL     1      43.700   2.424  12.516  0.00  0.00    +0.000 N 
ATOM     12  O   UNL     1      43.745   2.890  10.304  0.00  0.00    +0.000 OA
ATOM     13  H   UNL     1      43.986   2.692  13.446  0.00  0.00    +0.000 HD
ATOM     14  H   UNL     1      43.043   1.674  12.375  0.00  0.00    +0.000 HD
ENDBRANCH   7  10
ENDBRANCH   1   9
BRANCH   1  15
ATOM     15  C   UNL     1      46.784   4.245  15.404  0.00  0.00    +0.000 C 
BRANCH  15  16
ATOM     16  C   UNL     1      47.649   4.238  16.653  0.00  0.00    +0.000 A 
ATOM     17  C   UNL     1      47.257   4.941  17.798  0.00  0.00    +0.000 A 
ATOM     18  C   UNL     1      48.093   4.984  18.907  0.00  0.00    +0.000 A 
ATOM     19  F   UNL     1      47.714   5.679  19.989  0.00  0.00    +0.000 F 
ATOM     20  C   UNL     1      49.325   4.333  18.914  0.00  0.00    +0.000 A 
ATOM     21  C   UNL     1      49.753   3.602  17.792  0.00  0.00    +0.000 A 
ATOM     22  C   UNL     1      48.887   3.562  16.675  0.00  0.00    +0.000 A 
BRANCH  21  23
ATOM     23  C   UNL     1      51.070   2.925  17.782  0.00  0.00    +0.000 A 
ATOM     24  C   UNL     1      51.223   1.580  17.407  0.00  0.00    +0.000 A 
ATOM     25  C   UNL     1      52.479   0.974  17.413  0.00  0.00    +0.000 A 
ATOM     26  C   UNL     1      53.572   1.730  17.792  0.00  0.00    +0.000 A 
ATOM     27  N   UNL     1      53.486   3.022  18.166  0.00  0.00    +0.000 NA
ATOM     28  C   UNL     1      52.249   3.578  18.154  0.00  0.00    +0.000 A 
ENDBRANCH  21  23
ENDBRANCH  15  16
ENDBRANCH   1  15
TORSDOF 5
ENDMDL
