MODEL 1
REMARK VINA RESULT:    -7.736      0.000      0.000
REMARK INTER + INTRA:         -10.228
REMARK INTER:                  -9.546
REMARK INTRA:                  -0.682
REMARK UNBOUND:                -0.682
REMARK  Name = 
REMARK  4 active torsions:
REMARK  status: ('A' for Active; 'I' for Inactive)
REMARK    1  A    between atoms: C_2  and  C_3
REMARK    2  A    between atoms: C_7  and  C_8
REMARK    3  A    between atoms: C_8  and  N_9
REMARK    4  A    between atoms: C_11  and  C_12
REMARK                            x       y       z     vdW  Elec       q    Type
REMARK                         _______ _______ _______ _____ _____    ______ ____
ROOT
ATOM      1  N   UNL     1      44.967   4.274  11.598  0.00  0.00    +0.000 N 
ATOM      2  C   UNL     1      45.574   3.413  12.481  0.00  0.00    +0.000 A 
ATOM      3  C   UNL     1      46.312   4.162  13.370  0.00  0.00    +0.000 A 
ATOM      4  C   UNL     1      46.159   5.532  13.018  0.00  0.00    +0.000 A 
ATOM      5  C   UNL     1      46.680   6.742  13.529  0.00  0.00    +0.000 A 
ATOM      6  C   UNL     1      46.329   7.955  12.928  0.00  0.00    +0.000 A 
ATOM      7  C   UNL     1      45.465   7.981  11.839  0.00  0.00    +0.000 A 
ATOM      8  C   UNL     1      44.936   6.799  11.312  0.00  0.00    +0.000 A 
ATOM      9  C   UNL     1      45.299   5.581  11.911  0.00  0.00    +0.000 A 
ENDROOT
BRANCH   3  10
ATOM     10  C   UNL     1      47.106   3.632  14.435  0.00  0.00    +0.000 C 
ATOM     11  N   UNL     1      47.747   3.195  15.298  0.00  0.00    +0.000 NA
ENDBRANCH   3  10
BRANCH   1  12
ATOM     12  C   UNL     1      44.201   3.845  10.431  0.00  0.00    +0.000 C 
BRANCH  12  17
ATOM     13  C   UNL     1      46.222   1.736   7.969  0.00  0.00    +0.000 A 
ATOM     14  C   UNL     1      46.730   2.717   7.113  0.00  0.00    +0.000 A 
ATOM     15  C   UNL     1      46.430   4.061   7.338  0.00  0.00    +0.000 A 
ATOM     16  C   UNL     1      45.617   4.426   8.413  0.00  0.00    +0.000 A 
ATOM     17  C   UNL     1      45.088   3.454   9.275  0.00  0.00    +0.000 A 
ATOM     18  C   UNL     1      45.401   2.105   9.043  0.00  0.00    +0.000 A 
BRANCH  13  20
ATOM     19  N   UNL     1      46.803  -0.764   7.592  0.00  0.00    +0.000 NA
ATOM     20  C   UNL     1      46.550   0.357   7.756  0.00  0.00    +0.000 C 
ENDBRANCH  13  20
ENDBRANCH  12  17
ENDBRANCH   1  12
TORSDOF 4
ENDMDL
MODEL 2
REMARK VINA RESULT:    -7.006      1.394      2.851
REMARK INTER + INTRA:          -9.326
REMARK INTER:                  -8.676
REMARK INTRA:                  -0.650
REMARK UNBOUND:                -0.682
REMARK  Name = 
REMARK  4 active torsions:
REMARK  status: ('A' for Active; 'I' for Inactive)
REMARK    1  A    between atoms: C_2  and  C_3
REMARK    2  A    between atoms: C_7  and  C_8
REMARK    3  A    between atoms: C_8  and  N_9
REMARK    4  A    between atoms: C_11  and  C_12
REMARK                            x       y       z     vdW  Elec       q    Type
REMARK                         _______ _______ _______ _____ _____    ______ ____
ROOT
ATOM      1  N   UNL     1      44.821   4.954  10.969  0.00  0.00    +0.000 N 
ATOM      2  C   UNL     1      44.627   6.315  10.942  0.00  0.00    +0.000 A 
ATOM      3  C   UNL     1      45.249   6.857  12.045  0.00  0.00    +0.000 A 
ATOM      4  C   UNL     1      45.842   5.792  12.778  0.00  0.00    +0.000 A 
ATOM      5  C   UNL     1      46.576   5.719  13.983  0.00  0.00    +0.000 A 
ATOM      6  C   UNL     1      47.020   4.477  14.448  0.00  0.00    +0.000 A 
ATOM      7  C   UNL     1      46.753   3.316  13.731  0.00  0.00    +0.000 A 
ATOM      8  C   UNL     1      46.028   3.360  12.537  0.00  0.00    +0.000 A 
ATOM      9  C   UNL     1      45.574   4.608  12.077  0.00  0.00    +0.000 A 
ENDROOT
BRANCH   3  10
ATOM     10  C   UNL     1      45.259   8.246  12.385  0.00  0.00    +0.000 C 
ATOM     11  N   UNL     1      45.274   9.373  12.659  0.00  0.00    +0.000 NA
ENDBRANCH   3  10
BRANCH   1  12
ATOM     12  C   UNL     1      44.204   4.021  10.031  0.00  0.00    +0.000 C 
BRANCH  12  17
ATOM     13  C   UNL     1      46.327   1.704   7.858  0.00  0.00    +0.000 A 
ATOM     14  C   UNL     1      46.972   2.620   7.023  0.00  0.00    +0.000 A 
ATOM     15  C   UNL     1      46.731   3.986   7.168  0.00  0.00    +0.000 A 
ATOM     16  C   UNL     1      45.841   4.439   8.144  0.00  0.00    +0.000 A 
ATOM     17  C   UNL     1      45.174   3.534   8.983  0.00  0.00    +0.000 A 
ATOM     18  C   UNL     1      45.429   2.162   8.831  0.00  0.00    +0.000 A 
BRANCH  13  20
ATOM     19  N   UNL     1      46.798  -0.834   7.612  0.00  0.00    +0.000 NA
ATOM     20  C   UNL     1      46.593   0.302   7.728  0.00  0.00    +0.000 C 
ENDBRANCH  13  20
ENDBRANCH  12  17
ENDBRANCH   1  12
TORSDOF 4
ENDMDL
MODEL 3
REMARK VINA RESULT:    -6.541      1.740      2.445
REMARK INTER + INTRA:          -8.753
REMARK INTER:                  -8.305
REMARK INTRA:                  -0.448
REMARK UNBOUND:                -0.682
REMARK  Name = 
REMARK  4 active torsions:
REMARK  status: ('A' for Active; 'I' for Inactive)
REMARK    1  A    between atoms: C_2  and  C_3
REMARK    2  A    between atoms: C_7  and  C_8
REMARK    3  A    between atoms: C_8  and  N_9
REMARK    4  A    between atoms: C_11  and  C_12
REMARK                            x       y       z     vdW  Elec       q    Type
REMARK                         _______ _______ _______ _____ _____    ______ ____
ROOT
ATOM      1  N   UNL     1      45.698   5.757  12.144  0.00  0.00    +0.000 N 
ATOM      2  C   UNL     1      45.598   4.887  13.204  0.00  0.00    +0.000 A 
ATOM      3  C   UNL     1      46.717   5.042  13.992  0.00  0.00    +0.000 A 
ATOM      4  C   UNL     1      47.537   6.039  13.392  0.00  0.00    +0.000 A 
ATOM      5  C   UNL     1      48.794   6.600  13.712  0.00  0.00    +0.000 A 
ATOM      6  C   UNL     1      49.343   7.583  12.883  0.00  0.00    +0.000 A 
ATOM      7  C   UNL     1      48.661   8.019  11.753  0.00  0.00    +0.000 A 
ATOM      8  C   UNL     1      47.417   7.480  11.413  0.00  0.00    +0.000 A 
ATOM      9  C   UNL     1      46.871   6.484  12.241  0.00  0.00    +0.000 A 
ENDROOT
BRANCH   3  10
ATOM     10  C   UNL     1      46.996   4.302  15.183  0.00  0.00    +0.000 C 
ATOM     11  N   UNL     1      47.228   3.703  16.150  0.00  0.00    +0.000 NA
ENDBRANCH   3  10
BRANCH   1  12
ATOM     12  C   UNL     1      44.760   5.795  11.026  0.00  0.00    +0.000 C 
BRANCH  12  17
ATOM     13  C   UNL     1      45.548   3.355   8.193  0.00  0.00    +0.000 A 
ATOM     14  C   UNL     1      44.917   2.193   8.644  0.00  0.00    +0.000 A 
ATOM     15  C   UNL     1      44.226   2.199   9.855  0.00  0.00    +0.000 A 
ATOM     16  C   UNL     1      44.171   3.365  10.622  0.00  0.00    +0.000 A 
ATOM     17  C   UNL     1      44.809   4.538  10.193  0.00  0.00    +0.000 A 
ATOM     18  C   UNL     1      45.498   4.521   8.969  0.00  0.00    +0.000 A 
BRANCH  13  20
ATOM     19  N   UNL     1      46.799   3.375   5.921  0.00  0.00    +0.000 NA
ATOM     20  C   UNL     1      46.237   3.359   6.936  0.00  0.00    +0.000 C 
ENDBRANCH  13  20
ENDBRANCH  12  17
ENDBRANCH   1  12
TORSDOF 4
ENDMDL
MODEL 4
REMARK VINA RESULT:    -6.175      2.043      3.011
REMARK INTER + INTRA:          -8.301
REMARK INTER:                  -7.724
REMARK INTRA:                  -0.577
REMARK UNBOUND:                -0.682
REMARK  Name = 
REMARK  4 active torsions:
REMARK  status: ('A' for Active; 'I' for Inactive)
REMARK    1  A    between atoms: C_2  and  C_3
REMARK    2  A    between atoms: C_7  and  C_8
REMARK    3  A    between atoms: C_8  and  N_9
REMARK    4  A    between atoms: C_11  and  C_12
REMARK                            x       y       z     vdW  Elec       q    Type
REMARK                         _______ _______ _______ _____ _____    ______ ____
ROOT
ATOM      1  N   UNL     1      44.678   6.618  11.916  0.00  0.00    +0.000 N 
ATOM      2  C   UNL     1      45.697   6.000  12.601  0.00  0.00    +0.000 A 
ATOM      3  C   UNL     1      46.642   6.954  12.913  0.00  0.00    +0.000 A 
ATOM      4  C   UNL     1      46.189   8.200  12.396  0.00  0.00    +0.000 A 
ATOM      5  C   UNL     1      46.724   9.508  12.377  0.00  0.00    +0.000 A 
ATOM      6  C   UNL     1      46.009  10.539  11.759  0.00  0.00    +0.000 A 
ATOM      7  C   UNL     1      44.774  10.290  11.171  0.00  0.00    +0.000 A 
ATOM      8  C   UNL     1      44.223   9.006  11.174  0.00  0.00    +0.000 A 
ATOM      9  C   UNL     1      44.948   7.969  11.786  0.00  0.00    +0.000 A 
ENDROOT
BRANCH   3  10
ATOM     10  C   UNL     1      47.865   6.705  13.610  0.00  0.00    +0.000 C 
ATOM     11  N   UNL     1      48.860   6.500  14.171  0.00  0.00    +0.000 NA
ENDBRANCH   3  10
BRANCH   1  12
ATOM     12  C   UNL     1      43.554   5.910  11.308  0.00  0.00    +0.000 C 
BRANCH  12  17
ATOM     13  C   UNL     1      45.156   3.580   8.740  0.00  0.00    +0.000 A 
ATOM     14  C   UNL     1      44.810   2.325   9.249  0.00  0.00    +0.000 A 
ATOM     15  C   UNL     1      44.050   2.231  10.415  0.00  0.00    +0.000 A 
ATOM     16  C   UNL     1      43.639   3.389  11.077  0.00  0.00    +0.000 A 
ATOM     17  C   UNL     1      43.987   4.658  10.588  0.00  0.00    +0.000 A 
ATOM     18  C   UNL     1      44.749   4.740   9.412  0.00  0.00    +0.000 A 
BRANCH  13  20
ATOM     19  N   UNL     1      46.540   3.768   6.554  0.00  0.00    +0.000 NA
ATOM     20  C   UNL     1      45.915   3.680   7.528  0.00  0.00    +0.000 C 
ENDBRANCH  13  20
ENDBRANCH  12  17
ENDBRANCH   1  12
TORSDOF 4
ENDMDL
MODEL 5
REMARK VINA RESULT:    -5.958      2.492      4.482
REMARK INTER + INTRA:          -8.033
REMARK INTER:                  -7.441
REMARK INTRA:                  -0.592
REMARK UNBOUND:                -0.682
REMARK  Name = 
REMARK  4 active torsions:
REMARK  status: ('A' for Active; 'I' for Inactive)
REMARK    1  A    between atoms: C_2  and  C_3
REMARK    2  A    between atoms: C_7  and  C_8
REMARK    3  A    between atoms: C_8  and  N_9
REMARK    4  A    between atoms: C_11  and  C_12
REMARK                            x       y       z     vdW  Elec       q    Type
REMARK                         _______ _______ _______ _____ _____    ______ ____
ROOT
ATOM      1  N   UNL     1      45.745   6.758  12.774  0.00  0.00    +0.000 N 
ATOM      2  C   UNL     1      44.837   7.770  12.567  0.00  0.00    +0.000 A 
ATOM      3  C   UNL     1      45.536   8.914  12.252  0.00  0.00    +0.000 A 
ATOM      4  C   UNL     1      46.923   8.597  12.271  0.00  0.00    +0.000 A 
ATOM      5  C   UNL     1      48.104   9.343  12.060  0.00  0.00    +0.000 A 
ATOM      6  C   UNL     1      49.348   8.714  12.166  0.00  0.00    +0.000 A 
ATOM      7  C   UNL     1      49.432   7.359  12.468  0.00  0.00    +0.000 A 
ATOM      8  C   UNL     1      48.280   6.598  12.683  0.00  0.00    +0.000 A 
ATOM      9  C   UNL     1      47.031   7.235  12.586  0.00  0.00    +0.000 A 
ENDROOT
BRANCH   3  10
ATOM     10  C   UNL     1      44.949  10.190  11.983  0.00  0.00    +0.000 C 
ATOM     11  N   UNL     1      44.469  11.225  11.771  0.00  0.00    +0.000 NA
ENDBRANCH   3  10
BRANCH   1  12
ATOM     12  C   UNL     1      45.390   5.424  13.249  0.00  0.00    +0.000 C 
BRANCH  12  17
ATOM     13  C   UNL     1      45.034   3.837   9.793  0.00  0.00    +0.000 A 
ATOM     14  C   UNL     1      44.104   2.825  10.047  0.00  0.00    +0.000 A 
ATOM     15  C   UNL     1      43.583   2.662  11.330  0.00  0.00    +0.000 A 
ATOM     16  C   UNL     1      43.995   3.505  12.364  0.00  0.00    +0.000 A 
ATOM     17  C   UNL     1      44.936   4.519  12.132  0.00  0.00    +0.000 A 
ATOM     18  C   UNL     1      45.450   4.677  10.835  0.00  0.00    +0.000 A 
BRANCH  13  20
ATOM     19  N   UNL     1      45.983   4.177   7.403  0.00  0.00    +0.000 NA
ATOM     20  C   UNL     1      45.551   4.023   8.470  0.00  0.00    +0.000 C 
ENDBRANCH  13  20
ENDBRANCH  12  17
ENDBRANCH   1  12
TORSDOF 4
ENDMDL
MODEL 6
REMARK VINA RESULT:    -5.870      2.176      3.667
REMARK INTER + INTRA:          -7.925
REMARK INTER:                  -7.231
REMARK INTRA:                  -0.694
REMARK UNBOUND:                -0.682
REMARK  Name = 
REMARK  4 active torsions:
REMARK  status: ('A' for Active; 'I' for Inactive)
REMARK    1  A    between atoms: C_2  and  C_3
REMARK    2  A    between atoms: C_7  and  C_8
REMARK    3  A    between atoms: C_8  and  N_9
REMARK    4  A    between atoms: C_11  and  C_12
REMARK                            x       y       z     vdW  Elec       q    Type
REMARK                         _______ _______ _______ _____ _____    ______ ____
ROOT
ATOM      1  N   UNL     1      45.511   6.350  11.906  0.00  0.00    +0.000 N 
ATOM      2  C   UNL     1      46.114   7.505  11.468  0.00  0.00    +0.000 A 
ATOM      3  C   UNL     1      47.197   7.757  12.282  0.00  0.00    +0.000 A 
ATOM      4  C   UNL     1      47.258   6.723  13.257  0.00  0.00    +0.000 A 
ATOM      5  C   UNL     1      48.110   6.455  14.352  0.00  0.00    +0.000 A 
ATOM      6  C   UNL     1      47.884   5.324  15.144  0.00  0.00    +0.000 A 
ATOM      7  C   UNL     1      46.835   4.458  14.858  0.00  0.00    +0.000 A 
ATOM      8  C   UNL     1      45.976   4.700  13.782  0.00  0.00    +0.000 A 
ATOM      9  C   UNL     1      46.199   5.843  12.994  0.00  0.00    +0.000 A 
ENDROOT
BRANCH   3  10
ATOM     10  C   UNL     1      48.074   8.880  12.163  0.00  0.00    +0.000 C 
ATOM     11  N   UNL     1      48.787   9.790  12.060  0.00  0.00    +0.000 NA
ENDBRANCH   3  10
BRANCH   1  12
ATOM     12  C   UNL     1      44.256   5.829  11.371  0.00  0.00    +0.000 C 
BRANCH  12  17
ATOM     13  C   UNL     1      45.369   3.528   8.532  0.00  0.00    +0.000 A 
ATOM     14  C   UNL     1      44.857   2.299   8.954  0.00  0.00    +0.000 A 
ATOM     15  C   UNL     1      44.142   2.214  10.149  0.00  0.00    +0.000 A 
ATOM     16  C   UNL     1      43.943   3.355  10.927  0.00  0.00    +0.000 A 
ATOM     17  C   UNL     1      44.460   4.597  10.526  0.00  0.00    +0.000 A 
ATOM     18  C   UNL     1      45.174   4.671   9.320  0.00  0.00    +0.000 A 
BRANCH  13  20
ATOM     19  N   UNL     1      46.654   3.714   6.287  0.00  0.00    +0.000 NA
ATOM     20  C   UNL     1      46.082   3.623   7.293  0.00  0.00    +0.000 C 
ENDBRANCH  13  20
ENDBRANCH  12  17
ENDBRANCH   1  12
TORSDOF 4
ENDMDL
MODEL 7
REMARK VINA RESULT:    -5.681      2.167      6.259
REMARK INTER + INTRA:          -7.691
REMARK INTER:                  -6.977
REMARK INTRA:                  -0.714
REMARK UNBOUND:                -0.682
REMARK  Name = 
REMARK  4 active torsions:
REMARK  status: ('A' for Active; 'I' for Inactive)
REMARK    1  A    between atoms: C_2  and  C_3
REMARK    2  A    between atoms: C_7  and  C_8
REMARK    3  A    between atoms: C_8  and  N_9
REMARK    4  A    between atoms: C_11  and  C_12
REMARK                            x       y       z     vdW  Elec       q    Type
REMARK                         _______ _______ _______ _____ _____    ______ ____
ROOT
ATOM      1  N   UNL     1      45.338   6.315  11.006  0.00  0.00    +0.000 N 
ATOM      2  C   UNL     1      45.814   6.062   9.741  0.00  0.00    +0.000 A 
ATOM      3  C   UNL     1      45.429   4.788   9.387  0.00  0.00    +0.000 A 
ATOM      4  C   UNL     1      44.694   4.237  10.473  0.00  0.00    +0.000 A 
ATOM      5  C   UNL     1      44.078   2.987  10.709  0.00  0.00    +0.000 A 
ATOM      6  C   UNL     1      43.426   2.755  11.924  0.00  0.00    +0.000 A 
ATOM      7  C   UNL     1      43.371   3.746  12.898  0.00  0.00    +0.000 A 
ATOM      8  C   UNL     1      43.973   4.991  12.692  0.00  0.00    +0.000 A 
ATOM      9  C   UNL     1      44.637   5.217  11.474  0.00  0.00    +0.000 A 
ENDROOT
BRANCH   3  10
ATOM     10  C   UNL     1      45.746   4.146   8.149  0.00  0.00    +0.000 C 
ATOM     11  N   UNL     1      46.000   3.629   7.142  0.00  0.00    +0.000 NA
ENDBRANCH   3  10
BRANCH   1  12
ATOM     12  C   UNL     1      45.651   7.518  11.773  0.00  0.00    +0.000 C 
BRANCH  12  17
ATOM     13  C   UNL     1      48.497   6.710  14.190  0.00  0.00    +0.000 A 
ATOM     14  C   UNL     1      49.580   7.331  13.562  0.00  0.00    +0.000 A 
ATOM     15  C   UNL     1      49.390   8.020  12.365  0.00  0.00    +0.000 A 
ATOM     16  C   UNL     1      48.120   8.085  11.789  0.00  0.00    +0.000 A 
ATOM     17  C   UNL     1      47.022   7.458  12.398  0.00  0.00    +0.000 A 
ATOM     18  C   UNL     1      47.225   6.771  13.606  0.00  0.00    +0.000 A 
BRANCH  13  20
ATOM     19  N   UNL     1      48.843   5.456  16.434  0.00  0.00    +0.000 NA
ATOM     20  C   UNL     1      48.684   6.023  15.434  0.00  0.00    +0.000 C 
ENDBRANCH  13  20
ENDBRANCH  12  17
ENDBRANCH   1  12
TORSDOF 4
ENDMDL
MODEL 8
REMARK VINA RESULT:    -5.557      2.762      6.307
REMARK INTER + INTRA:          -7.538
REMARK INTER:                  -6.866
REMARK INTRA:                  -0.672
REMARK UNBOUND:                -0.682
REMARK  Name = 
REMARK  4 active torsions:
REMARK  status: ('A' for Active; 'I' for Inactive)
REMARK    1  A    between atoms: C_2  and  C_3
REMARK    2  A    between atoms: C_7  and  C_8
REMARK    3  A    between atoms: C_8  and  N_9
REMARK    4  A    between atoms: C_11  and  C_12
REMARK                            x       y       z     vdW  Elec       q    Type
REMARK                         _______ _______ _______ _____ _____    ______ ____
ROOT
ATOM      1  N   UNL     1      45.334   6.141  10.836  0.00  0.00    +0.000 N 
ATOM      2  C   UNL     1      45.822   5.894   9.574  0.00  0.00    +0.000 A 
ATOM      3  C   UNL     1      45.444   4.620   9.212  0.00  0.00    +0.000 A 
ATOM      4  C   UNL     1      44.703   4.062  10.291  0.00  0.00    +0.000 A 
ATOM      5  C   UNL     1      44.090   2.809  10.517  0.00  0.00    +0.000 A 
ATOM      6  C   UNL     1      43.429   2.571  11.726  0.00  0.00    +0.000 A 
ATOM      7  C   UNL     1      43.362   3.558  12.703  0.00  0.00    +0.000 A 
ATOM      8  C   UNL     1      43.960   4.806  12.505  0.00  0.00    +0.000 A 
ATOM      9  C   UNL     1      44.634   5.039  11.294  0.00  0.00    +0.000 A 
ENDROOT
BRANCH   3  10
ATOM     10  C   UNL     1      45.774   3.983   7.975  0.00  0.00    +0.000 C 
ATOM     11  N   UNL     1      46.039   3.471   6.968  0.00  0.00    +0.000 NA
ENDBRANCH   3  10
BRANCH   1  12
ATOM     12  C   UNL     1      45.637   7.343  11.609  0.00  0.00    +0.000 C 
BRANCH  12  17
ATOM     13  C   UNL     1      49.386   7.760  12.212  0.00  0.00    +0.000 A 
ATOM     14  C   UNL     1      49.531   7.175  13.473  0.00  0.00    +0.000 A 
ATOM     15  C   UNL     1      48.422   6.636  14.124  0.00  0.00    +0.000 A 
ATOM     16  C   UNL     1      47.165   6.685  13.519  0.00  0.00    +0.000 A 
ATOM     17  C   UNL     1      46.996   7.279  12.259  0.00  0.00    +0.000 A 
ATOM     18  C   UNL     1      48.121   7.814  11.611  0.00  0.00    +0.000 A 
BRANCH  13  20
ATOM     19  N   UNL     1      51.462   8.718  10.988  0.00  0.00    +0.000 NA
ATOM     20  C   UNL     1      50.528   8.291  11.529  0.00  0.00    +0.000 C 
ENDBRANCH  13  20
ENDBRANCH  12  17
ENDBRANCH   1  12
TORSDOF 4
ENDMDL
MODEL 9
REMARK VINA RESULT:    -5.425      3.586      6.802
REMARK INTER + INTRA:          -7.376
REMARK INTER:                  -6.753
REMARK INTRA:                  -0.623
REMARK UNBOUND:                -0.682
REMARK  Name = 
REMARK  4 active torsions:
REMARK  status: ('A' for Active; 'I' for Inactive)
REMARK    1  A    between atoms: C_2  and  C_3
REMARK    2  A    between atoms: C_7  and  C_8
REMARK    3  A    between atoms: C_8  and  N_9
REMARK    4  A    between atoms: C_11  and  C_12
REMARK                            x       y       z     vdW  Elec       q    Type
REMARK                         _______ _______ _______ _____ _____    ______ ____
ROOT
ATOM      1  N   UNL     1      46.544   6.463  12.421  0.00  0.00    +0.000 N 
ATOM      2  C   UNL     1      46.224   7.765  12.118  0.00  0.00    +0.000 A 
ATOM      3  C   UNL     1      44.922   7.791  11.666  0.00  0.00    +0.000 A 
ATOM      4  C   UNL     1      44.427   6.457  11.688  0.00  0.00    +0.000 A 
ATOM      5  C   UNL     1      43.200   5.860  11.324  0.00  0.00    +0.000 A 
ATOM      6  C   UNL     1      43.035   4.478  11.463  0.00  0.00    +0.000 A 
ATOM      7  C   UNL     1      44.065   3.689  11.963  0.00  0.00    +0.000 A 
ATOM      8  C   UNL     1      45.290   4.254  12.329  0.00  0.00    +0.000 A 
ATOM      9  C   UNL     1      45.457   5.642  12.178  0.00  0.00    +0.000 A 
ENDROOT
BRANCH   3  10
ATOM     10  C   UNL     1      44.224   8.961  11.233  0.00  0.00    +0.000 C 
ATOM     11  N   UNL     1      43.657   9.908  10.875  0.00  0.00    +0.000 NA
ENDBRANCH   3  10
BRANCH   1  12
ATOM     12  C   UNL     1      47.879   6.019  12.812  0.00  0.00    +0.000 C 
BRANCH  12  17
ATOM     13  C   UNL     1      47.701   4.751  16.411  0.00  0.00    +0.000 A 
ATOM     14  C   UNL     1      48.354   5.777  17.100  0.00  0.00    +0.000 A 
ATOM     15  C   UNL     1      48.840   6.884  16.404  0.00  0.00    +0.000 A 
ATOM     16  C   UNL     1      48.682   6.965  15.020  0.00  0.00    +0.000 A 
ATOM     17  C   UNL     1      48.041   5.938  14.309  0.00  0.00    +0.000 A 
ATOM     18  C   UNL     1      47.551   4.831  15.020  0.00  0.00    +0.000 A 
BRANCH  13  20
ATOM     19  N   UNL     1      46.740   2.719  17.706  0.00  0.00    +0.000 NA
ATOM     20  C   UNL     1      47.177   3.625  17.126  0.00  0.00    +0.000 C 
ENDBRANCH  13  20
ENDBRANCH  12  17
ENDBRANCH   1  12
TORSDOF 4
ENDMDL
