MODEL 1
REMARK VINA RESULT:    -7.672      0.000      0.000
REMARK INTER + INTRA:         -11.309
REMARK INTER:                 -10.363
REMARK INTRA:                  -0.945
REMARK UNBOUND:                -0.945
REMARK  Name = 
REMARK  6 active torsions:
REMARK  status: ('A' for Active; 'I' for Inactive)
REMARK    1  A    between atoms: C_2  and  C_19
REMARK    2  A    between atoms: N_3  and  C_4
REMARK    3  A    between atoms: C_4  and  C_5
REMARK    4  A    between atoms: C_8  and  C_9
REMARK    5  A    between atoms: C_9  and  O_10
REMARK    6  A    between atoms: O_10  and  C_11
REMARK                            x       y       z     vdW  Elec       q    Type
REMARK                         _______ _______ _______ _____ _____    ______ ____
ROOT
ATOM      1  O   UNL     1      48.432   8.232  16.501  0.00  0.00    +0.000 OA
ATOM      2  C   UNL     1      48.672   7.075  16.201  0.00  0.00    +0.000 C 
ATOM      3  N   UNL     1      48.322   6.489  15.002  0.00  0.00    +0.000 N 
ATOM      4  H   UNL     1      48.741   5.599  14.788  0.00  0.00    +0.000 HD
ENDROOT
BRANCH   2   5
ATOM      5  C   UNL     1      49.562   6.195  16.959  0.00  0.00    +0.000 A 
ATOM      6  C   UNL     1      50.791   6.606  17.438  0.00  0.00    +0.000 A 
ATOM      7  S   UNL     1      51.828   5.266  17.730  0.00  0.00    +0.000 S 
ATOM      8  C   UNL     1      50.594   4.151  17.347  0.00  0.00    +0.000 A 
ATOM      9  N   UNL     1      50.821   2.816  17.223  0.00  0.00    +0.000 NA
ATOM     10  C   UNL     1      49.759   2.120  16.963  0.00  0.00    +0.000 A 
ATOM     11  N   UNL     1      48.485   2.629  16.876  0.00  0.00    +0.000 N 
ATOM     12  C   UNL     1      48.206   3.966  17.018  0.00  0.00    +0.000 A 
ATOM     13  O   UNL     1      47.063   4.399  17.009  0.00  0.00    +0.000 OA
ATOM     14  C   UNL     1      49.388   4.791  17.166  0.00  0.00    +0.000 A 
ATOM     15  H   UNL     1      47.689   2.020  16.752  0.00  0.00    +0.000 HD
ENDBRANCH   2   5
BRANCH   3  16
ATOM     16  C   UNL     1      47.811   7.232  13.882  0.00  0.00    +0.000 C 
BRANCH  16  17
ATOM     17  C   UNL     1      46.784   6.408  13.174  0.00  0.00    +0.000 A 
ATOM     18  C   UNL     1      46.576   5.076  13.458  0.00  0.00    +0.000 A 
ATOM     19  N   UNL     1      45.712   4.289  12.785  0.00  0.00    +0.000 NA
ATOM     20  C   UNL     1      45.024   4.864  11.775  0.00  0.00    +0.000 A 
ATOM     21  N   UNL     1      45.174   6.152  11.399  0.00  0.00    +0.000 NA
ATOM     22  C   UNL     1      46.046   6.893  12.112  0.00  0.00    +0.000 A 
BRANCH  20  23
ATOM     23  C   UNL     1      44.045   4.009  10.999  0.00  0.00    +0.000 C 
BRANCH  23  24
ATOM     24  O   UNL     1      44.047   4.401   9.627  0.00  0.00    +0.000 OA
BRANCH  24  25
ATOM     25  C   UNL     1      44.921   3.634   8.891  0.00  0.00    +0.000 A 
ATOM     26  N   UNL     1      45.652   4.310   7.995  0.00  0.00    +0.000 NA
ATOM     27  C   UNL     1      46.523   3.581   7.273  0.00  0.00    +0.000 A 
ATOM     28  C   UNL     1      46.694   2.226   7.431  0.00  0.00    +0.000 A 
ATOM     29  C   UNL     1      45.905   1.638   8.390  0.00  0.00    +0.000 A 
ATOM     30  N   UNL     1      45.007   2.313   9.132  0.00  0.00    +0.000 NA
ENDBRANCH  24  25
ENDBRANCH  23  24
ENDBRANCH  20  23
ENDBRANCH  16  17
ENDBRANCH   3  16
TORSDOF 6
ENDMDL
MODEL 2
REMARK VINA RESULT:    -7.503      2.795      8.394
REMARK INTER + INTRA:         -11.081
REMARK INTER:                 -10.208
REMARK INTRA:                  -0.873
REMARK UNBOUND:                -0.945
REMARK  Name = 
REMARK  6 active torsions:
REMARK  status: ('A' for Active; 'I' for Inactive)
REMARK    1  A    between atoms: C_2  and  C_19
REMARK    2  A    between atoms: N_3  and  C_4
REMARK    3  A    between atoms: C_4  and  C_5
REMARK    4  A    between atoms: C_8  and  C_9
REMARK    5  A    between atoms: C_9  and  O_10
REMARK    6  A    between atoms: O_10  and  C_11
REMARK                            x       y       z     vdW  Elec       q    Type
REMARK                         _______ _______ _______ _____ _____    ______ ____
ROOT
ATOM      1  O   UNL     1      44.837   7.397  11.407  0.00  0.00    +0.000 OA
ATOM      2  C   UNL     1      45.286   6.264  11.363  0.00  0.00    +0.000 C 
ATOM      3  N   UNL     1      46.520   5.893  11.852  0.00  0.00    +0.000 N 
ATOM      4  H   UNL     1      46.700   4.906  11.940  0.00  0.00    +0.000 HD
ENDROOT
BRANCH   2   5
ATOM      5  C   UNL     1      44.504   5.082  10.997  0.00  0.00    +0.000 A 
ATOM      6  C   UNL     1      43.464   4.604  11.771  0.00  0.00    +0.000 A 
ATOM      7  S   UNL     1      43.153   2.945  11.443  0.00  0.00    +0.000 S 
ATOM      8  C   UNL     1      44.308   2.915  10.187  0.00  0.00    +0.000 A 
ATOM      9  N   UNL     1      44.693   1.766   9.568  0.00  0.00    +0.000 NA
ATOM     10  C   UNL     1      45.553   1.942   8.615  0.00  0.00    +0.000 A 
ATOM     11  N   UNL     1      46.017   3.163   8.185  0.00  0.00    +0.000 N 
ATOM     12  C   UNL     1      45.638   4.348   8.764  0.00  0.00    +0.000 A 
ATOM     13  O   UNL     1      46.001   5.432   8.330  0.00  0.00    +0.000 OA
ATOM     14  C   UNL     1      44.788   4.179   9.925  0.00  0.00    +0.000 A 
ATOM     15  H   UNL     1      46.624   3.235   7.382  0.00  0.00    +0.000 HD
ENDBRANCH   2   5
BRANCH   3  16
ATOM     16  C   UNL     1      47.342   6.758  12.656  0.00  0.00    +0.000 C 
BRANCH  16  17
ATOM     17  C   UNL     1      47.651   6.079  13.951  0.00  0.00    +0.000 A 
ATOM     18  C   UNL     1      48.551   6.590  14.860  0.00  0.00    +0.000 A 
ATOM     19  N   UNL     1      48.906   5.964  16.000  0.00  0.00    +0.000 NA
ATOM     20  C   UNL     1      48.335   4.764  16.240  0.00  0.00    +0.000 A 
ATOM     21  N   UNL     1      47.464   4.163  15.401  0.00  0.00    +0.000 NA
ATOM     22  C   UNL     1      47.140   4.839  14.280  0.00  0.00    +0.000 A 
BRANCH  20  23
ATOM     23  C   UNL     1      48.712   4.033  17.511  0.00  0.00    +0.000 C 
BRANCH  23  24
ATOM     24  O   UNL     1      49.094   2.694  17.201  0.00  0.00    +0.000 OA
BRANCH  24  25
ATOM     25  C   UNL     1      50.428   2.483  17.462  0.00  0.00    +0.000 A 
ATOM     26  N   UNL     1      50.863   1.238  17.225  0.00  0.00    +0.000 NA
ATOM     27  C   UNL     1      52.168   1.013  17.460  0.00  0.00    +0.000 A 
ATOM     28  C   UNL     1      53.039   1.982  17.900  0.00  0.00    +0.000 A 
ATOM     29  C   UNL     1      52.490   3.227  18.093  0.00  0.00    +0.000 A 
ATOM     30  N   UNL     1      51.189   3.507  17.887  0.00  0.00    +0.000 NA
ENDBRANCH  24  25
ENDBRANCH  23  24
ENDBRANCH  20  23
ENDBRANCH  16  17
ENDBRANCH   3  16
TORSDOF 6
ENDMDL
MODEL 3
REMARK VINA RESULT:    -7.196      2.628      4.410
REMARK INTER + INTRA:         -10.666
REMARK INTER:                  -9.812
REMARK INTRA:                  -0.854
REMARK UNBOUND:                -0.945
REMARK  Name = 
REMARK  6 active torsions:
REMARK  status: ('A' for Active; 'I' for Inactive)
REMARK    1  A    between atoms: C_2  and  C_19
REMARK    2  A    between atoms: N_3  and  C_4
REMARK    3  A    between atoms: C_4  and  C_5
REMARK    4  A    between atoms: C_8  and  C_9
REMARK    5  A    between atoms: C_9  and  O_10
REMARK    6  A    between atoms: O_10  and  C_11
REMARK                            x       y       z     vdW  Elec       q    Type
REMARK                         _______ _______ _______ _____ _____    ______ ____
ROOT
ATOM      1  O   UNL     1      49.159   5.765  16.059  0.00  0.00    +0.000 OA
ATOM      2  C   UNL     1      48.720   6.530  15.218  0.00  0.00    +0.000 C 
ATOM      3  N   UNL     1      47.679   6.238  14.361  0.00  0.00    +0.000 N 
ATOM      4  H   UNL     1      47.276   7.006  13.852  0.00  0.00    +0.000 HD
ENDROOT
BRANCH   2   5
ATOM      5  C   UNL     1      49.065   7.950  15.136  0.00  0.00    +0.000 A 
ATOM      6  C   UNL     1      49.216   8.749  16.253  0.00  0.00    +0.000 A 
ATOM      7  S   UNL     1      49.017  10.412  15.863  0.00  0.00    +0.000 S 
ATOM      8  C   UNL     1      48.868  10.064  14.198  0.00  0.00    +0.000 A 
ATOM      9  N   UNL     1      48.511  11.003  13.280  0.00  0.00    +0.000 NA
ATOM     10  C   UNL     1      48.482  10.565  12.061  0.00  0.00    +0.000 A 
ATOM     11  N   UNL     1      48.836   9.296  11.670  0.00  0.00    +0.000 N 
ATOM     12  C   UNL     1      49.225   8.325  12.559  0.00  0.00    +0.000 A 
ATOM     13  O   UNL     1      49.605   7.221  12.195  0.00  0.00    +0.000 OA
ATOM     14  C   UNL     1      49.130   8.737  13.944  0.00  0.00    +0.000 A 
ATOM     15  H   UNL     1      48.871   9.044  10.693  0.00  0.00    +0.000 HD
ENDBRANCH   2   5
BRANCH   3  16
ATOM     16  C   UNL     1      46.855   5.066  14.494  0.00  0.00    +0.000 C 
BRANCH  16  17
ATOM     17  C   UNL     1      46.224   4.758  13.175  0.00  0.00    +0.000 A 
ATOM     18  C   UNL     1      46.058   5.708  12.191  0.00  0.00    +0.000 A 
ATOM     19  N   UNL     1      45.426   5.478  11.023  0.00  0.00    +0.000 NA
ATOM     20  C   UNL     1      44.930   4.237  10.831  0.00  0.00    +0.000 A 
ATOM     21  N   UNL     1      45.014   3.244  11.742  0.00  0.00    +0.000 NA
ATOM     22  C   UNL     1      45.664   3.528  12.889  0.00  0.00    +0.000 A 
BRANCH  20  23
ATOM     23  C   UNL     1      44.213   3.946   9.530  0.00  0.00    +0.000 C 
BRANCH  23  24
ATOM     24  O   UNL     1      44.387   2.573   9.182  0.00  0.00    +0.000 OA
BRANCH  24  25
ATOM     25  C   UNL     1      45.448   2.407   8.322  0.00  0.00    +0.000 A 
ATOM     26  N   UNL     1      46.026   1.199   8.360  0.00  0.00    +0.000 NA
ATOM     27  C   UNL     1      47.058   1.011   7.517  0.00  0.00    +0.000 A 
ATOM     28  C   UNL     1      47.508   1.971   6.641  0.00  0.00    +0.000 A 
ATOM     29  C   UNL     1      46.830   3.166   6.674  0.00  0.00    +0.000 A 
ATOM     30  N   UNL     1      45.801   3.416   7.505  0.00  0.00    +0.000 NA
ENDBRANCH  24  25
ENDBRANCH  23  24
ENDBRANCH  20  23
ENDBRANCH  16  17
ENDBRANCH   3  16
TORSDOF 6
ENDMDL
MODEL 4
REMARK VINA RESULT:    -6.981      3.017      7.964
REMARK INTER + INTRA:         -10.376
REMARK INTER:                  -9.417
REMARK INTRA:                  -0.958
REMARK UNBOUND:                -0.945
REMARK  Name = 
REMARK  6 active torsions:
REMARK  status: ('A' for Active; 'I' for Inactive)
REMARK    1  A    between atoms: C_2  and  C_19
REMARK    2  A    between atoms: N_3  and  C_4
REMARK    3  A    between atoms: C_4  and  C_5
REMARK    4  A    between atoms: C_8  and  C_9
REMARK    5  A    between atoms: C_9  and  O_10
REMARK    6  A    between atoms: O_10  and  C_11
REMARK                            x       y       z     vdW  Elec       q    Type
REMARK                         _______ _______ _______ _____ _____    ______ ____
ROOT
ATOM      1  O   UNL     1      44.665   7.575  11.886  0.00  0.00    +0.000 OA
ATOM      2  C   UNL     1      45.638   6.973  11.464  0.00  0.00    +0.000 C 
ATOM      3  N   UNL     1      46.946   7.316  11.731  0.00  0.00    +0.000 N 
ATOM      4  H   UNL     1      47.654   6.639  11.497  0.00  0.00    +0.000 HD
ENDROOT
BRANCH   2   5
ATOM      5  C   UNL     1      45.576   5.668  10.806  0.00  0.00    +0.000 A 
ATOM      6  C   UNL     1      45.927   5.479   9.482  0.00  0.00    +0.000 A 
ATOM      7  S   UNL     1      45.204   4.057   8.841  0.00  0.00    +0.000 S 
ATOM      8  C   UNL     1      44.545   3.636  10.358  0.00  0.00    +0.000 A 
ATOM      9  N   UNL     1      43.662   2.614  10.517  0.00  0.00    +0.000 NA
ATOM     10  C   UNL     1      43.295   2.419  11.745  0.00  0.00    +0.000 A 
ATOM     11  N   UNL     1      43.776   3.111  12.831  0.00  0.00    +0.000 N 
ATOM     12  C   UNL     1      44.686   4.133  12.719  0.00  0.00    +0.000 A 
ATOM     13  O   UNL     1      45.160   4.694  13.696  0.00  0.00    +0.000 OA
ATOM     14  C   UNL     1      45.008   4.473  11.348  0.00  0.00    +0.000 A 
ATOM     15  H   UNL     1      43.511   2.853  13.771  0.00  0.00    +0.000 HD
ENDBRANCH   2   5
BRANCH   3  16
ATOM     16  C   UNL     1      47.318   8.308  12.704  0.00  0.00    +0.000 C 
BRANCH  16  17
ATOM     17  C   UNL     1      48.258   7.698  13.693  0.00  0.00    +0.000 A 
ATOM     18  C   UNL     1      47.996   6.502  14.326  0.00  0.00    +0.000 A 
ATOM     19  N   UNL     1      48.787   5.965  15.277  0.00  0.00    +0.000 NA
ATOM     20  C   UNL     1      49.894   6.662  15.613  0.00  0.00    +0.000 A 
ATOM     21  N   UNL     1      50.227   7.854  15.074  0.00  0.00    +0.000 NA
ATOM     22  C   UNL     1      49.403   8.339  14.123  0.00  0.00    +0.000 A 
BRANCH  20  23
ATOM     23  C   UNL     1      50.805   6.087  16.678  0.00  0.00    +0.000 C 
BRANCH  23  24
ATOM     24  O   UNL     1      50.086   5.135  17.462  0.00  0.00    +0.000 OA
BRANCH  24  25
ATOM     25  C   UNL     1      50.740   3.925  17.500  0.00  0.00    +0.000 A 
ATOM     26  N   UNL     1      51.931   3.942  18.113  0.00  0.00    +0.000 NA
ATOM     27  C   UNL     1      52.582   2.766  18.173  0.00  0.00    +0.000 A 
ATOM     28  C   UNL     1      52.078   1.592  17.663  0.00  0.00    +0.000 A 
ATOM     29  C   UNL     1      50.841   1.687  17.072  0.00  0.00    +0.000 A 
ATOM     30  N   UNL     1      50.151   2.838  16.970  0.00  0.00    +0.000 NA
ENDBRANCH  24  25
ENDBRANCH  23  24
ENDBRANCH  20  23
ENDBRANCH  16  17
ENDBRANCH   3  16
TORSDOF 6
ENDMDL
MODEL 5
REMARK VINA RESULT:    -6.697      3.202      4.703
REMARK INTER + INTRA:          -9.991
REMARK INTER:                  -9.105
REMARK INTRA:                  -0.886
REMARK UNBOUND:                -0.945
REMARK  Name = 
REMARK  6 active torsions:
REMARK  status: ('A' for Active; 'I' for Inactive)
REMARK    1  A    between atoms: C_2  and  C_19
REMARK    2  A    between atoms: N_3  and  C_4
REMARK    3  A    between atoms: C_4  and  C_5
REMARK    4  A    between atoms: C_8  and  C_9
REMARK    5  A    between atoms: C_9  and  O_10
REMARK    6  A    between atoms: O_10  and  C_11
REMARK                            x       y       z     vdW  Elec       q    Type
REMARK                         _______ _______ _______ _____ _____    ______ ____
ROOT
ATOM      1  O   UNL     1      48.039   8.220  15.394  0.00  0.00    +0.000 OA
ATOM      2  C   UNL     1      48.482   7.949  14.291  0.00  0.00    +0.000 C 
ATOM      3  N   UNL     1      48.295   6.744  13.648  0.00  0.00    +0.000 N 
ATOM      4  H   UNL     1      48.534   6.705  12.670  0.00  0.00    +0.000 HD
ENDROOT
BRANCH   2   5
ATOM      5  C   UNL     1      49.081   8.926  13.382  0.00  0.00    +0.000 A 
ATOM      6  C   UNL     1      48.331   9.836  12.661  0.00  0.00    +0.000 A 
ATOM      7  S   UNL     1      49.193  10.407  11.287  0.00  0.00    +0.000 S 
ATOM      8  C   UNL     1      50.597   9.546  11.735  0.00  0.00    +0.000 A 
ATOM      9  N   UNL     1      51.684   9.439  10.925  0.00  0.00    +0.000 NA
ATOM     10  C   UNL     1      52.669   8.777  11.446  0.00  0.00    +0.000 A 
ATOM     11  N   UNL     1      52.688   8.267  12.723  0.00  0.00    +0.000 N 
ATOM     12  C   UNL     1      51.624   8.373  13.582  0.00  0.00    +0.000 A 
ATOM     13  O   UNL     1      51.676   7.978  14.739  0.00  0.00    +0.000 OA
ATOM     14  C   UNL     1      50.453   8.980  12.982  0.00  0.00    +0.000 A 
ATOM     15  H   UNL     1      53.520   7.833  13.097  0.00  0.00    +0.000 HD
ENDBRANCH   2   5
BRANCH   3  16
ATOM     16  C   UNL     1      47.384   5.734  14.116  0.00  0.00    +0.000 C 
BRANCH  16  17
ATOM     17  C   UNL     1      46.580   5.225  12.963  0.00  0.00    +0.000 A 
ATOM     18  C   UNL     1      46.277   6.004  11.868  0.00  0.00    +0.000 A 
ATOM     19  N   UNL     1      45.493   5.597  10.849  0.00  0.00    +0.000 NA
ATOM     20  C   UNL     1      44.982   4.350  10.933  0.00  0.00    +0.000 A 
ATOM     21  N   UNL     1      45.194   3.519  11.975  0.00  0.00    +0.000 NA
ATOM     22  C   UNL     1      45.993   3.975  12.961  0.00  0.00    +0.000 A 
BRANCH  20  23
ATOM     23  C   UNL     1      44.096   3.862   9.807  0.00  0.00    +0.000 C 
BRANCH  23  24
ATOM     24  O   UNL     1      44.424   2.511   9.488  0.00  0.00    +0.000 OA
BRANCH  24  25
ATOM     25  C   UNL     1      45.350   2.449   8.471  0.00  0.00    +0.000 A 
ATOM     26  N   UNL     1      46.049   1.308   8.409  0.00  0.00    +0.000 NA
ATOM     27  C   UNL     1      46.950   1.221   7.413  0.00  0.00    +0.000 A 
ATOM     28  C   UNL     1      47.156   2.215   6.486  0.00  0.00    +0.000 A 
ATOM     29  C   UNL     1      46.371   3.334   6.634  0.00  0.00    +0.000 A 
ATOM     30  N   UNL     1      45.465   3.482   7.617  0.00  0.00    +0.000 NA
ENDBRANCH  24  25
ENDBRANCH  23  24
ENDBRANCH  20  23
ENDBRANCH  16  17
ENDBRANCH   3  16
TORSDOF 6
ENDMDL
MODEL 6
REMARK VINA RESULT:    -6.481      3.174      8.727
REMARK INTER + INTRA:          -9.699
REMARK INTER:                  -9.088
REMARK INTRA:                  -0.611
REMARK UNBOUND:                -0.945
REMARK  Name = 
REMARK  6 active torsions:
REMARK  status: ('A' for Active; 'I' for Inactive)
REMARK    1  A    between atoms: C_2  and  C_19
REMARK    2  A    between atoms: N_3  and  C_4
REMARK    3  A    between atoms: C_4  and  C_5
REMARK    4  A    between atoms: C_8  and  C_9
REMARK    5  A    between atoms: C_9  and  O_10
REMARK    6  A    between atoms: O_10  and  C_11
REMARK                            x       y       z     vdW  Elec       q    Type
REMARK                         _______ _______ _______ _____ _____    ______ ____
ROOT
ATOM      1  O   UNL     1      47.495   2.900  14.445  0.00  0.00    +0.000 OA
ATOM      2  C   UNL     1      47.031   4.005  14.667  0.00  0.00    +0.000 C 
ATOM      3  N   UNL     1      46.748   4.496  15.925  0.00  0.00    +0.000 N 
ATOM      4  H   UNL     1      46.559   5.481  16.000  0.00  0.00    +0.000 HD
ENDROOT
BRANCH   2   5
ATOM      5  C   UNL     1      46.917   5.067  13.667  0.00  0.00    +0.000 A 
ATOM      6  C   UNL     1      47.765   6.158  13.634  0.00  0.00    +0.000 A 
ATOM      7  S   UNL     1      47.053   7.477  12.792  0.00  0.00    +0.000 S 
ATOM      8  C   UNL     1      45.687   6.546  12.368  0.00  0.00    +0.000 A 
ATOM      9  N   UNL     1      44.584   7.083  11.781  0.00  0.00    +0.000 NA
ATOM     10  C   UNL     1      43.660   6.219  11.499  0.00  0.00    +0.000 A 
ATOM     11  N   UNL     1      43.764   4.862  11.694  0.00  0.00    +0.000 N 
ATOM     12  C   UNL     1      44.867   4.274  12.261  0.00  0.00    +0.000 A 
ATOM     13  O   UNL     1      44.979   3.061  12.366  0.00  0.00    +0.000 OA
ATOM     14  C   UNL     1      45.859   5.226  12.719  0.00  0.00    +0.000 A 
ATOM     15  H   UNL     1      43.040   4.234  11.376  0.00  0.00    +0.000 HD
ENDBRANCH   2   5
BRANCH   3  16
ATOM     16  C   UNL     1      47.155   3.837  17.138  0.00  0.00    +0.000 C 
BRANCH  16  17
ATOM     17  C   UNL     1      48.643   3.907  17.259  0.00  0.00    +0.000 A 
ATOM     18  C   UNL     1      49.435   2.782  17.330  0.00  0.00    +0.000 A 
ATOM     19  N   UNL     1      50.770   2.812  17.516  0.00  0.00    +0.000 NA
ATOM     20  C   UNL     1      51.340   4.030  17.642  0.00  0.00    +0.000 A 
ATOM     21  N   UNL     1      50.651   5.190  17.616  0.00  0.00    +0.000 NA
ATOM     22  C   UNL     1      49.320   5.100  17.420  0.00  0.00    +0.000 A 
BRANCH  20  23
ATOM     23  C   UNL     1      52.838   4.100  17.852  0.00  0.00    +0.000 C 
BRANCH  23  24
ATOM     24  O   UNL     1      53.235   3.121  18.812  0.00  0.00    +0.000 OA
BRANCH  24  25
ATOM     25  C   UNL     1      53.793   2.022  18.200  0.00  0.00    +0.000 A 
ATOM     26  N   UNL     1      54.786   2.292  17.343  0.00  0.00    +0.000 NA
ATOM     27  C   UNL     1      55.355   1.230  16.744  0.00  0.00    +0.000 A 
ATOM     28  C   UNL     1      54.979  -0.070  16.986  0.00  0.00    +0.000 A 
ATOM     29  C   UNL     1      53.962  -0.232  17.896  0.00  0.00    +0.000 A 
ATOM     30  N   UNL     1      53.347   0.792  18.515  0.00  0.00    +0.000 NA
ENDBRANCH  24  25
ENDBRANCH  23  24
ENDBRANCH  20  23
ENDBRANCH  16  17
ENDBRANCH   3  16
TORSDOF 6
ENDMDL
MODEL 7
REMARK VINA RESULT:    -6.393      1.181      1.639
REMARK INTER + INTRA:          -9.581
REMARK INTER:                  -8.784
REMARK INTRA:                  -0.796
REMARK UNBOUND:                -0.945
REMARK  Name = 
REMARK  6 active torsions:
REMARK  status: ('A' for Active; 'I' for Inactive)
REMARK    1  A    between atoms: C_2  and  C_19
REMARK    2  A    between atoms: N_3  and  C_4
REMARK    3  A    between atoms: C_4  and  C_5
REMARK    4  A    between atoms: C_8  and  C_9
REMARK    5  A    between atoms: C_9  and  O_10
REMARK    6  A    between atoms: O_10  and  C_11
REMARK                            x       y       z     vdW  Elec       q    Type
REMARK                         _______ _______ _______ _____ _____    ______ ____
ROOT
ATOM      1  O   UNL     1      49.733   8.316  17.502  0.00  0.00    +0.000 OA
ATOM      2  C   UNL     1      49.619   7.215  16.991  0.00  0.00    +0.000 C 
ATOM      3  N   UNL     1      49.047   6.980  15.759  0.00  0.00    +0.000 N 
ATOM      4  H   UNL     1      49.186   6.068  15.356  0.00  0.00    +0.000 HD
ENDROOT
BRANCH   2   5
ATOM      5  C   UNL     1      50.271   6.004  17.491  0.00  0.00    +0.000 A 
ATOM      6  C   UNL     1      51.589   5.980  17.906  0.00  0.00    +0.000 A 
ATOM      7  S   UNL     1      52.231   4.385  17.855  0.00  0.00    +0.000 S 
ATOM      8  C   UNL     1      50.719   3.727  17.414  0.00  0.00    +0.000 A 
ATOM      9  N   UNL     1      50.563   2.429  17.040  0.00  0.00    +0.000 NA
ATOM     10  C   UNL     1      49.338   2.098  16.774  0.00  0.00    +0.000 A 
ATOM     11  N   UNL     1      48.251   2.929  16.906  0.00  0.00    +0.000 N 
ATOM     12  C   UNL     1      48.359   4.238  17.304  0.00  0.00    +0.000 A 
ATOM     13  O   UNL     1      47.380   4.948  17.486  0.00  0.00    +0.000 OA
ATOM     14  C   UNL     1      49.728   4.681  17.470  0.00  0.00    +0.000 A 
ATOM     15  H   UNL     1      47.313   2.584  16.762  0.00  0.00    +0.000 HD
ENDBRANCH   2   5
BRANCH   3  16
ATOM     16  C   UNL     1      48.698   8.030  14.839  0.00  0.00    +0.000 C 
BRANCH  16  17
ATOM     17  C   UNL     1      47.651   7.529  13.897  0.00  0.00    +0.000 A 
ATOM     18  C   UNL     1      46.775   8.370  13.246  0.00  0.00    +0.000 A 
ATOM     19  N   UNL     1      45.773   7.944  12.451  0.00  0.00    +0.000 NA
ATOM     20  C   UNL     1      45.639   6.609  12.302  0.00  0.00    +0.000 A 
ATOM     21  N   UNL     1      46.426   5.700  12.917  0.00  0.00    +0.000 NA
ATOM     22  C   UNL     1      47.415   6.184  13.694  0.00  0.00    +0.000 A 
BRANCH  20  23
ATOM     23  C   UNL     1      44.524   6.096  11.416  0.00  0.00    +0.000 C 
BRANCH  23  24
ATOM     24  O   UNL     1      44.400   4.683  11.568  0.00  0.00    +0.000 OA
BRANCH  24  25
ATOM     25  C   UNL     1      44.672   4.028  10.389  0.00  0.00    +0.000 A 
ATOM     26  N   UNL     1      45.303   4.764   9.464  0.00  0.00    +0.000 NA
ATOM     27  C   UNL     1      45.590   4.139   8.308  0.00  0.00    +0.000 A 
ATOM     28  C   UNL     1      45.288   2.821   8.060  0.00  0.00    +0.000 A 
ATOM     29  C   UNL     1      44.657   2.157   9.085  0.00  0.00    +0.000 A 
ATOM     30  N   UNL     1      44.332   2.733  10.257  0.00  0.00    +0.000 NA
ENDBRANCH  24  25
ENDBRANCH  23  24
ENDBRANCH  20  23
ENDBRANCH  16  17
ENDBRANCH   3  16
TORSDOF 6
ENDMDL
MODEL 8
REMARK VINA RESULT:    -5.962      3.464      9.100
REMARK INTER + INTRA:          -8.999
REMARK INTER:                  -8.150
REMARK INTRA:                  -0.848
REMARK UNBOUND:                -0.945
REMARK  Name = 
REMARK  6 active torsions:
REMARK  status: ('A' for Active; 'I' for Inactive)
REMARK    1  A    between atoms: C_2  and  C_19
REMARK    2  A    between atoms: N_3  and  C_4
REMARK    3  A    between atoms: C_4  and  C_5
REMARK    4  A    between atoms: C_8  and  C_9
REMARK    5  A    between atoms: C_9  and  O_10
REMARK    6  A    between atoms: O_10  and  C_11
REMARK                            x       y       z     vdW  Elec       q    Type
REMARK                         _______ _______ _______ _____ _____    ______ ____
ROOT
ATOM      1  O   UNL     1      47.277   3.067  13.793  0.00  0.00    +0.000 OA
ATOM      2  C   UNL     1      46.770   4.111  14.165  0.00  0.00    +0.000 C 
ATOM      3  N   UNL     1      46.658   4.500  15.483  0.00  0.00    +0.000 N 
ATOM      4  H   UNL     1      46.405   5.459  15.657  0.00  0.00    +0.000 HD
ENDROOT
BRANCH   2   5
ATOM      5  C   UNL     1      46.411   5.215  13.274  0.00  0.00    +0.000 A 
ATOM      6  C   UNL     1      46.990   6.467  13.361  0.00  0.00    +0.000 A 
ATOM      7  S   UNL     1      45.991   7.669  12.645  0.00  0.00    +0.000 S 
ATOM      8  C   UNL     1      44.867   6.501  12.110  0.00  0.00    +0.000 A 
ATOM      9  N   UNL     1      43.666   6.832  11.563  0.00  0.00    +0.000 NA
ATOM     10  C   UNL     1      42.960   5.814  11.183  0.00  0.00    +0.000 A 
ATOM     11  N   UNL     1      43.369   4.503  11.244  0.00  0.00    +0.000 N 
ATOM     12  C   UNL     1      44.581   4.125  11.765  0.00  0.00    +0.000 A 
ATOM     13  O   UNL     1      44.965   2.964  11.750  0.00  0.00    +0.000 OA
ATOM     14  C   UNL     1      45.336   5.225  12.331  0.00  0.00    +0.000 A 
ATOM     15  H   UNL     1      42.803   3.764  10.854  0.00  0.00    +0.000 HD
ENDBRANCH   2   5
BRANCH   3  16
ATOM     16  C   UNL     1      47.307   3.812  16.566  0.00  0.00    +0.000 C 
BRANCH  16  17
ATOM     17  C   UNL     1      47.836   4.815  17.540  0.00  0.00    +0.000 A 
ATOM     18  C   UNL     1      49.170   5.152  17.607  0.00  0.00    +0.000 A 
ATOM     19  N   UNL     1      49.688   5.995  18.523  0.00  0.00    +0.000 NA
ATOM     20  C   UNL     1      48.827   6.524  19.419  0.00  0.00    +0.000 A 
ATOM     21  N   UNL     1      47.509   6.237  19.457  0.00  0.00    +0.000 NA
ATOM     22  C   UNL     1      47.045   5.394  18.513  0.00  0.00    +0.000 A 
BRANCH  20  23
ATOM     23  C   UNL     1      49.376   7.475  20.462  0.00  0.00    +0.000 C 
BRANCH  23  24
ATOM     24  O   UNL     1      49.966   8.604  19.820  0.00  0.00    +0.000 OA
BRANCH  24  25
ATOM     25  C   UNL     1      49.007   9.502  19.411  0.00  0.00    +0.000 A 
ATOM     26  N   UNL     1      48.185   9.934  20.377  0.00  0.00    +0.000 NA
ATOM     27  C   UNL     1      47.248  10.824  20.001  0.00  0.00    +0.000 A 
ATOM     28  C   UNL     1      47.123  11.299  18.717  0.00  0.00    +0.000 A 
ATOM     29  C   UNL     1      48.029  10.802  17.811  0.00  0.00    +0.000 A 
ATOM     30  N   UNL     1      48.978   9.901  18.126  0.00  0.00    +0.000 NA
ENDBRANCH  24  25
ENDBRANCH  23  24
ENDBRANCH  20  23
ENDBRANCH  16  17
ENDBRANCH   3  16
TORSDOF 6
ENDMDL
MODEL 9
REMARK VINA RESULT:    -5.918      3.807      8.326
REMARK INTER + INTRA:          -8.939
REMARK INTER:                  -7.599
REMARK INTRA:                  -1.340
REMARK UNBOUND:                -0.945
REMARK  Name = 
REMARK  6 active torsions:
REMARK  status: ('A' for Active; 'I' for Inactive)
REMARK    1  A    between atoms: C_2  and  C_19
REMARK    2  A    between atoms: N_3  and  C_4
REMARK    3  A    between atoms: C_4  and  C_5
REMARK    4  A    between atoms: C_8  and  C_9
REMARK    5  A    between atoms: C_9  and  O_10
REMARK    6  A    between atoms: O_10  and  C_11
REMARK                            x       y       z     vdW  Elec       q    Type
REMARK                         _______ _______ _______ _____ _____    ______ ____
ROOT
ATOM      1  O   UNL     1      47.511   3.126  14.192  0.00  0.00    +0.000 OA
ATOM      2  C   UNL     1      46.949   4.131  14.591  0.00  0.00    +0.000 C 
ATOM      3  N   UNL     1      46.659   4.392  15.914  0.00  0.00    +0.000 N 
ATOM      4  H   UNL     1      46.376   5.330  16.145  0.00  0.00    +0.000 HD
ENDROOT
BRANCH   2   5
ATOM      5  C   UNL     1      46.701   5.317  13.771  0.00  0.00    +0.000 A 
ATOM      6  C   UNL     1      45.507   5.533  13.108  0.00  0.00    +0.000 A 
ATOM      7  S   UNL     1      45.709   6.628  11.799  0.00  0.00    +0.000 S 
ATOM      8  C   UNL     1      47.343   6.908  12.206  0.00  0.00    +0.000 A 
ATOM      9  N   UNL     1      48.189   7.617  11.411  0.00  0.00    +0.000 NA
ATOM     10  C   UNL     1      49.381   7.756  11.898  0.00  0.00    +0.000 A 
ATOM     11  N   UNL     1      49.787   7.304  13.132  0.00  0.00    +0.000 N 
ATOM     12  C   UNL     1      48.961   6.606  13.977  0.00  0.00    +0.000 A 
ATOM     13  O   UNL     1      49.309   6.270  15.100  0.00  0.00    +0.000 OA
ATOM     14  C   UNL     1      47.664   6.308  13.403  0.00  0.00    +0.000 A 
ATOM     15  H   UNL     1      50.707   7.518  13.487  0.00  0.00    +0.000 HD
ENDBRANCH   2   5
BRANCH   3  16
ATOM     16  C   UNL     1      47.165   3.599  17.003  0.00  0.00    +0.000 C 
BRANCH  16  17
ATOM     17  C   UNL     1      48.531   4.083  17.368  0.00  0.00    +0.000 A 
ATOM     18  C   UNL     1      49.676   3.387  17.046  0.00  0.00    +0.000 A 
ATOM     19  N   UNL     1      50.915   3.758  17.427  0.00  0.00    +0.000 NA
ATOM     20  C   UNL     1      51.013   4.881  18.172  0.00  0.00    +0.000 A 
ATOM     21  N   UNL     1      49.952   5.618  18.565  0.00  0.00    +0.000 NA
ATOM     22  C   UNL     1      48.739   5.203  18.148  0.00  0.00    +0.000 A 
BRANCH  20  23
ATOM     23  C   UNL     1      52.390   5.326  18.617  0.00  0.00    +0.000 C 
BRANCH  23  24
ATOM     24  O   UNL     1      52.816   6.433  17.824  0.00  0.00    +0.000 OA
BRANCH  24  25
ATOM     25  C   UNL     1      53.775   6.054  16.913  0.00  0.00    +0.000 A 
ATOM     26  N   UNL     1      53.788   6.760  15.776  0.00  0.00    +0.000 NA
ATOM     27  C   UNL     1      54.727   6.414  14.876  0.00  0.00    +0.000 A 
ATOM     28  C   UNL     1      55.647   5.414  15.084  0.00  0.00    +0.000 A 
ATOM     29  C   UNL     1      55.554   4.767  16.293  0.00  0.00    +0.000 A 
ATOM     30  N   UNL     1      54.628   5.060  17.224  0.00  0.00    +0.000 NA
ENDBRANCH  24  25
ENDBRANCH  23  24
ENDBRANCH  20  23
ENDBRANCH  16  17
ENDBRANCH   3  16
TORSDOF 6
ENDMDL
