MODEL 1
REMARK VINA RESULT:    -8.118      0.000      0.000
REMARK INTER + INTRA:         -10.075
REMARK INTER:                  -9.541
REMARK INTRA:                  -0.533
REMARK UNBOUND:                -0.533
REMARK  Name = 
REMARK  3 active torsions:
REMARK  status: ('A' for Active; 'I' for Inactive)
REMARK    1  A    between atoms: C_2  and  C_4
REMARK    2  A    between atoms: C_7  and  C_8
REMARK    3  A    between atoms: C_8  and  N_9
REMARK                            x       y       z     vdW  Elec       q    Type
REMARK                         _______ _______ _______ _____ _____    ______ ____
ROOT
ATOM      1  C   UNL     1      46.461   2.564   7.717  0.00  0.00    +0.000 A 
ATOM      2  C   UNL     1      46.393   3.963   7.710  0.00  0.00    +0.000 A 
ATOM      3  C   UNL     1      45.540   4.625   8.597  0.00  0.00    +0.000 A 
ATOM      4  C   UNL     1      44.751   3.903   9.505  0.00  0.00    +0.000 A 
ATOM      5  C   UNL     1      44.806   2.502   9.488  0.00  0.00    +0.000 A 
ATOM      6  C   UNL     1      45.652   1.837   8.596  0.00  0.00    +0.000 A 
ENDROOT
BRANCH   1   8
ATOM      7  N   UNL     1      48.443   2.481   6.301  0.00  0.00    +0.000 N 
ATOM      8  C   UNL     1      47.357   1.815   6.798  0.00  0.00    +0.000 C 
ATOM      9  O   UNL     1      47.163   0.638   6.525  0.00  0.00    +0.000 OA
ATOM     10  H   UNL     1      49.102   1.928   5.770  0.00  0.00    +0.000 HD
ATOM     11  H   UNL     1      48.770   3.351   6.696  0.00  0.00    +0.000 HD
ENDBRANCH   1   8
BRANCH   4  12
ATOM     12  C   UNL     1      43.857   4.628  10.481  0.00  0.00    +0.000 C 
BRANCH  12  13
ATOM     13  N   UNL     1      44.607   5.261  11.557  0.00  0.00    +0.000 N 
ATOM     14  C   UNL     1      45.392   4.597  12.472  0.00  0.00    +0.000 A 
ATOM     15  C   UNL     1      46.044   5.542  13.236  0.00  0.00    +0.000 A 
ATOM     16  C   UNL     1      45.654   6.822  12.763  0.00  0.00    +0.000 A 
ATOM     17  C   UNL     1      45.977   8.149  13.090  0.00  0.00    +0.000 A 
ATOM     18  C   UNL     1      45.365   9.165  12.357  0.00  0.00    +0.000 A 
ATOM     19  C   UNL     1      44.471   8.823  11.352  0.00  0.00    +0.000 A 
ATOM     20  N   UNL     1      44.128   7.566  10.990  0.00  0.00    +0.000 NA
ATOM     21  C   UNL     1      44.746   6.617  11.724  0.00  0.00    +0.000 A 
ENDBRANCH  12  13
ENDBRANCH   4  12
TORSDOF 3
ENDMDL
MODEL 2
REMARK VINA RESULT:    -7.939      0.901      2.376
REMARK INTER + INTRA:          -9.864
REMARK INTER:                  -9.480
REMARK INTRA:                  -0.384
REMARK UNBOUND:                -0.533
REMARK  Name = 
REMARK  3 active torsions:
REMARK  status: ('A' for Active; 'I' for Inactive)
REMARK    1  A    between atoms: C_2  and  C_4
REMARK    2  A    between atoms: C_7  and  C_8
REMARK    3  A    between atoms: C_8  and  N_9
REMARK                            x       y       z     vdW  Elec       q    Type
REMARK                         _______ _______ _______ _____ _____    ______ ____
ROOT
ATOM      1  C   UNL     1      46.452   2.472   7.656  0.00  0.00    +0.000 A 
ATOM      2  C   UNL     1      46.429   3.871   7.631  0.00  0.00    +0.000 A 
ATOM      3  C   UNL     1      45.608   4.573   8.518  0.00  0.00    +0.000 A 
ATOM      4  C   UNL     1      44.805   3.890   9.443  0.00  0.00    +0.000 A 
ATOM      5  C   UNL     1      44.815   2.487   9.444  0.00  0.00    +0.000 A 
ATOM      6  C   UNL     1      45.628   1.783   8.553  0.00  0.00    +0.000 A 
ENDROOT
BRANCH   1   8
ATOM      7  N   UNL     1      48.372   2.327   6.163  0.00  0.00    +0.000 N 
ATOM      8  C   UNL     1      47.313   1.682   6.737  0.00  0.00    +0.000 C 
ATOM      9  O   UNL     1      47.115   0.492   6.532  0.00  0.00    +0.000 OA
ATOM     10  H   UNL     1      49.011   1.750   5.631  0.00  0.00    +0.000 HD
ATOM     11  H   UNL     1      48.710   3.217   6.500  0.00  0.00    +0.000 HD
ENDBRANCH   1   8
BRANCH   4  12
ATOM     12  C   UNL     1      43.947   4.656  10.419  0.00  0.00    +0.000 C 
BRANCH  12  13
ATOM     13  N   UNL     1      44.731   5.512  11.297  0.00  0.00    +0.000 N 
ATOM     14  C   UNL     1      44.652   6.885  11.341  0.00  0.00    +0.000 A 
ATOM     15  C   UNL     1      45.437   7.322  12.388  0.00  0.00    +0.000 A 
ATOM     16  C   UNL     1      46.001   6.177  13.009  0.00  0.00    +0.000 A 
ATOM     17  C   UNL     1      46.841   5.952  14.112  0.00  0.00    +0.000 A 
ATOM     18  C   UNL     1      47.171   4.632  14.416  0.00  0.00    +0.000 A 
ATOM     19  C   UNL     1      46.664   3.612  13.622  0.00  0.00    +0.000 A 
ATOM     20  N   UNL     1      45.848   3.770  12.555  0.00  0.00    +0.000 NA
ATOM     21  C   UNL     1      45.555   5.063  12.300  0.00  0.00    +0.000 A 
ENDBRANCH  12  13
ENDBRANCH   4  12
TORSDOF 3
ENDMDL
MODEL 3
REMARK VINA RESULT:    -6.605      3.008      6.410
REMARK INTER + INTRA:          -8.297
REMARK INTER:                  -7.847
REMARK INTRA:                  -0.450
REMARK UNBOUND:                -0.533
REMARK  Name = 
REMARK  3 active torsions:
REMARK  status: ('A' for Active; 'I' for Inactive)
REMARK    1  A    between atoms: C_2  and  C_4
REMARK    2  A    between atoms: C_7  and  C_8
REMARK    3  A    between atoms: C_8  and  N_9
REMARK                            x       y       z     vdW  Elec       q    Type
REMARK                         _______ _______ _______ _____ _____    ______ ____
ROOT
ATOM      1  C   UNL     1      46.801   6.301  12.910  0.00  0.00    +0.000 A 
ATOM      2  C   UNL     1      46.899   6.803  11.607  0.00  0.00    +0.000 A 
ATOM      3  C   UNL     1      46.122   6.249  10.586  0.00  0.00    +0.000 A 
ATOM      4  C   UNL     1      45.236   5.195  10.850  0.00  0.00    +0.000 A 
ATOM      5  C   UNL     1      45.164   4.681  12.153  0.00  0.00    +0.000 A 
ATOM      6  C   UNL     1      45.945   5.226  13.175  0.00  0.00    +0.000 A 
ENDROOT
BRANCH   1   8
ATOM      7  N   UNL     1      47.413   8.178  14.338  0.00  0.00    +0.000 N 
ATOM      8  C   UNL     1      47.601   6.860  14.031  0.00  0.00    +0.000 C 
ATOM      9  O   UNL     1      48.367   6.165  14.687  0.00  0.00    +0.000 OA
ATOM     10  H   UNL     1      47.879   8.514  15.171  0.00  0.00    +0.000 HD
ATOM     11  H   UNL     1      46.622   8.705  13.996  0.00  0.00    +0.000 HD
ENDBRANCH   1   8
BRANCH   4  12
ATOM     12  C   UNL     1      44.377   4.626   9.748  0.00  0.00    +0.000 C 
BRANCH  12  13
ATOM     13  N   UNL     1      44.903   3.374   9.224  0.00  0.00    +0.000 N 
ATOM     14  C   UNL     1      44.432   2.121   9.545  0.00  0.00    +0.000 A 
ATOM     15  C   UNL     1      45.084   1.205   8.746  0.00  0.00    +0.000 A 
ATOM     16  C   UNL     1      45.971   1.924   7.903  0.00  0.00    +0.000 A 
ATOM     17  C   UNL     1      46.868   1.584   6.877  0.00  0.00    +0.000 A 
ATOM     18  C   UNL     1      47.573   2.619   6.264  0.00  0.00    +0.000 A 
ATOM     19  C   UNL     1      47.362   3.923   6.693  0.00  0.00    +0.000 A 
ATOM     20  N   UNL     1      46.508   4.308   7.669  0.00  0.00    +0.000 NA
ATOM     21  C   UNL     1      45.847   3.273   8.231  0.00  0.00    +0.000 A 
ENDBRANCH  12  13
ENDBRANCH   4  12
TORSDOF 3
ENDMDL
MODEL 4
REMARK VINA RESULT:    -6.489      3.061      6.455
REMARK INTER + INTRA:          -8.160
REMARK INTER:                  -7.820
REMARK INTRA:                  -0.340
REMARK UNBOUND:                -0.533
REMARK  Name = 
REMARK  3 active torsions:
REMARK  status: ('A' for Active; 'I' for Inactive)
REMARK    1  A    between atoms: C_2  and  C_4
REMARK    2  A    between atoms: C_7  and  C_8
REMARK    3  A    between atoms: C_8  and  N_9
REMARK                            x       y       z     vdW  Elec       q    Type
REMARK                         _______ _______ _______ _____ _____    ______ ____
ROOT
ATOM      1  C   UNL     1      46.714   8.089  13.116  0.00  0.00    +0.000 A 
ATOM      2  C   UNL     1      45.792   8.801  12.341  0.00  0.00    +0.000 A 
ATOM      3  C   UNL     1      44.820   8.115  11.607  0.00  0.00    +0.000 A 
ATOM      4  C   UNL     1      44.751   6.715  11.642  0.00  0.00    +0.000 A 
ATOM      5  C   UNL     1      45.696   6.009  12.400  0.00  0.00    +0.000 A 
ATOM      6  C   UNL     1      46.674   6.691  13.129  0.00  0.00    +0.000 A 
ENDROOT
BRANCH   1   8
ATOM      7  N   UNL     1      47.455   9.083  15.214  0.00  0.00    +0.000 N 
ATOM      8  C   UNL     1      47.762   8.773  13.919  0.00  0.00    +0.000 C 
ATOM      9  O   UNL     1      48.871   9.014  13.461  0.00  0.00    +0.000 OA
ATOM     10  H   UNL     1      48.213   9.445  15.778  0.00  0.00    +0.000 HD
ATOM     11  H   UNL     1      46.663   8.680  15.693  0.00  0.00    +0.000 HD
ENDBRANCH   1   8
BRANCH   4  12
ATOM     12  C   UNL     1      43.678   5.985  10.872  0.00  0.00    +0.000 C 
BRANCH  12  13
ATOM     13  N   UNL     1      43.987   4.575  10.688  0.00  0.00    +0.000 N 
ATOM     14  C   UNL     1      43.435   3.542  11.412  0.00  0.00    +0.000 A 
ATOM     15  C   UNL     1      43.866   2.356  10.856  0.00  0.00    +0.000 A 
ATOM     16  C   UNL     1      44.696   2.676   9.750  0.00  0.00    +0.000 A 
ATOM     17  C   UNL     1      45.397   1.939   8.781  0.00  0.00    +0.000 A 
ATOM     18  C   UNL     1      46.115   2.650   7.820  0.00  0.00    +0.000 A 
ATOM     19  C   UNL     1      46.108   4.038   7.866  0.00  0.00    +0.000 A 
ATOM     20  N   UNL     1      45.447   4.798   8.769  0.00  0.00    +0.000 NA
ATOM     21  C   UNL     1      44.765   4.067   9.677  0.00  0.00    +0.000 A 
ENDBRANCH  12  13
ENDBRANCH   4  12
TORSDOF 3
ENDMDL
MODEL 5
REMARK VINA RESULT:    -5.814      3.723      6.526
REMARK INTER + INTRA:          -7.367
REMARK INTER:                  -6.887
REMARK INTRA:                  -0.480
REMARK UNBOUND:                -0.533
REMARK  Name = 
REMARK  3 active torsions:
REMARK  status: ('A' for Active; 'I' for Inactive)
REMARK    1  A    between atoms: C_2  and  C_4
REMARK    2  A    between atoms: C_7  and  C_8
REMARK    3  A    between atoms: C_8  and  N_9
REMARK                            x       y       z     vdW  Elec       q    Type
REMARK                         _______ _______ _______ _____ _____    ______ ____
ROOT
ATOM      1  C   UNL     1      48.832   8.014  13.351  0.00  0.00    +0.000 A 
ATOM      2  C   UNL     1      48.869   7.254  12.177  0.00  0.00    +0.000 A 
ATOM      3  C   UNL     1      47.680   6.917  11.525  0.00  0.00    +0.000 A 
ATOM      4  C   UNL     1      46.441   7.337  12.031  0.00  0.00    +0.000 A 
ATOM      5  C   UNL     1      46.412   8.075  13.223  0.00  0.00    +0.000 A 
ATOM      6  C   UNL     1      47.598   8.408  13.881  0.00  0.00    +0.000 A 
ENDROOT
BRANCH   1   8
ATOM      7  N   UNL     1      50.751   7.414  14.728  0.00  0.00    +0.000 N 
ATOM      8  C   UNL     1      50.069   8.404  14.077  0.00  0.00    +0.000 C 
ATOM      9  O   UNL     1      50.491   9.553  14.062  0.00  0.00    +0.000 OA
ATOM     10  H   UNL     1      51.647   7.673  15.120  0.00  0.00    +0.000 HD
ATOM     11  H   UNL     1      50.579   6.435  14.553  0.00  0.00    +0.000 HD
ENDBRANCH   1   8
BRANCH   4  12
ATOM     12  C   UNL     1      45.165   6.995  11.303  0.00  0.00    +0.000 C 
BRANCH  12  13
ATOM     13  N   UNL     1      44.894   5.565  11.296  0.00  0.00    +0.000 N 
ATOM     14  C   UNL     1      44.291   4.867  12.317  0.00  0.00    +0.000 A 
ATOM     15  C   UNL     1      44.083   3.575  11.884  0.00  0.00    +0.000 A 
ATOM     16  C   UNL     1      44.562   3.486  10.551  0.00  0.00    +0.000 A 
ATOM     17  C   UNL     1      44.611   2.479   9.573  0.00  0.00    +0.000 A 
ATOM     18  C   UNL     1      45.173   2.802   8.338  0.00  0.00    +0.000 A 
ATOM     19  C   UNL     1      45.657   4.087   8.135  0.00  0.00    +0.000 A 
ATOM     20  N   UNL     1      45.629   5.096   9.036  0.00  0.00    +0.000 NA
ATOM     21  C   UNL     1      45.075   4.737  10.214  0.00  0.00    +0.000 A 
ENDBRANCH  12  13
ENDBRANCH   4  12
TORSDOF 3
ENDMDL
MODEL 6
REMARK VINA RESULT:    -5.778      3.270      4.571
REMARK INTER + INTRA:          -7.325
REMARK INTER:                  -6.892
REMARK INTRA:                  -0.433
REMARK UNBOUND:                -0.533
REMARK  Name = 
REMARK  3 active torsions:
REMARK  status: ('A' for Active; 'I' for Inactive)
REMARK    1  A    between atoms: C_2  and  C_4
REMARK    2  A    between atoms: C_7  and  C_8
REMARK    3  A    between atoms: C_8  and  N_9
REMARK                            x       y       z     vdW  Elec       q    Type
REMARK                         _______ _______ _______ _____ _____    ______ ____
ROOT
ATOM      1  C   UNL     1      44.460   4.063  11.408  0.00  0.00    +0.000 A 
ATOM      2  C   UNL     1      44.852   5.070  10.518  0.00  0.00    +0.000 A 
ATOM      3  C   UNL     1      45.361   6.276  11.009  0.00  0.00    +0.000 A 
ATOM      4  C   UNL     1      45.491   6.490  12.389  0.00  0.00    +0.000 A 
ATOM      5  C   UNL     1      45.071   5.486  13.273  0.00  0.00    +0.000 A 
ATOM      6  C   UNL     1      44.554   4.283  12.786  0.00  0.00    +0.000 A 
ENDROOT
BRANCH   1   8
ATOM      7  N   UNL     1      44.554   2.166   9.882  0.00  0.00    +0.000 N 
ATOM      8  C   UNL     1      43.919   2.762  10.935  0.00  0.00    +0.000 C 
ATOM      9  O   UNL     1      42.971   2.218  11.487  0.00  0.00    +0.000 OA
ATOM     10  H   UNL     1      44.246   1.232   9.645  0.00  0.00    +0.000 HD
ATOM     11  H   UNL     1      45.473   2.450   9.573  0.00  0.00    +0.000 HD
ENDBRANCH   1   8
BRANCH   4  12
ATOM     12  C   UNL     1      46.072   7.782  12.908  0.00  0.00    +0.000 C 
BRANCH  12  13
ATOM     13  N   UNL     1      47.505   7.881  12.675  0.00  0.00    +0.000 N 
ATOM     14  C   UNL     1      48.409   6.859  12.854  0.00  0.00    +0.000 A 
ATOM     15  C   UNL     1      49.637   7.293  12.398  0.00  0.00    +0.000 A 
ATOM     16  C   UNL     1      49.472   8.617  11.914  0.00  0.00    +0.000 A 
ATOM     17  C   UNL     1      50.309   9.571  11.313  0.00  0.00    +0.000 A 
ATOM     18  C   UNL     1      49.745  10.797  10.960  0.00  0.00    +0.000 A 
ATOM     19  C   UNL     1      48.399  11.018  11.221  0.00  0.00    +0.000 A 
ATOM     20  N   UNL     1      47.547  10.135  11.790  0.00  0.00    +0.000 NA
ATOM     21  C   UNL     1      48.136   8.964  12.111  0.00  0.00    +0.000 A 
ENDBRANCH  12  13
ENDBRANCH   4  12
TORSDOF 3
ENDMDL
MODEL 7
REMARK VINA RESULT:    -5.762      4.075      6.072
REMARK INTER + INTRA:          -7.306
REMARK INTER:                  -6.789
REMARK INTRA:                  -0.517
REMARK UNBOUND:                -0.533
REMARK  Name = 
REMARK  3 active torsions:
REMARK  status: ('A' for Active; 'I' for Inactive)
REMARK    1  A    between atoms: C_2  and  C_4
REMARK    2  A    between atoms: C_7  and  C_8
REMARK    3  A    between atoms: C_8  and  N_9
REMARK                            x       y       z     vdW  Elec       q    Type
REMARK                         _______ _______ _______ _____ _____    ______ ____
ROOT
ATOM      1  C   UNL     1      44.508   5.473  11.924  0.00  0.00    +0.000 A 
ATOM      2  C   UNL     1      45.314   6.236  11.072  0.00  0.00    +0.000 A 
ATOM      3  C   UNL     1      46.611   6.583  11.462  0.00  0.00    +0.000 A 
ATOM      4  C   UNL     1      47.121   6.170  12.701  0.00  0.00    +0.000 A 
ATOM      5  C   UNL     1      46.297   5.428  13.560  0.00  0.00    +0.000 A 
ATOM      6  C   UNL     1      44.997   5.086  13.176  0.00  0.00    +0.000 A 
ENDROOT
BRANCH   1   8
ATOM      7  N   UNL     1      42.139   6.005  11.717  0.00  0.00    +0.000 N 
ATOM      8  C   UNL     1      43.125   5.074  11.552  0.00  0.00    +0.000 C 
ATOM      9  O   UNL     1      42.878   3.974  11.076  0.00  0.00    +0.000 OA
ATOM     10  H   UNL     1      41.226   5.758  11.356  0.00  0.00    +0.000 HD
ATOM     11  H   UNL     1      42.338   6.985  11.862  0.00  0.00    +0.000 HD
ENDBRANCH   1   8
BRANCH   4  12
ATOM     12  C   UNL     1      48.533   6.521  13.100  0.00  0.00    +0.000 C 
BRANCH  12  13
ATOM     13  N   UNL     1      48.582   7.385  14.271  0.00  0.00    +0.000 N 
ATOM     14  C   UNL     1      48.222   8.713  14.291  0.00  0.00    +0.000 A 
ATOM     15  C   UNL     1      48.270   9.146  15.599  0.00  0.00    +0.000 A 
ATOM     16  C   UNL     1      48.659   8.043  16.403  0.00  0.00    +0.000 A 
ATOM     17  C   UNL     1      48.855   7.829  17.777  0.00  0.00    +0.000 A 
ATOM     18  C   UNL     1      49.241   6.553  18.186  0.00  0.00    +0.000 A 
ATOM     19  C   UNL     1      49.416   5.564  17.227  0.00  0.00    +0.000 A 
ATOM     20  N   UNL     1      49.234   5.711  15.895  0.00  0.00    +0.000 NA
ATOM     21  C   UNL     1      48.860   6.961  15.547  0.00  0.00    +0.000 A 
ENDBRANCH  12  13
ENDBRANCH   4  12
TORSDOF 3
ENDMDL
MODEL 8
REMARK VINA RESULT:    -5.589      5.795      7.919
REMARK INTER + INTRA:          -7.102
REMARK INTER:                  -6.852
REMARK INTRA:                  -0.250
REMARK UNBOUND:                -0.533
REMARK  Name = 
REMARK  3 active torsions:
REMARK  status: ('A' for Active; 'I' for Inactive)
REMARK    1  A    between atoms: C_2  and  C_4
REMARK    2  A    between atoms: C_7  and  C_8
REMARK    3  A    between atoms: C_8  and  N_9
REMARK                            x       y       z     vdW  Elec       q    Type
REMARK                         _______ _______ _______ _____ _____    ______ ____
ROOT
ATOM      1  C   UNL     1      50.851   2.364  17.408  0.00  0.00    +0.000 A 
ATOM      2  C   UNL     1      49.880   1.688  16.660  0.00  0.00    +0.000 A 
ATOM      3  C   UNL     1      48.677   2.324  16.340  0.00  0.00    +0.000 A 
ATOM      4  C   UNL     1      48.430   3.641  16.756  0.00  0.00    +0.000 A 
ATOM      5  C   UNL     1      49.397   4.301  17.527  0.00  0.00    +0.000 A 
ATOM      6  C   UNL     1      50.597   3.666  17.855  0.00  0.00    +0.000 A 
ENDROOT
BRANCH   1   8
ATOM      7  N   UNL     1      52.126   0.413  18.118  0.00  0.00    +0.000 N 
ATOM      8  C   UNL     1      52.148   1.734  17.768  0.00  0.00    +0.000 C 
ATOM      9  O   UNL     1      53.203   2.352  17.714  0.00  0.00    +0.000 OA
ATOM     10  H   UNL     1      53.026  -0.030  18.250  0.00  0.00    +0.000 HD
ATOM     11  H   UNL     1      51.332  -0.183  17.930  0.00  0.00    +0.000 HD
ENDBRANCH   1   8
BRANCH   4  12
ATOM     12  C   UNL     1      47.142   4.330  16.378  0.00  0.00    +0.000 C 
BRANCH  12  13
ATOM     13  N   UNL     1      47.288   5.174  15.201  0.00  0.00    +0.000 N 
ATOM     14  C   UNL     1      48.264   6.127  15.026  0.00  0.00    +0.000 A 
ATOM     15  C   UNL     1      48.159   6.613  13.739  0.00  0.00    +0.000 A 
ATOM     16  C   UNL     1      47.092   5.923  13.106  0.00  0.00    +0.000 A 
ATOM     17  C   UNL     1      46.516   5.935  11.825  0.00  0.00    +0.000 A 
ATOM     18  C   UNL     1      45.450   5.069  11.585  0.00  0.00    +0.000 A 
ATOM     19  C   UNL     1      45.008   4.247  12.613  0.00  0.00    +0.000 A 
ATOM     20  N   UNL     1      45.528   4.188  13.860  0.00  0.00    +0.000 NA
ATOM     21  C   UNL     1      46.558   5.042  14.044  0.00  0.00    +0.000 A 
ENDBRANCH  12  13
ENDBRANCH   4  12
TORSDOF 3
ENDMDL
MODEL 9
REMARK VINA RESULT:    -5.412      6.280      8.288
REMARK INTER + INTRA:          -6.895
REMARK INTER:                  -6.413
REMARK INTRA:                  -0.482
REMARK UNBOUND:                -0.533
REMARK  Name = 
REMARK  3 active torsions:
REMARK  status: ('A' for Active; 'I' for Inactive)
REMARK    1  A    between atoms: C_2  and  C_4
REMARK    2  A    between atoms: C_7  and  C_8
REMARK    3  A    between atoms: C_8  and  N_9
REMARK                            x       y       z     vdW  Elec       q    Type
REMARK                         _______ _______ _______ _____ _____    ______ ____
ROOT
ATOM      1  C   UNL     1      51.323   2.293  17.533  0.00  0.00    +0.000 A 
ATOM      2  C   UNL     1      50.065   1.824  17.136  0.00  0.00    +0.000 A 
ATOM      3  C   UNL     1      49.016   2.725  16.935  0.00  0.00    +0.000 A 
ATOM      4  C   UNL     1      49.208   4.102  17.121  0.00  0.00    +0.000 A 
ATOM      5  C   UNL     1      50.464   4.560  17.544  0.00  0.00    +0.000 A 
ATOM      6  C   UNL     1      51.513   3.661  17.753  0.00  0.00    +0.000 A 
ENDROOT
BRANCH   1   8
ATOM      7  N   UNL     1      52.192   0.128  18.238  0.00  0.00    +0.000 N 
ATOM      8  C   UNL     1      52.471   1.375  17.753  0.00  0.00    +0.000 C 
ATOM      9  O   UNL     1      53.618   1.699  17.473  0.00  0.00    +0.000 OA
ATOM     10  H   UNL     1      52.968  -0.520  18.276  0.00  0.00    +0.000 HD
ATOM     11  H   UNL     1      51.258  -0.255  18.238  0.00  0.00    +0.000 HD
ENDBRANCH   1   8
BRANCH   4  12
ATOM     12  C   UNL     1      48.078   5.070  16.870  0.00  0.00    +0.000 C 
BRANCH  12  13
ATOM     13  N   UNL     1      47.758   5.196  15.456  0.00  0.00    +0.000 N 
ATOM     14  C   UNL     1      46.720   4.555  14.819  0.00  0.00    +0.000 A 
ATOM     15  C   UNL     1      46.654   5.033  13.527  0.00  0.00    +0.000 A 
ATOM     16  C   UNL     1      47.676   6.007  13.376  0.00  0.00    +0.000 A 
ATOM     17  C   UNL     1      48.102   6.856  12.342  0.00  0.00    +0.000 A 
ATOM     18  C   UNL     1      49.177   7.705  12.601  0.00  0.00    +0.000 A 
ATOM     19  C   UNL     1      49.774   7.671  13.854  0.00  0.00    +0.000 A 
ATOM     20  N   UNL     1      49.402   6.881  14.887  0.00  0.00    +0.000 NA
ATOM     21  C   UNL     1      48.358   6.078  14.590  0.00  0.00    +0.000 A 
ENDBRANCH  12  13
ENDBRANCH   4  12
TORSDOF 3
ENDMDL
