MODEL 1
REMARK VINA RESULT:    -8.016      0.000      0.000
REMARK INTER + INTRA:         -14.319
REMARK INTER:                 -12.937
REMARK INTRA:                  -1.382
REMARK UNBOUND:                -1.382
REMARK  Name = 
REMARK  11 active torsions:
REMARK  status: ('A' for Active; 'I' for Inactive)
REMARK    1  A    between atoms: N_1  and  C_2
REMARK    2  A    between atoms: C_2  and  C_3
REMARK    3  A    between atoms: C_3  and  N_4
REMARK    4  A    between atoms: N_4  and  C_5
REMARK    5  A    between atoms: C_5  and  C_6
REMARK    6  A    between atoms: C_9  and  C_10
REMARK    7  A    between atoms: C_10  and  N_11
REMARK    8  A    between atoms: C_12  and  C_14
REMARK    9  A    between atoms: C_25  and  C_26
REMARK   10  A    between atoms: C_26  and  N_27
REMARK   11  A    between atoms: C_28  and  C_30
REMARK                            x       y       z     vdW  Elec       q    Type
REMARK                         _______ _______ _______ _____ _____    ______ ____
ROOT
ATOM      1  C   UNL     1      45.400   6.257  11.770  0.00  0.00    +0.000 A 
ATOM      2  C   UNL     1      46.306   6.691  12.758  0.00  0.00    +0.000 A 
ATOM      3  C   UNL     1      46.862   5.802  13.674  0.00  0.00    +0.000 A 
ATOM      4  C   UNL     1      46.526   4.448  13.634  0.00  0.00    +0.000 A 
ATOM      5  C   UNL     1      45.640   3.999  12.639  0.00  0.00    +0.000 A 
ATOM      6  C   UNL     1      45.056   4.887  11.705  0.00  0.00    +0.000 A 
ENDROOT
BRANCH   1   7
ATOM      7  C   UNL     1      44.840   7.311  10.835  0.00  0.00    +0.000 C 
BRANCH   7   8
ATOM      8  N   UNL     1      43.791   8.150  11.415  0.00  0.00    +0.000 NA
ATOM      9  H   UNL     1      42.898   7.816  11.054  0.00  0.00    +0.000 HD
BRANCH   8  10
ATOM     10  C   UNL     1      43.914   9.565  11.030  0.00  0.00    +0.000 C 
BRANCH  10  11
ATOM     11  C   UNL     1      42.533  10.157  10.692  0.00  0.00    +0.000 C 
BRANCH  11  12
ATOM     12  N   UNL     1      41.433   9.313  11.173  0.00  0.00    +0.000 NA
ATOM     13  H   UNL     1      41.760   8.795  11.989  0.00  0.00    +0.000 HD
ATOM     14  H   UNL     1      41.245   8.604  10.466  0.00  0.00    +0.000 HD
ENDBRANCH  11  12
ENDBRANCH  10  11
ENDBRANCH   8  10
ENDBRANCH   7   8
ENDBRANCH   1   7
BRANCH   4  15
ATOM     15  C   UNL     1      47.140   3.501  14.632  0.00  0.00    +0.000 C 
BRANCH  15  16
ATOM     16  N   UNL     1      47.715   4.209  15.750  0.00  0.00    +0.000 N 
ATOM     17  C   UNL     1      47.277   3.973  17.028  0.00  0.00    +0.000 C 
ATOM     18  O   UNL     1      46.401   3.145  17.269  0.00  0.00    +0.000 OA
ATOM     19  H   UNL     1      48.262   5.041  15.549  0.00  0.00    +0.000 HD
BRANCH  17  20
ATOM     20  C   UNL     1      47.941   4.713  18.108  0.00  0.00    +0.000 A 
ATOM     21  C   UNL     1      47.190   5.555  18.918  0.00  0.00    +0.000 A 
ATOM     22  S   UNL     1      48.098   6.328  20.136  0.00  0.00    +0.000 S 
ATOM     23  C   UNL     1      49.538   5.600  19.596  0.00  0.00    +0.000 A 
ATOM     24  N   UNL     1      50.726   5.876  20.199  0.00  0.00    +0.000 NA
ATOM     25  C   UNL     1      51.743   5.280  19.671  0.00  0.00    +0.000 A 
ATOM     26  N   UNL     1      51.677   4.422  18.605  0.00  0.00    +0.000 N 
ATOM     27  C   UNL     1      50.492   4.083  17.990  0.00  0.00    +0.000 A 
ATOM     28  O   UNL     1      50.461   3.262  17.079  0.00  0.00    +0.000 OA
ATOM     29  C   UNL     1      49.326   4.751  18.523  0.00  0.00    +0.000 A 
ATOM     30  H   UNL     1      52.509   3.973  18.253  0.00  0.00    +0.000 HD
ENDBRANCH  17  20
ENDBRANCH  15  16
ENDBRANCH   4  15
BRANCH   6  31
ATOM     31  C   UNL     1      44.121   4.320  10.652  0.00  0.00    +0.000 C 
BRANCH  31  32
ATOM     32  N   UNL     1      44.822   3.406   9.780  0.00  0.00    +0.000 N 
ATOM     33  C   UNL     1      45.544   3.824   8.686  0.00  0.00    +0.000 C 
ATOM     34  O   UNL     1      45.639   5.000   8.353  0.00  0.00    +0.000 OA
ATOM     35  H   UNL     1      44.942   2.462  10.105  0.00  0.00    +0.000 HD
BRANCH  33  36
ATOM     36  C   UNL     1      46.192   2.747   7.955  0.00  0.00    +0.000 A 
ATOM     37  C   UNL     1      46.982   2.766   6.814  0.00  0.00    +0.000 A 
ATOM     38  C   UNL     1      47.384   1.440   6.527  0.00  0.00    +0.000 A 
ATOM     39  C   UNL     1      46.839   0.632   7.496  0.00  0.00    +0.000 A 
ATOM     40  N   UNL     1      46.127   1.427   8.359  0.00  0.00    +0.000 N 
ATOM     41  H   UNL     1      45.625   1.110   9.180  0.00  0.00    +0.000 HD
ENDBRANCH  33  36
ENDBRANCH  31  32
ENDBRANCH   6  31
TORSDOF 11
ENDMDL
MODEL 2
REMARK VINA RESULT:    -7.807      3.621      9.451
REMARK INTER + INTRA:         -13.981
REMARK INTER:                 -12.299
REMARK INTRA:                  -1.682
REMARK UNBOUND:                -1.382
REMARK  Name = 
REMARK  11 active torsions:
REMARK  status: ('A' for Active; 'I' for Inactive)
REMARK    1  A    between atoms: N_1  and  C_2
REMARK    2  A    between atoms: C_2  and  C_3
REMARK    3  A    between atoms: C_3  and  N_4
REMARK    4  A    between atoms: N_4  and  C_5
REMARK    5  A    between atoms: C_5  and  C_6
REMARK    6  A    between atoms: C_9  and  C_10
REMARK    7  A    between atoms: C_10  and  N_11
REMARK    8  A    between atoms: C_12  and  C_14
REMARK    9  A    between atoms: C_25  and  C_26
REMARK   10  A    between atoms: C_26  and  N_27
REMARK   11  A    between atoms: C_28  and  C_30
REMARK                            x       y       z     vdW  Elec       q    Type
REMARK                         _______ _______ _______ _____ _____    ______ ____
ROOT
ATOM      1  C   UNL     1      48.520   5.648  19.052  0.00  0.00    +0.000 A 
ATOM      2  C   UNL     1      48.566   7.046  18.881  0.00  0.00    +0.000 A 
ATOM      3  C   UNL     1      48.622   7.621  17.615  0.00  0.00    +0.000 A 
ATOM      4  C   UNL     1      48.639   6.815  16.476  0.00  0.00    +0.000 A 
ATOM      5  C   UNL     1      48.572   5.420  16.632  0.00  0.00    +0.000 A 
ATOM      6  C   UNL     1      48.523   4.815  17.910  0.00  0.00    +0.000 A 
ENDROOT
BRANCH   1   7
ATOM      7  C   UNL     1      48.477   5.127  20.475  0.00  0.00    +0.000 C 
BRANCH   7   8
ATOM      8  N   UNL     1      49.684   4.419  20.904  0.00  0.00    +0.000 NA
ATOM      9  H   UNL     1      49.498   4.029  21.828  0.00  0.00    +0.000 HD
BRANCH   8  10
ATOM     10  C   UNL     1      50.850   5.308  21.035  0.00  0.00    +0.000 C 
BRANCH  10  11
ATOM     11  C   UNL     1      52.005   4.822  20.139  0.00  0.00    +0.000 C 
BRANCH  11  12
ATOM     12  N   UNL     1      52.866   3.848  20.821  0.00  0.00    +0.000 NA
ATOM     13  H   UNL     1      52.731   2.938  20.379  0.00  0.00    +0.000 HD
ATOM     14  H   UNL     1      52.523   3.733  21.773  0.00  0.00    +0.000 HD
ENDBRANCH  11  12
ENDBRANCH  10  11
ENDBRANCH   8  10
ENDBRANCH   7   8
ENDBRANCH   1   7
BRANCH   4  15
ATOM     15  C   UNL     1      48.698   7.456  15.113  0.00  0.00    +0.000 C 
BRANCH  15  16
ATOM     16  N   UNL     1      47.491   7.216  14.362  0.00  0.00    +0.000 N 
ATOM     17  C   UNL     1      47.488   6.348  13.299  0.00  0.00    +0.000 C 
ATOM     18  O   UNL     1      48.499   5.735  12.963  0.00  0.00    +0.000 OA
ATOM     19  H   UNL     1      46.724   7.873  14.478  0.00  0.00    +0.000 HD
BRANCH  17  20
ATOM     20  C   UNL     1      46.208   6.138  12.613  0.00  0.00    +0.000 A 
ATOM     21  C   UNL     1      45.567   7.220  12.022  0.00  0.00    +0.000 A 
ATOM     22  S   UNL     1      44.103   6.813  11.249  0.00  0.00    +0.000 S 
ATOM     23  C   UNL     1      44.249   5.184  11.716  0.00  0.00    +0.000 A 
ATOM     24  N   UNL     1      43.284   4.279  11.399  0.00  0.00    +0.000 NA
ATOM     25  C   UNL     1      43.506   3.086  11.840  0.00  0.00    +0.000 A 
ATOM     26  N   UNL     1      44.612   2.712  12.556  0.00  0.00    +0.000 N 
ATOM     27  C   UNL     1      45.633   3.584  12.864  0.00  0.00    +0.000 A 
ATOM     28  O   UNL     1      46.640   3.202  13.452  0.00  0.00    +0.000 OA
ATOM     29  C   UNL     1      45.416   4.943  12.422  0.00  0.00    +0.000 A 
ATOM     30  H   UNL     1      44.735   1.756  12.854  0.00  0.00    +0.000 HD
ENDBRANCH  17  20
ENDBRANCH  15  16
ENDBRANCH   4  15
BRANCH   6  31
ATOM     31  C   UNL     1      48.436   3.301  17.993  0.00  0.00    +0.000 C 
BRANCH  31  32
ATOM     32  N   UNL     1      49.745   2.720  18.174  0.00  0.00    +0.000 N 
ATOM     33  C   UNL     1      50.387   2.003  17.191  0.00  0.00    +0.000 C 
ATOM     34  O   UNL     1      49.896   1.787  16.089  0.00  0.00    +0.000 OA
ATOM     35  H   UNL     1      50.275   3.021  18.974  0.00  0.00    +0.000 HD
BRANCH  33  36
ATOM     36  C   UNL     1      51.707   1.524  17.569  0.00  0.00    +0.000 A 
ATOM     37  C   UNL     1      52.931   2.176  17.631  0.00  0.00    +0.000 A 
ATOM     38  C   UNL     1      53.905   1.256  18.084  0.00  0.00    +0.000 A 
ATOM     39  C   UNL     1      53.264   0.059  18.297  0.00  0.00    +0.000 A 
ATOM     40  N   UNL     1      51.937   0.229  17.991  0.00  0.00    +0.000 N 
ATOM     41  H   UNL     1      51.216  -0.480  18.063  0.00  0.00    +0.000 HD
ENDBRANCH  33  36
ENDBRANCH  31  32
ENDBRANCH   6  31
TORSDOF 11
ENDMDL
MODEL 3
REMARK VINA RESULT:    -7.685      2.896      6.459
REMARK INTER + INTRA:         -13.785
REMARK INTER:                 -11.499
REMARK INTRA:                  -2.285
REMARK UNBOUND:                -1.382
REMARK  Name = 
REMARK  11 active torsions:
REMARK  status: ('A' for Active; 'I' for Inactive)
REMARK    1  A    between atoms: N_1  and  C_2
REMARK    2  A    between atoms: C_2  and  C_3
REMARK    3  A    between atoms: C_3  and  N_4
REMARK    4  A    between atoms: N_4  and  C_5
REMARK    5  A    between atoms: C_5  and  C_6
REMARK    6  A    between atoms: C_9  and  C_10
REMARK    7  A    between atoms: C_10  and  N_11
REMARK    8  A    between atoms: C_12  and  C_14
REMARK    9  A    between atoms: C_25  and  C_26
REMARK   10  A    between atoms: C_26  and  N_27
REMARK   11  A    between atoms: C_28  and  C_30
REMARK                            x       y       z     vdW  Elec       q    Type
REMARK                         _______ _______ _______ _____ _____    ______ ____
ROOT
ATOM      1  C   UNL     1      44.882   4.674  11.937  0.00  0.00    +0.000 A 
ATOM      2  C   UNL     1      44.273   5.765  11.285  0.00  0.00    +0.000 A 
ATOM      3  C   UNL     1      44.604   7.079  11.605  0.00  0.00    +0.000 A 
ATOM      4  C   UNL     1      45.553   7.345  12.592  0.00  0.00    +0.000 A 
ATOM      5  C   UNL     1      46.184   6.266  13.235  0.00  0.00    +0.000 A 
ATOM      6  C   UNL     1      45.856   4.923  12.931  0.00  0.00    +0.000 A 
ENDROOT
BRANCH   1   7
ATOM      7  C   UNL     1      44.435   3.286  11.524  0.00  0.00    +0.000 C 
BRANCH   7   8
ATOM      8  N   UNL     1      44.101   3.146  10.107  0.00  0.00    +0.000 NA
ATOM      9  H   UNL     1      43.213   2.648  10.049  0.00  0.00    +0.000 HD
BRANCH   8  10
ATOM     10  C   UNL     1      45.093   2.355   9.362  0.00  0.00    +0.000 C 
BRANCH  10  11
ATOM     11  C   UNL     1      45.572   3.120   8.115  0.00  0.00    +0.000 C 
BRANCH  11  12
ATOM     12  N   UNL     1      45.283   4.557   8.198  0.00  0.00    +0.000 NA
ATOM     13  H   UNL     1      44.943   4.761   9.139  0.00  0.00    +0.000 HD
ATOM     14  H   UNL     1      44.497   4.759   7.583  0.00  0.00    +0.000 HD
ENDBRANCH  11  12
ENDBRANCH  10  11
ENDBRANCH   8  10
ENDBRANCH   7   8
ENDBRANCH   1   7
BRANCH   4  15
ATOM     15  C   UNL     1      45.900   8.774  12.922  0.00  0.00    +0.000 C 
BRANCH  15  16
ATOM     16  N   UNL     1      46.732   8.860  14.097  0.00  0.00    +0.000 N 
ATOM     17  C   UNL     1      48.044   9.251  13.999  0.00  0.00    +0.000 C 
ATOM     18  O   UNL     1      48.548   9.558  12.921  0.00  0.00    +0.000 OA
ATOM     19  H   UNL     1      46.406   8.399  14.941  0.00  0.00    +0.000 HD
BRANCH  17  20
ATOM     20  C   UNL     1      48.808   9.344  15.248  0.00  0.00    +0.000 A 
ATOM     21  C   UNL     1      48.913  10.570  15.893  0.00  0.00    +0.000 A 
ATOM     22  S   UNL     1      49.814  10.512  17.338  0.00  0.00    +0.000 S 
ATOM     23  C   UNL     1      50.136   8.854  17.131  0.00  0.00    +0.000 A 
ATOM     24  N   UNL     1      50.911   8.178  18.023  0.00  0.00    +0.000 NA
ATOM     25  C   UNL     1      51.099   6.935  17.731  0.00  0.00    +0.000 A 
ATOM     26  N   UNL     1      50.572   6.302  16.636  0.00  0.00    +0.000 N 
ATOM     27  C   UNL     1      49.751   6.936  15.730  0.00  0.00    +0.000 A 
ATOM     28  O   UNL     1      49.243   6.324  14.796  0.00  0.00    +0.000 OA
ATOM     29  C   UNL     1      49.536   8.341  15.994  0.00  0.00    +0.000 A 
ATOM     30  H   UNL     1      50.742   5.321  16.476  0.00  0.00    +0.000 HD
ENDBRANCH  17  20
ENDBRANCH  15  16
ENDBRANCH   4  15
BRANCH   6  31
ATOM     31  C   UNL     1      46.595   3.814  13.659  0.00  0.00    +0.000 C 
BRANCH  31  32
ATOM     32  N   UNL     1      46.865   4.189  15.028  0.00  0.00    +0.000 N 
ATOM     33  C   UNL     1      47.729   3.488  15.837  0.00  0.00    +0.000 C 
ATOM     34  O   UNL     1      48.326   2.482  15.470  0.00  0.00    +0.000 OA
ATOM     35  H   UNL     1      46.562   5.101  15.323  0.00  0.00    +0.000 HD
BRANCH  33  36
ATOM     36  C   UNL     1      47.878   4.045  17.172  0.00  0.00    +0.000 A 
ATOM     37  C   UNL     1      48.677   3.657  18.238  0.00  0.00    +0.000 A 
ATOM     38  C   UNL     1      48.460   4.556  19.309  0.00  0.00    +0.000 A 
ATOM     39  C   UNL     1      47.539   5.482  18.881  0.00  0.00    +0.000 A 
ATOM     40  N   UNL     1      47.197   5.173  17.589  0.00  0.00    +0.000 N 
ATOM     41  H   UNL     1      46.545   5.688  17.008  0.00  0.00    +0.000 HD
ENDBRANCH  33  36
ENDBRANCH  31  32
ENDBRANCH   6  31
TORSDOF 11
ENDMDL
MODEL 4
REMARK VINA RESULT:    -7.559      2.750      3.660
REMARK INTER + INTRA:         -13.581
REMARK INTER:                 -12.115
REMARK INTRA:                  -1.466
REMARK UNBOUND:                -1.382
REMARK  Name = 
REMARK  11 active torsions:
REMARK  status: ('A' for Active; 'I' for Inactive)
REMARK    1  A    between atoms: N_1  and  C_2
REMARK    2  A    between atoms: C_2  and  C_3
REMARK    3  A    between atoms: C_3  and  N_4
REMARK    4  A    between atoms: N_4  and  C_5
REMARK    5  A    between atoms: C_5  and  C_6
REMARK    6  A    between atoms: C_9  and  C_10
REMARK    7  A    between atoms: C_10  and  N_11
REMARK    8  A    between atoms: C_12  and  C_14
REMARK    9  A    between atoms: C_25  and  C_26
REMARK   10  A    between atoms: C_26  and  N_27
REMARK   11  A    between atoms: C_28  and  C_30
REMARK                            x       y       z     vdW  Elec       q    Type
REMARK                         _______ _______ _______ _____ _____    ______ ____
ROOT
ATOM      1  C   UNL     1      45.917   4.879  12.496  0.00  0.00    +0.000 A 
ATOM      2  C   UNL     1      46.589   4.867  13.735  0.00  0.00    +0.000 A 
ATOM      3  C   UNL     1      47.570   5.808  14.038  0.00  0.00    +0.000 A 
ATOM      4  C   UNL     1      47.915   6.789  13.108  0.00  0.00    +0.000 A 
ATOM      5  C   UNL     1      47.237   6.824  11.877  0.00  0.00    +0.000 A 
ATOM      6  C   UNL     1      46.244   5.873  11.546  0.00  0.00    +0.000 A 
ENDROOT
BRANCH   1   7
ATOM      7  C   UNL     1      44.879   3.799  12.263  0.00  0.00    +0.000 C 
BRANCH   7   8
ATOM      8  N   UNL     1      43.791   3.775  13.241  0.00  0.00    +0.000 NA
ATOM      9  H   UNL     1      43.178   2.997  12.998  0.00  0.00    +0.000 HD
BRANCH   8  10
ATOM     10  C   UNL     1      42.973   4.998  13.215  0.00  0.00    +0.000 C 
BRANCH  10  11
ATOM     11  C   UNL     1      42.430   5.257  11.797  0.00  0.00    +0.000 C 
BRANCH  11  12
ATOM     12  N   UNL     1      42.248   6.688  11.524  0.00  0.00    +0.000 NA
ATOM     13  H   UNL     1      41.453   7.019  12.070  0.00  0.00    +0.000 HD
ATOM     14  H   UNL     1      41.962   6.791  10.551  0.00  0.00    +0.000 HD
ENDBRANCH  11  12
ENDBRANCH  10  11
ENDBRANCH   8  10
ENDBRANCH   7   8
ENDBRANCH   1   7
BRANCH   4  15
ATOM     15  C   UNL     1      48.978   7.799  13.456  0.00  0.00    +0.000 C 
BRANCH  15  16
ATOM     16  N   UNL     1      50.079   7.189  14.159  0.00  0.00    +0.000 N 
ATOM     17  C   UNL     1      50.774   7.888  15.114  0.00  0.00    +0.000 C 
ATOM     18  O   UNL     1      50.474   9.042  15.416  0.00  0.00    +0.000 OA
ATOM     19  H   UNL     1      50.477   6.340  13.768  0.00  0.00    +0.000 HD
BRANCH  17  20
ATOM     20  C   UNL     1      51.858   7.180  15.804  0.00  0.00    +0.000 A 
ATOM     21  C   UNL     1      53.163   7.637  15.671  0.00  0.00    +0.000 A 
ATOM     22  S   UNL     1      54.304   6.722  16.545  0.00  0.00    +0.000 S 
ATOM     23  C   UNL     1      53.101   5.652  17.096  0.00  0.00    +0.000 A 
ATOM     24  N   UNL     1      53.423   4.587  17.880  0.00  0.00    +0.000 NA
ATOM     25  C   UNL     1      52.419   3.840  18.202  0.00  0.00    +0.000 A 
ATOM     26  N   UNL     1      51.123   4.070  17.823  0.00  0.00    +0.000 N 
ATOM     27  C   UNL     1      50.747   5.156  17.065  0.00  0.00    +0.000 A 
ATOM     28  O   UNL     1      49.568   5.368  16.798  0.00  0.00    +0.000 OA
ATOM     29  C   UNL     1      51.839   6.006  16.649  0.00  0.00    +0.000 A 
ATOM     30  H   UNL     1      50.381   3.457  18.127  0.00  0.00    +0.000 HD
ENDBRANCH  17  20
ENDBRANCH  15  16
ENDBRANCH   4  15
BRANCH   6  31
ATOM     31  C   UNL     1      45.548   5.990  10.202  0.00  0.00    +0.000 C 
BRANCH  31  32
ATOM     32  N   UNL     1      46.098   5.049   9.254  0.00  0.00    +0.000 N 
ATOM     33  C   UNL     1      45.332   4.105   8.610  0.00  0.00    +0.000 C 
ATOM     34  O   UNL     1      44.128   3.975   8.796  0.00  0.00    +0.000 OA
ATOM     35  H   UNL     1      47.028   5.227   8.917  0.00  0.00    +0.000 HD
BRANCH  33  36
ATOM     36  C   UNL     1      46.076   3.271   7.679  0.00  0.00    +0.000 A 
ATOM     37  C   UNL     1      46.606   3.550   6.428  0.00  0.00    +0.000 A 
ATOM     38  C   UNL     1      47.261   2.390   5.951  0.00  0.00    +0.000 A 
ATOM     39  C   UNL     1      47.126   1.422   6.918  0.00  0.00    +0.000 A 
ATOM     40  N   UNL     1      46.417   1.962   7.961  0.00  0.00    +0.000 N 
ATOM     41  H   UNL     1      46.174   1.485   8.822  0.00  0.00    +0.000 HD
ENDBRANCH  33  36
ENDBRANCH  31  32
ENDBRANCH   6  31
TORSDOF 11
ENDMDL
MODEL 5
REMARK VINA RESULT:    -7.535      1.984      2.876
REMARK INTER + INTRA:         -13.542
REMARK INTER:                 -12.435
REMARK INTRA:                  -1.107
REMARK UNBOUND:                -1.382
REMARK  Name = 
REMARK  11 active torsions:
REMARK  status: ('A' for Active; 'I' for Inactive)
REMARK    1  A    between atoms: N_1  and  C_2
REMARK    2  A    between atoms: C_2  and  C_3
REMARK    3  A    between atoms: C_3  and  N_4
REMARK    4  A    between atoms: N_4  and  C_5
REMARK    5  A    between atoms: C_5  and  C_6
REMARK    6  A    between atoms: C_9  and  C_10
REMARK    7  A    between atoms: C_10  and  N_11
REMARK    8  A    between atoms: C_12  and  C_14
REMARK    9  A    between atoms: C_25  and  C_26
REMARK   10  A    between atoms: C_26  and  N_27
REMARK   11  A    between atoms: C_28  and  C_30
REMARK                            x       y       z     vdW  Elec       q    Type
REMARK                         _______ _______ _______ _____ _____    ______ ____
ROOT
ATOM      1  C   UNL     1      45.719   4.448  12.548  0.00  0.00    +0.000 A 
ATOM      2  C   UNL     1      46.260   4.282  13.838  0.00  0.00    +0.000 A 
ATOM      3  C   UNL     1      47.218   5.157  14.341  0.00  0.00    +0.000 A 
ATOM      4  C   UNL     1      47.672   6.225  13.567  0.00  0.00    +0.000 A 
ATOM      5  C   UNL     1      47.125   6.414  12.286  0.00  0.00    +0.000 A 
ATOM      6  C   UNL     1      46.156   5.532  11.752  0.00  0.00    +0.000 A 
ENDROOT
BRANCH   1   7
ATOM      7  C   UNL     1      44.694   3.428  12.092  0.00  0.00    +0.000 C 
BRANCH   7   8
ATOM      8  N   UNL     1      43.378   3.562  12.716  0.00  0.00    +0.000 NA
ATOM      9  H   UNL     1      42.694   3.151  12.081  0.00  0.00    +0.000 HD
BRANCH   8  10
ATOM     10  C   UNL     1      42.986   4.965  12.926  0.00  0.00    +0.000 C 
BRANCH  10  11
ATOM     11  C   UNL     1      42.204   5.498  11.711  0.00  0.00    +0.000 C 
BRANCH  11  12
ATOM     12  N   UNL     1      42.557   6.886  11.387  0.00  0.00    +0.000 NA
ATOM     13  H   UNL     1      42.999   7.303  12.207  0.00  0.00    +0.000 HD
ATOM     14  H   UNL     1      41.693   7.410  11.256  0.00  0.00    +0.000 HD
ENDBRANCH  11  12
ENDBRANCH  10  11
ENDBRANCH   8  10
ENDBRANCH   7   8
ENDBRANCH   1   7
BRANCH   4  15
ATOM     15  C   UNL     1      48.709   7.163  14.130  0.00  0.00    +0.000 C 
BRANCH  15  16
ATOM     16  N   UNL     1      48.736   7.119  15.571  0.00  0.00    +0.000 N 
ATOM     17  C   UNL     1      49.908   6.880  16.243  0.00  0.00    +0.000 C 
ATOM     18  O   UNL     1      50.971   6.715  15.649  0.00  0.00    +0.000 OA
ATOM     19  H   UNL     1      47.848   7.025  16.057  0.00  0.00    +0.000 HD
BRANCH  17  20
ATOM     20  C   UNL     1      49.850   6.886  17.709  0.00  0.00    +0.000 A 
ATOM     21  C   UNL     1      50.321   7.993  18.404  0.00  0.00    +0.000 A 
ATOM     22  S   UNL     1      50.169   7.858  20.096  0.00  0.00    +0.000 S 
ATOM     23  C   UNL     1      49.511   6.294  19.964  0.00  0.00    +0.000 A 
ATOM     24  N   UNL     1      49.186   5.579  21.076  0.00  0.00    +0.000 NA
ATOM     25  C   UNL     1      48.724   4.398  20.833  0.00  0.00    +0.000 A 
ATOM     26  N   UNL     1      48.545   3.872  19.581  0.00  0.00    +0.000 N 
ATOM     27  C   UNL     1      48.823   4.574  18.429  0.00  0.00    +0.000 A 
ATOM     28  O   UNL     1      48.591   4.098  17.322  0.00  0.00    +0.000 OA
ATOM     29  C   UNL     1      49.375   5.892  18.646  0.00  0.00    +0.000 A 
ATOM     30  H   UNL     1      48.161   2.948  19.460  0.00  0.00    +0.000 HD
ENDBRANCH  17  20
ENDBRANCH  15  16
ENDBRANCH   4  15
BRANCH   6  31
ATOM     31  C   UNL     1      45.603   5.814  10.367  0.00  0.00    +0.000 C 
BRANCH  31  32
ATOM     32  N   UNL     1      46.140   4.885   9.400  0.00  0.00    +0.000 N 
ATOM     33  C   UNL     1      45.345   4.106   8.591  0.00  0.00    +0.000 C 
ATOM     34  O   UNL     1      44.120   4.126   8.634  0.00  0.00    +0.000 OA
ATOM     35  H   UNL     1      47.119   4.962   9.183  0.00  0.00    +0.000 HD
BRANCH  33  36
ATOM     36  C   UNL     1      46.083   3.255   7.672  0.00  0.00    +0.000 A 
ATOM     37  C   UNL     1      46.581   3.502   6.400  0.00  0.00    +0.000 A 
ATOM     38  C   UNL     1      47.246   2.339   5.947  0.00  0.00    +0.000 A 
ATOM     39  C   UNL     1      47.152   1.402   6.948  0.00  0.00    +0.000 A 
ATOM     40  N   UNL     1      46.456   1.963   7.988  0.00  0.00    +0.000 N 
ATOM     41  H   UNL     1      46.240   1.511   8.870  0.00  0.00    +0.000 HD
ENDBRANCH  33  36
ENDBRANCH  31  32
ENDBRANCH   6  31
TORSDOF 11
ENDMDL
MODEL 6
REMARK VINA RESULT:    -7.047      3.734      9.760
REMARK INTER + INTRA:         -12.754
REMARK INTER:                 -11.164
REMARK INTRA:                  -1.591
REMARK UNBOUND:                -1.382
REMARK  Name = 
REMARK  11 active torsions:
REMARK  status: ('A' for Active; 'I' for Inactive)
REMARK    1  A    between atoms: N_1  and  C_2
REMARK    2  A    between atoms: C_2  and  C_3
REMARK    3  A    between atoms: C_3  and  N_4
REMARK    4  A    between atoms: N_4  and  C_5
REMARK    5  A    between atoms: C_5  and  C_6
REMARK    6  A    between atoms: C_9  and  C_10
REMARK    7  A    between atoms: C_10  and  N_11
REMARK    8  A    between atoms: C_12  and  C_14
REMARK    9  A    between atoms: C_25  and  C_26
REMARK   10  A    between atoms: C_26  and  N_27
REMARK   11  A    between atoms: C_28  and  C_30
REMARK                            x       y       z     vdW  Elec       q    Type
REMARK                         _______ _______ _______ _____ _____    ______ ____
ROOT
ATOM      1  C   UNL     1      51.364   3.372  17.716  0.00  0.00    +0.000 A 
ATOM      2  C   UNL     1      50.685   2.210  17.300  0.00  0.00    +0.000 A 
ATOM      3  C   UNL     1      49.321   2.227  17.019  0.00  0.00    +0.000 A 
ATOM      4  C   UNL     1      48.591   3.408  17.149  0.00  0.00    +0.000 A 
ATOM      5  C   UNL     1      49.261   4.580  17.542  0.00  0.00    +0.000 A 
ATOM      6  C   UNL     1      50.643   4.582  17.841  0.00  0.00    +0.000 A 
ENDROOT
BRANCH   1   7
ATOM      7  C   UNL     1      52.844   3.238  18.012  0.00  0.00    +0.000 C 
BRANCH   7   8
ATOM      8  N   UNL     1      53.191   2.142  18.917  0.00  0.00    +0.000 NA
ATOM      9  H   UNL     1      53.429   2.554  19.820  0.00  0.00    +0.000 HD
BRANCH   8  10
ATOM     10  C   UNL     1      54.365   1.379  18.465  0.00  0.00    +0.000 C 
BRANCH  10  11
ATOM     11  C   UNL     1      53.932   0.049  17.821  0.00  0.00    +0.000 C 
BRANCH  11  12
ATOM     12  N   UNL     1      52.748  -0.525  18.472  0.00  0.00    +0.000 NA
ATOM     13  H   UNL     1      52.312  -1.181  17.822  0.00  0.00    +0.000 HD
ATOM     14  H   UNL     1      52.063   0.218  18.597  0.00  0.00    +0.000 HD
ENDBRANCH  11  12
ENDBRANCH  10  11
ENDBRANCH   8  10
ENDBRANCH   7   8
ENDBRANCH   1   7
BRANCH   4  15
ATOM     15  C   UNL     1      47.116   3.407  16.838  0.00  0.00    +0.000 C 
BRANCH  15  16
ATOM     16  N   UNL     1      46.779   4.418  15.866  0.00  0.00    +0.000 N 
ATOM     17  C   UNL     1      46.912   4.170  14.523  0.00  0.00    +0.000 C 
ATOM     18  O   UNL     1      47.301   3.082  14.102  0.00  0.00    +0.000 OA
ATOM     19  H   UNL     1      46.680   5.374  16.194  0.00  0.00    +0.000 HD
BRANCH  17  20
ATOM     20  C   UNL     1      46.514   5.242  13.603  0.00  0.00    +0.000 A 
ATOM     21  C   UNL     1      47.400   6.280  13.344  0.00  0.00    +0.000 A 
ATOM     22  S   UNL     1      46.802   7.436  12.244  0.00  0.00    +0.000 S 
ATOM     23  C   UNL     1      45.317   6.616  12.110  0.00  0.00    +0.000 A 
ATOM     24  N   UNL     1      44.317   7.110  11.331  0.00  0.00    +0.000 NA
ATOM     25  C   UNL     1      43.235   6.405  11.342  0.00  0.00    +0.000 A 
ATOM     26  N   UNL     1      43.068   5.244  12.049  0.00  0.00    +0.000 N 
ATOM     27  C   UNL     1      44.066   4.686  12.817  0.00  0.00    +0.000 A 
ATOM     28  O   UNL     1      43.906   3.611  13.386  0.00  0.00    +0.000 OA
ATOM     29  C   UNL     1      45.289   5.456  12.865  0.00  0.00    +0.000 A 
ATOM     30  H   UNL     1      42.202   4.729  11.999  0.00  0.00    +0.000 HD
ENDBRANCH  17  20
ENDBRANCH  15  16
ENDBRANCH   4  15
BRANCH   6  31
ATOM     31  C   UNL     1      51.296   5.893  18.244  0.00  0.00    +0.000 C 
BRANCH  31  32
ATOM     32  N   UNL     1      51.199   6.864  17.179  0.00  0.00    +0.000 N 
ATOM     33  C   UNL     1      52.137   6.970  16.178  0.00  0.00    +0.000 C 
ATOM     34  O   UNL     1      53.136   6.262  16.116  0.00  0.00    +0.000 OA
ATOM     35  H   UNL     1      50.319   7.336  17.066  0.00  0.00    +0.000 HD
BRANCH  33  36
ATOM     36  C   UNL     1      51.841   7.996  15.191  0.00  0.00    +0.000 A 
ATOM     37  C   UNL     1      51.340   9.282  15.335  0.00  0.00    +0.000 A 
ATOM     38  C   UNL     1      51.260   9.877  14.054  0.00  0.00    +0.000 A 
ATOM     39  C   UNL     1      51.717   8.949  13.148  0.00  0.00    +0.000 A 
ATOM     40  N   UNL     1      52.072   7.820  13.841  0.00  0.00    +0.000 N 
ATOM     41  H   UNL     1      52.455   6.972  13.437  0.00  0.00    +0.000 HD
ENDBRANCH  33  36
ENDBRANCH  31  32
ENDBRANCH   6  31
TORSDOF 11
ENDMDL
MODEL 7
REMARK VINA RESULT:    -6.943      3.466      5.955
REMARK INTER + INTRA:         -12.587
REMARK INTER:                 -11.105
REMARK INTRA:                  -1.483
REMARK UNBOUND:                -1.382
REMARK  Name = 
REMARK  11 active torsions:
REMARK  status: ('A' for Active; 'I' for Inactive)
REMARK    1  A    between atoms: N_1  and  C_2
REMARK    2  A    between atoms: C_2  and  C_3
REMARK    3  A    between atoms: C_3  and  N_4
REMARK    4  A    between atoms: N_4  and  C_5
REMARK    5  A    between atoms: C_5  and  C_6
REMARK    6  A    between atoms: C_9  and  C_10
REMARK    7  A    between atoms: C_10  and  N_11
REMARK    8  A    between atoms: C_12  and  C_14
REMARK    9  A    between atoms: C_25  and  C_26
REMARK   10  A    between atoms: C_26  and  N_27
REMARK   11  A    between atoms: C_28  and  C_30
REMARK                            x       y       z     vdW  Elec       q    Type
REMARK                         _______ _______ _______ _____ _____    ______ ____
ROOT
ATOM      1  C   UNL     1      45.124   7.655  12.125  0.00  0.00    +0.000 A 
ATOM      2  C   UNL     1      44.442   6.428  11.997  0.00  0.00    +0.000 A 
ATOM      3  C   UNL     1      44.893   5.277  12.637  0.00  0.00    +0.000 A 
ATOM      4  C   UNL     1      46.045   5.314  13.424  0.00  0.00    +0.000 A 
ATOM      5  C   UNL     1      46.722   6.537  13.577  0.00  0.00    +0.000 A 
ATOM      6  C   UNL     1      46.286   7.716  12.928  0.00  0.00    +0.000 A 
ENDROOT
BRANCH   1   7
ATOM      7  C   UNL     1      44.557   8.842  11.371  0.00  0.00    +0.000 C 
BRANCH   7   8
ATOM      8  N   UNL     1      43.161   8.696  10.961  0.00  0.00    +0.000 NA
ATOM      9  H   UNL     1      43.118   7.933  10.286  0.00  0.00    +0.000 HD
BRANCH   8  10
ATOM     10  C   UNL     1      42.635   9.897  10.292  0.00  0.00    +0.000 C 
BRANCH  10  11
ATOM     11  C   UNL     1      41.392  10.429  11.030  0.00  0.00    +0.000 C 
BRANCH  11  12
ATOM     12  N   UNL     1      40.475   9.353  11.423  0.00  0.00    +0.000 NA
ATOM     13  H   UNL     1      40.579   8.585  10.758  0.00  0.00    +0.000 HD
ATOM     14  H   UNL     1      39.521   9.686  11.294  0.00  0.00    +0.000 HD
ENDBRANCH  11  12
ENDBRANCH  10  11
ENDBRANCH   8  10
ENDBRANCH   7   8
ENDBRANCH   1   7
BRANCH   4  15
ATOM     15  C   UNL     1      46.515   4.058  14.111  0.00  0.00    +0.000 C 
BRANCH  15  16
ATOM     16  N   UNL     1      47.581   4.331  15.042  0.00  0.00    +0.000 N 
ATOM     17  C   UNL     1      47.450   4.011  16.370  0.00  0.00    +0.000 C 
ATOM     18  O   UNL     1      46.437   3.469  16.808  0.00  0.00    +0.000 OA
ATOM     19  H   UNL     1      48.312   4.973  14.748  0.00  0.00    +0.000 HD
BRANCH  17  20
ATOM     20  C   UNL     1      48.597   4.293  17.241  0.00  0.00    +0.000 A 
ATOM     21  C   UNL     1      48.605   5.455  18.002  0.00  0.00    +0.000 A 
ATOM     22  S   UNL     1      49.994   5.631  18.974  0.00  0.00    +0.000 S 
ATOM     23  C   UNL     1      50.658   4.183  18.378  0.00  0.00    +0.000 A 
ATOM     24  N   UNL     1      51.885   3.760  18.786  0.00  0.00    +0.000 NA
ATOM     25  C   UNL     1      52.281   2.662  18.234  0.00  0.00    +0.000 A 
ATOM     26  N   UNL     1      51.556   1.941  17.322  0.00  0.00    +0.000 N 
ATOM     27  C   UNL     1      50.294   2.310  16.912  0.00  0.00    +0.000 A 
ATOM     28  O   UNL     1      49.645   1.608  16.142  0.00  0.00    +0.000 OA
ATOM     29  C   UNL     1      49.818   3.553  17.476  0.00  0.00    +0.000 A 
ATOM     30  H   UNL     1      51.916   1.079  16.943  0.00  0.00    +0.000 HD
ENDBRANCH  17  20
ENDBRANCH  15  16
ENDBRANCH   4  15
BRANCH   6  31
ATOM     31  C   UNL     1      47.064   8.999  13.157  0.00  0.00    +0.000 C 
BRANCH  31  32
ATOM     32  N   UNL     1      47.303   9.211  14.566  0.00  0.00    +0.000 N 
ATOM     33  C   UNL     1      48.559   9.168  15.126  0.00  0.00    +0.000 C 
ATOM     34  O   UNL     1      49.574   8.933  14.480  0.00  0.00    +0.000 OA
ATOM     35  H   UNL     1      46.547   9.595  15.107  0.00  0.00    +0.000 HD
BRANCH  33  36
ATOM     36  C   UNL     1      48.582   9.431  16.556  0.00  0.00    +0.000 A 
ATOM     37  C   UNL     1      49.428  10.218  17.324  0.00  0.00    +0.000 A 
ATOM     38  C   UNL     1      49.001  10.148  18.672  0.00  0.00    +0.000 A 
ATOM     39  C   UNL     1      47.901   9.326  18.706  0.00  0.00    +0.000 A 
ATOM     40  N   UNL     1      47.649   8.902  17.426  0.00  0.00    +0.000 N 
ATOM     41  H   UNL     1      46.890   8.292  17.141  0.00  0.00    +0.000 HD
ENDBRANCH  33  36
ENDBRANCH  31  32
ENDBRANCH   6  31
TORSDOF 11
ENDMDL
MODEL 8
REMARK VINA RESULT:    -6.830      3.432      6.683
REMARK INTER + INTRA:         -12.404
REMARK INTER:                 -10.201
REMARK INTRA:                  -2.203
REMARK UNBOUND:                -1.382
REMARK  Name = 
REMARK  11 active torsions:
REMARK  status: ('A' for Active; 'I' for Inactive)
REMARK    1  A    between atoms: N_1  and  C_2
REMARK    2  A    between atoms: C_2  and  C_3
REMARK    3  A    between atoms: C_3  and  N_4
REMARK    4  A    between atoms: N_4  and  C_5
REMARK    5  A    between atoms: C_5  and  C_6
REMARK    6  A    between atoms: C_9  and  C_10
REMARK    7  A    between atoms: C_10  and  N_11
REMARK    8  A    between atoms: C_12  and  C_14
REMARK    9  A    between atoms: C_25  and  C_26
REMARK   10  A    between atoms: C_26  and  N_27
REMARK   11  A    between atoms: C_28  and  C_30
REMARK                            x       y       z     vdW  Elec       q    Type
REMARK                         _______ _______ _______ _____ _____    ______ ____
ROOT
ATOM      1  C   UNL     1      45.029   6.318  12.715  0.00  0.00    +0.000 A 
ATOM      2  C   UNL     1      44.875   7.554  12.055  0.00  0.00    +0.000 A 
ATOM      3  C   UNL     1      45.961   8.395  11.828  0.00  0.00    +0.000 A 
ATOM      4  C   UNL     1      47.237   8.030  12.257  0.00  0.00    +0.000 A 
ATOM      5  C   UNL     1      47.407   6.790  12.897  0.00  0.00    +0.000 A 
ATOM      6  C   UNL     1      46.317   5.924  13.146  0.00  0.00    +0.000 A 
ENDROOT
BRANCH   1   7
ATOM      7  C   UNL     1      43.779   5.488  12.926  0.00  0.00    +0.000 C 
BRANCH   7   8
ATOM      8  N   UNL     1      42.923   5.358  11.746  0.00  0.00    +0.000 NA
ATOM      9  H   UNL     1      42.014   5.023  12.063  0.00  0.00    +0.000 HD
BRANCH   8  10
ATOM     10  C   UNL     1      43.434   4.377  10.776  0.00  0.00    +0.000 C 
BRANCH  10  11
ATOM     11  C   UNL     1      43.996   3.139  11.501  0.00  0.00    +0.000 C 
BRANCH  11  12
ATOM     12  N   UNL     1      42.984   2.090  11.676  0.00  0.00    +0.000 NA
ATOM     13  H   UNL     1      42.442   2.021  10.814  0.00  0.00    +0.000 HD
ATOM     14  H   UNL     1      42.320   2.404  12.382  0.00  0.00    +0.000 HD
ENDBRANCH  11  12
ENDBRANCH  10  11
ENDBRANCH   8  10
ENDBRANCH   7   8
ENDBRANCH   1   7
BRANCH   4  15
ATOM     15  C   UNL     1      48.400   8.954  11.999  0.00  0.00    +0.000 C 
BRANCH  15  16
ATOM     16  N   UNL     1      49.369   8.896  13.065  0.00  0.00    +0.000 N 
ATOM     17  C   UNL     1      50.637   8.427  12.834  0.00  0.00    +0.000 C 
ATOM     18  O   UNL     1      50.997   8.059  11.717  0.00  0.00    +0.000 OA
ATOM     19  H   UNL     1      49.027   8.975  14.018  0.00  0.00    +0.000 HD
BRANCH  17  20
ATOM     20  C   UNL     1      51.569   8.435  13.968  0.00  0.00    +0.000 A 
ATOM     21  C   UNL     1      52.732   9.190  13.887  0.00  0.00    +0.000 A 
ATOM     22  S   UNL     1      53.700   9.112  15.287  0.00  0.00    +0.000 S 
ATOM     23  C   UNL     1      52.623   8.028  16.035  0.00  0.00    +0.000 A 
ATOM     24  N   UNL     1      52.887   7.525  17.271  0.00  0.00    +0.000 NA
ATOM     25  C   UNL     1      52.003   6.692  17.708  0.00  0.00    +0.000 A 
ATOM     26  N   UNL     1      50.871   6.328  17.027  0.00  0.00    +0.000 N 
ATOM     27  C   UNL     1      50.543   6.842  15.793  0.00  0.00    +0.000 A 
ATOM     28  O   UNL     1      49.490   6.544  15.238  0.00  0.00    +0.000 OA
ATOM     29  C   UNL     1      51.520   7.755  15.243  0.00  0.00    +0.000 A 
ATOM     30  H   UNL     1      50.209   5.685  17.435  0.00  0.00    +0.000 HD
ENDBRANCH  17  20
ENDBRANCH  15  16
ENDBRANCH   4  15
BRANCH   6  31
ATOM     31  C   UNL     1      46.588   4.595  13.829  0.00  0.00    +0.000 C 
BRANCH  31  32
ATOM     32  N   UNL     1      46.966   4.794  15.208  0.00  0.00    +0.000 N 
ATOM     33  C   UNL     1      47.604   3.830  15.954  0.00  0.00    +0.000 C 
ATOM     34  O   UNL     1      47.891   2.722  15.515  0.00  0.00    +0.000 OA
ATOM     35  H   UNL     1      46.934   5.734  15.563  0.00  0.00    +0.000 HD
BRANCH  33  36
ATOM     36  C   UNL     1      47.917   4.240  17.314  0.00  0.00    +0.000 A 
ATOM     37  C   UNL     1      47.379   5.240  18.111  0.00  0.00    +0.000 A 
ATOM     38  C   UNL     1      48.026   5.206  19.369  0.00  0.00    +0.000 A 
ATOM     39  C   UNL     1      48.943   4.183  19.325  0.00  0.00    +0.000 A 
ATOM     40  N   UNL     1      48.867   3.600  18.085  0.00  0.00    +0.000 N 
ATOM     41  H   UNL     1      49.418   2.810  17.766  0.00  0.00    +0.000 HD
ENDBRANCH  33  36
ENDBRANCH  31  32
ENDBRANCH   6  31
TORSDOF 11
ENDMDL
MODEL 9
REMARK VINA RESULT:    -6.685      3.470      9.188
REMARK INTER + INTRA:         -12.170
REMARK INTER:                 -10.294
REMARK INTRA:                  -1.877
REMARK UNBOUND:                -1.382
REMARK  Name = 
REMARK  11 active torsions:
REMARK  status: ('A' for Active; 'I' for Inactive)
REMARK    1  A    between atoms: N_1  and  C_2
REMARK    2  A    between atoms: C_2  and  C_3
REMARK    3  A    between atoms: C_3  and  N_4
REMARK    4  A    between atoms: N_4  and  C_5
REMARK    5  A    between atoms: C_5  and  C_6
REMARK    6  A    between atoms: C_9  and  C_10
REMARK    7  A    between atoms: C_10  and  N_11
REMARK    8  A    between atoms: C_12  and  C_14
REMARK    9  A    between atoms: C_25  and  C_26
REMARK   10  A    between atoms: C_26  and  N_27
REMARK   11  A    between atoms: C_28  and  C_30
REMARK                            x       y       z     vdW  Elec       q    Type
REMARK                         _______ _______ _______ _____ _____    ______ ____
ROOT
ATOM      1  C   UNL     1      49.784   8.903  13.754  0.00  0.00    +0.000 A 
ATOM      2  C   UNL     1      49.637   8.993  12.355  0.00  0.00    +0.000 A 
ATOM      3  C   UNL     1      48.402   8.801  11.742  0.00  0.00    +0.000 A 
ATOM      4  C   UNL     1      47.274   8.506  12.508  0.00  0.00    +0.000 A 
ATOM      5  C   UNL     1      47.403   8.436  13.906  0.00  0.00    +0.000 A 
ATOM      6  C   UNL     1      48.650   8.619  14.549  0.00  0.00    +0.000 A 
ENDROOT
BRANCH   1   7
ATOM      7  C   UNL     1      51.176   9.113  14.317  0.00  0.00    +0.000 C 
BRANCH   7   8
ATOM      8  N   UNL     1      52.103   8.005  14.088  0.00  0.00    +0.000 NA
ATOM      9  H   UNL     1      51.655   7.155  14.429  0.00  0.00    +0.000 HD
BRANCH   8  10
ATOM     10  C   UNL     1      53.367   8.157  14.827  0.00  0.00    +0.000 C 
BRANCH  10  11
ATOM     11  C   UNL     1      53.864   6.791  15.336  0.00  0.00    +0.000 C 
BRANCH  11  12
ATOM     12  N   UNL     1      53.079   6.303  16.477  0.00  0.00    +0.000 NA
ATOM     13  H   UNL     1      52.728   5.373  16.248  0.00  0.00    +0.000 HD
ATOM     14  H   UNL     1      52.248   6.886  16.562  0.00  0.00    +0.000 HD
ENDBRANCH  11  12
ENDBRANCH  10  11
ENDBRANCH   8  10
ENDBRANCH   7   8
ENDBRANCH   1   7
BRANCH   4  15
ATOM     15  C   UNL     1      45.945   8.304  11.825  0.00  0.00    +0.000 C 
BRANCH  15  16
ATOM     16  N   UNL     1      45.675   6.906  11.596  0.00  0.00    +0.000 N 
ATOM     17  C   UNL     1      44.396   6.470  11.358  0.00  0.00    +0.000 C 
ATOM     18  O   UNL     1      43.446   7.248  11.313  0.00  0.00    +0.000 OA
ATOM     19  H   UNL     1      46.395   6.238  11.855  0.00  0.00    +0.000 HD
BRANCH  17  20
ATOM     20  C   UNL     1      44.217   5.036  11.102  0.00  0.00    +0.000 A 
ATOM     21  C   UNL     1      43.435   4.283  11.969  0.00  0.00    +0.000 A 
ATOM     22  S   UNL     1      43.307   2.641  11.529  0.00  0.00    +0.000 S 
ATOM     23  C   UNL     1      44.331   2.867  10.189  0.00  0.00    +0.000 A 
ATOM     24  N   UNL     1      44.670   1.822   9.387  0.00  0.00    +0.000 NA
ATOM     25  C   UNL     1      45.475   2.127   8.425  0.00  0.00    +0.000 A 
ATOM     26  N   UNL     1      45.961   3.385   8.184  0.00  0.00    +0.000 N 
ATOM     27  C   UNL     1      45.612   4.479   8.944  0.00  0.00    +0.000 A 
ATOM     28  O   UNL     1      46.014   5.604   8.661  0.00  0.00    +0.000 OA
ATOM     29  C   UNL     1      44.738   4.184  10.056  0.00  0.00    +0.000 A 
ATOM     30  H   UNL     1      46.572   3.560   7.401  0.00  0.00    +0.000 HD
ENDBRANCH  17  20
ENDBRANCH  15  16
ENDBRANCH   4  15
BRANCH   6  31
ATOM     31  C   UNL     1      48.702   8.542  16.064  0.00  0.00    +0.000 C 
BRANCH  31  32
ATOM     32  N   UNL     1      48.319   7.228  16.526  0.00  0.00    +0.000 N 
ATOM     33  C   UNL     1      49.141   6.130  16.418  0.00  0.00    +0.000 C 
ATOM     34  O   UNL     1      50.256   6.172  15.911  0.00  0.00    +0.000 OA
ATOM     35  H   UNL     1      47.509   7.167  17.118  0.00  0.00    +0.000 HD
BRANCH  33  36
ATOM     36  C   UNL     1      48.575   4.907  16.964  0.00  0.00    +0.000 A 
ATOM     37  C   UNL     1      47.620   4.037  16.456  0.00  0.00    +0.000 A 
ATOM     38  C   UNL     1      47.441   2.981  17.379  0.00  0.00    +0.000 A 
ATOM     39  C   UNL     1      48.291   3.216  18.434  0.00  0.00    +0.000 A 
ATOM     40  N   UNL     1      48.977   4.375  18.174  0.00  0.00    +0.000 N 
ATOM     41  H   UNL     1      49.682   4.793  18.770  0.00  0.00    +0.000 HD
ENDBRANCH  33  36
ENDBRANCH  31  32
ENDBRANCH   6  31
TORSDOF 11
ENDMDL
