MODEL 1
REMARK VINA RESULT:    -8.277      0.000      0.000
REMARK INTER + INTRA:         -11.567
REMARK INTER:                 -10.696
REMARK INTRA:                  -0.870
REMARK UNBOUND:                -0.870
REMARK  Name = 
REMARK  8 active torsions:
REMARK  status: ('A' for Active; 'I' for Inactive)
REMARK    1  A    between atoms: C_1  and  C_2
REMARK    2  A    between atoms: C_5  and  C_6
REMARK    3  A    between atoms: C_10  and  C_11
REMARK    4  A    between atoms: C_11  and  C_12
REMARK    5  A    between atoms: C_11  and  C_13
REMARK    6  A    between atoms: C_11  and  C_14
REMARK    7  A    between atoms: C_14  and  N_15
REMARK    8  A    between atoms: C_19  and  C_20
REMARK                            x       y       z     vdW  Elec       q    Type
REMARK                         _______ _______ _______ _____ _____    ______ ____
ROOT
ATOM      1  C   UNL     1      43.663   4.234  12.387  0.00  0.00    +0.000 C 
ATOM      2  C   UNL     1      43.400   2.766  12.788  0.00  0.00    +0.000 C 
ATOM      3  C   UNL     1      42.736   5.146  13.220  0.00  0.00    +0.000 C 
ENDROOT
BRANCH   1   8
ATOM      4  C   UNL     1      46.796   6.181  12.784  0.00  0.00    +0.000 A 
ATOM      5  C   UNL     1      47.602   5.224  13.369  0.00  0.00    +0.000 A 
ATOM      6  N   UNL     1      47.161   3.974  13.600  0.00  0.00    +0.000 NA
ATOM      7  N   UNL     1      45.895   3.668  13.246  0.00  0.00    +0.000 NA
ATOM      8  C   UNL     1      45.101   4.625  12.706  0.00  0.00    +0.000 A 
ATOM      9  N   UNL     1      45.513   5.891  12.485  0.00  0.00    +0.000 NA
BRANCH   4  14
ATOM     10  C   UNL     1      48.386  11.516  11.339  0.00  0.00    +0.000 C 
ATOM     11  C   UNL     1      48.035  10.117  11.741  0.00  0.00    +0.000 A 
ATOM     12  C   UNL     1      49.008   9.135  11.885  0.00  0.00    +0.000 A 
ATOM     13  C   UNL     1      48.618   7.840  12.243  0.00  0.00    +0.000 A 
ATOM     14  C   UNL     1      47.265   7.532  12.442  0.00  0.00    +0.000 A 
ATOM     15  C   UNL     1      46.382   8.604  12.304  0.00  0.00    +0.000 A 
ATOM     16  N   UNL     1      46.725   9.866  11.955  0.00  0.00    +0.000 NA
ENDBRANCH   4  14
ENDBRANCH   1   8
BRANCH   1  17
ATOM     17  C   UNL     1      43.318   4.440  10.889  0.00  0.00    +0.000 C 
BRANCH  17  18
ATOM     18  N   UNL     1      44.371   5.157  10.164  0.00  0.00    +0.000 N 
ATOM     19  C   UNL     1      45.075   4.411   9.221  0.00  0.00    +0.000 A 
ATOM     20  C   UNL     1      46.049   5.040   8.443  0.00  0.00    +0.000 A 
ATOM     21  N   UNL     1      46.800   4.402   7.513  0.00  0.00    +0.000 NA
ATOM     22  C   UNL     1      46.535   3.075   7.356  0.00  0.00    +0.000 A 
ATOM     23  C   UNL     1      45.548   2.455   8.108  0.00  0.00    +0.000 A 
ATOM     24  N   UNL     1      44.807   3.101   9.038  0.00  0.00    +0.000 NA
ATOM     25  H   UNL     1      45.019   5.664  10.756  0.00  0.00    +0.000 HD
BRANCH  22  26
ATOM     26  C   UNL     1      47.324   2.249   6.370  0.00  0.00    +0.000 C 
ATOM     27  F   UNL     1      48.675   2.371   6.490  0.00  0.00    +0.000 F 
ATOM     28  F   UNL     1      47.061   0.914   6.485  0.00  0.00    +0.000 F 
ATOM     29  F   UNL     1      47.035   2.565   5.073  0.00  0.00    +0.000 F 
ENDBRANCH  22  26
ENDBRANCH  17  18
ENDBRANCH   1  17
TORSDOF 5
ENDMDL
MODEL 2
REMARK VINA RESULT:    -8.169      1.597      2.075
REMARK INTER + INTRA:         -11.427
REMARK INTER:                 -10.337
REMARK INTRA:                  -1.090
REMARK UNBOUND:                -0.870
REMARK  Name = 
REMARK  8 active torsions:
REMARK  status: ('A' for Active; 'I' for Inactive)
REMARK    1  A    between atoms: C_1  and  C_2
REMARK    2  A    between atoms: C_5  and  C_6
REMARK    3  A    between atoms: C_10  and  C_11
REMARK    4  A    between atoms: C_11  and  C_12
REMARK    5  A    between atoms: C_11  and  C_13
REMARK    6  A    between atoms: C_11  and  C_14
REMARK    7  A    between atoms: C_14  and  N_15
REMARK    8  A    between atoms: C_19  and  C_20
REMARK                            x       y       z     vdW  Elec       q    Type
REMARK                         _______ _______ _______ _____ _____    ______ ____
ROOT
ATOM      1  C   UNL     1      43.806   5.933  11.886  0.00  0.00    +0.000 C 
ATOM      2  C   UNL     1      42.605   5.460  12.733  0.00  0.00    +0.000 C 
ATOM      3  C   UNL     1      43.767   7.474  11.794  0.00  0.00    +0.000 C 
ENDROOT
BRANCH   1   8
ATOM      4  C   UNL     1      47.307   5.994  13.115  0.00  0.00    +0.000 A 
ATOM      5  C   UNL     1      47.333   4.811  13.826  0.00  0.00    +0.000 A 
ATOM      6  N   UNL     1      46.264   3.997  13.882  0.00  0.00    +0.000 NA
ATOM      7  N   UNL     1      45.145   4.364  13.223  0.00  0.00    +0.000 NA
ATOM      8  C   UNL     1      45.118   5.545  12.558  0.00  0.00    +0.000 A 
ATOM      9  N   UNL     1      46.170   6.390  12.505  0.00  0.00    +0.000 NA
BRANCH   4  14
ATOM     10  C   UNL     1      51.871   9.477  12.779  0.00  0.00    +0.000 C 
ATOM     11  C   UNL     1      50.688   8.560  12.798  0.00  0.00    +0.000 A 
ATOM     12  C   UNL     1      49.912   8.347  11.665  0.00  0.00    +0.000 A 
ATOM     13  C   UNL     1      48.807   7.494  11.749  0.00  0.00    +0.000 A 
ATOM     14  C   UNL     1      48.477   6.871  12.961  0.00  0.00    +0.000 A 
ATOM     15  C   UNL     1      49.346   7.131  14.022  0.00  0.00    +0.000 A 
ATOM     16  N   UNL     1      50.421   7.953  13.975  0.00  0.00    +0.000 NA
ENDBRANCH   4  14
ENDBRANCH   1   8
BRANCH   1  17
ATOM     17  C   UNL     1      43.692   5.363  10.448  0.00  0.00    +0.000 C 
BRANCH  17  18
ATOM     18  N   UNL     1      43.948   3.920  10.394  0.00  0.00    +0.000 N 
ATOM     19  C   UNL     1      44.821   3.496   9.394  0.00  0.00    +0.000 A 
ATOM     20  C   UNL     1      45.167   2.145   9.320  0.00  0.00    +0.000 A 
ATOM     21  N   UNL     1      45.990   1.628   8.377  0.00  0.00    +0.000 NA
ATOM     22  C   UNL     1      46.498   2.526   7.486  0.00  0.00    +0.000 A 
ATOM     23  C   UNL     1      46.177   3.873   7.577  0.00  0.00    +0.000 A 
ATOM     24  N   UNL     1      45.349   4.377   8.519  0.00  0.00    +0.000 NA
ATOM     25  H   UNL     1      43.114   3.345  10.392  0.00  0.00    +0.000 HD
BRANCH  22  26
ATOM     26  C   UNL     1      47.406   2.068   6.372  0.00  0.00    +0.000 C 
ATOM     27  F   UNL     1      48.726   2.329   6.581  0.00  0.00    +0.000 F 
ATOM     28  F   UNL     1      47.324   0.723   6.155  0.00  0.00    +0.000 F 
ATOM     29  F   UNL     1      47.097   2.648   5.174  0.00  0.00    +0.000 F 
ENDBRANCH  22  26
ENDBRANCH  17  18
ENDBRANCH   1  17
TORSDOF 5
ENDMDL
MODEL 3
REMARK VINA RESULT:    -8.135      2.098      3.727
REMARK INTER + INTRA:         -11.383
REMARK INTER:                 -10.456
REMARK INTRA:                  -0.927
REMARK UNBOUND:                -0.870
REMARK  Name = 
REMARK  8 active torsions:
REMARK  status: ('A' for Active; 'I' for Inactive)
REMARK    1  A    between atoms: C_1  and  C_2
REMARK    2  A    between atoms: C_5  and  C_6
REMARK    3  A    between atoms: C_10  and  C_11
REMARK    4  A    between atoms: C_11  and  C_12
REMARK    5  A    between atoms: C_11  and  C_13
REMARK    6  A    between atoms: C_11  and  C_14
REMARK    7  A    between atoms: C_14  and  N_15
REMARK    8  A    between atoms: C_19  and  C_20
REMARK                            x       y       z     vdW  Elec       q    Type
REMARK                         _______ _______ _______ _____ _____    ______ ____
ROOT
ATOM      1  C   UNL     1      43.695   4.811  12.053  0.00  0.00    +0.000 C 
ATOM      2  C   UNL     1      43.456   3.541  12.897  0.00  0.00    +0.000 C 
ATOM      3  C   UNL     1      42.652   5.876  12.458  0.00  0.00    +0.000 C 
ENDROOT
BRANCH   1   8
ATOM      4  C   UNL     1      46.951   5.567  13.665  0.00  0.00    +0.000 A 
ATOM      5  C   UNL     1      47.509   6.390  12.707  0.00  0.00    +0.000 A 
ATOM      6  N   UNL     1      46.843   6.722  11.586  0.00  0.00    +0.000 NA
ATOM      7  N   UNL     1      45.600   6.226  11.410  0.00  0.00    +0.000 NA
ATOM      8  C   UNL     1      45.077   5.389  12.339  0.00  0.00    +0.000 A 
ATOM      9  N   UNL     1      45.733   5.023  13.461  0.00  0.00    +0.000 NA
BRANCH   4  14
ATOM     10  C   UNL     1      49.754   4.442  18.559  0.00  0.00    +0.000 C 
ATOM     11  C   UNL     1      48.970   4.700  17.310  0.00  0.00    +0.000 A 
ATOM     12  C   UNL     1      47.936   3.860  16.912  0.00  0.00    +0.000 A 
ATOM     13  C   UNL     1      47.253   4.141  15.724  0.00  0.00    +0.000 A 
ATOM     14  C   UNL     1      47.612   5.246  14.938  0.00  0.00    +0.000 A 
ATOM     15  C   UNL     1      48.639   6.037  15.454  0.00  0.00    +0.000 A 
ATOM     16  N   UNL     1      49.324   5.791  16.597  0.00  0.00    +0.000 NA
ENDBRANCH   4  14
ENDBRANCH   1   8
BRANCH   1  17
ATOM     17  C   UNL     1      43.494   4.489  10.549  0.00  0.00    +0.000 C 
BRANCH  17  18
ATOM     18  N   UNL     1      43.866   3.111  10.216  0.00  0.00    +0.000 N 
ATOM     19  C   UNL     1      44.834   2.967   9.223  0.00  0.00    +0.000 A 
ATOM     20  C   UNL     1      45.290   1.688   8.897  0.00  0.00    +0.000 A 
ATOM     21  N   UNL     1      46.212   1.439   7.936  0.00  0.00    +0.000 NA
ATOM     22  C   UNL     1      46.704   2.537   7.297  0.00  0.00    +0.000 A 
ATOM     23  C   UNL     1      46.274   3.810   7.641  0.00  0.00    +0.000 A 
ATOM     24  N   UNL     1      45.347   4.047   8.598  0.00  0.00    +0.000 NA
ATOM     25  H   UNL     1      43.082   2.498  10.025  0.00  0.00    +0.000 HD
BRANCH  22  26
ATOM     26  C   UNL     1      47.718   2.387   6.189  0.00  0.00    +0.000 C 
ATOM     27  F   UNL     1      48.957   2.862   6.494  0.00  0.00    +0.000 F 
ATOM     28  F   UNL     1      47.900   1.085   5.824  0.00  0.00    +0.000 F 
ATOM     29  F   UNL     1      47.342   3.034   5.046  0.00  0.00    +0.000 F 
ENDBRANCH  22  26
ENDBRANCH  17  18
ENDBRANCH   1  17
TORSDOF 5
ENDMDL
MODEL 4
REMARK VINA RESULT:    -7.794      4.392      7.812
REMARK INTER + INTRA:         -10.942
REMARK INTER:                  -9.832
REMARK INTRA:                  -1.110
REMARK UNBOUND:                -0.870
REMARK  Name = 
REMARK  8 active torsions:
REMARK  status: ('A' for Active; 'I' for Inactive)
REMARK    1  A    between atoms: C_1  and  C_2
REMARK    2  A    between atoms: C_5  and  C_6
REMARK    3  A    between atoms: C_10  and  C_11
REMARK    4  A    between atoms: C_11  and  C_12
REMARK    5  A    between atoms: C_11  and  C_13
REMARK    6  A    between atoms: C_11  and  C_14
REMARK    7  A    between atoms: C_14  and  N_15
REMARK    8  A    between atoms: C_19  and  C_20
REMARK                            x       y       z     vdW  Elec       q    Type
REMARK                         _______ _______ _______ _____ _____    ______ ____
ROOT
ATOM      1  C   UNL     1      46.239   7.684  12.269  0.00  0.00    +0.000 C 
ATOM      2  C   UNL     1      47.430   8.011  11.343  0.00  0.00    +0.000 C 
ATOM      3  C   UNL     1      45.448   8.985  12.532  0.00  0.00    +0.000 C 
ENDROOT
BRANCH   1   8
ATOM      4  C   UNL     1      44.909   4.892  10.219  0.00  0.00    +0.000 A 
ATOM      5  C   UNL     1      43.566   4.986  10.526  0.00  0.00    +0.000 A 
ATOM      6  N   UNL     1      43.094   5.942  11.345  0.00  0.00    +0.000 NA
ATOM      7  N   UNL     1      43.971   6.823  11.872  0.00  0.00    +0.000 NA
ATOM      8  C   UNL     1      45.292   6.699  11.594  0.00  0.00    +0.000 A 
ATOM      9  N   UNL     1      45.793   5.734  10.793  0.00  0.00    +0.000 NA
BRANCH   4  14
ATOM     10  C   UNL     1      47.060   0.887   6.696  0.00  0.00    +0.000 C 
ATOM     11  C   UNL     1      46.497   1.972   7.560  0.00  0.00    +0.000 A 
ATOM     12  C   UNL     1      46.642   3.315   7.229  0.00  0.00    +0.000 A 
ATOM     13  C   UNL     1      46.112   4.285   8.085  0.00  0.00    +0.000 A 
ATOM     14  C   UNL     1      45.454   3.913   9.267  0.00  0.00    +0.000 A 
ATOM     15  C   UNL     1      45.338   2.538   9.477  0.00  0.00    +0.000 A 
ATOM     16  N   UNL     1      45.843   1.573   8.672  0.00  0.00    +0.000 NA
ENDBRANCH   4  14
ENDBRANCH   1   8
BRANCH   1  17
ATOM     17  C   UNL     1      46.761   7.156  13.631  0.00  0.00    +0.000 C 
BRANCH  17  18
ATOM     18  N   UNL     1      46.595   5.706  13.771  0.00  0.00    +0.000 N 
ATOM     19  C   UNL     1      47.295   5.114  14.820  0.00  0.00    +0.000 A 
ATOM     20  C   UNL     1      47.137   3.748  15.060  0.00  0.00    +0.000 A 
ATOM     21  N   UNL     1      47.785   3.074  16.040  0.00  0.00    +0.000 NA
ATOM     22  C   UNL     1      48.613   3.825  16.819  0.00  0.00    +0.000 A 
ATOM     23  C   UNL     1      48.749   5.188  16.600  0.00  0.00    +0.000 A 
ATOM     24  N   UNL     1      48.101   5.850  15.615  0.00  0.00    +0.000 NA
ATOM     25  H   UNL     1      46.743   5.182  12.917  0.00  0.00    +0.000 HD
BRANCH  22  26
ATOM     26  C   UNL     1      49.411   3.184  17.927  0.00  0.00    +0.000 C 
ATOM     27  F   UNL     1      50.323   4.010  18.513  0.00  0.00    +0.000 F 
ATOM     28  F   UNL     1      48.619   2.729  18.942  0.00  0.00    +0.000 F 
ATOM     29  F   UNL     1      50.116   2.094  17.502  0.00  0.00    +0.000 F 
ENDBRANCH  22  26
ENDBRANCH  17  18
ENDBRANCH   1  17
TORSDOF 5
ENDMDL
MODEL 5
REMARK VINA RESULT:    -7.672      1.786      2.773
REMARK INTER + INTRA:         -10.785
REMARK INTER:                  -9.727
REMARK INTRA:                  -1.058
REMARK UNBOUND:                -0.870
REMARK  Name = 
REMARK  8 active torsions:
REMARK  status: ('A' for Active; 'I' for Inactive)
REMARK    1  A    between atoms: C_1  and  C_2
REMARK    2  A    between atoms: C_5  and  C_6
REMARK    3  A    between atoms: C_10  and  C_11
REMARK    4  A    between atoms: C_11  and  C_12
REMARK    5  A    between atoms: C_11  and  C_13
REMARK    6  A    between atoms: C_11  and  C_14
REMARK    7  A    between atoms: C_14  and  N_15
REMARK    8  A    between atoms: C_19  and  C_20
REMARK                            x       y       z     vdW  Elec       q    Type
REMARK                         _______ _______ _______ _____ _____    ______ ____
ROOT
ATOM      1  C   UNL     1      44.189   5.020  12.342  0.00  0.00    +0.000 C 
ATOM      2  C   UNL     1      45.091   3.889  12.881  0.00  0.00    +0.000 C 
ATOM      3  C   UNL     1      42.949   5.137  13.255  0.00  0.00    +0.000 C 
ENDROOT
BRANCH   1   8
ATOM      4  C   UNL     1      46.733   7.639  13.004  0.00  0.00    +0.000 A 
ATOM      5  C   UNL     1      46.154   8.708  12.350  0.00  0.00    +0.000 A 
ATOM      6  N   UNL     1      44.960   8.600  11.740  0.00  0.00    +0.000 NA
ATOM      7  N   UNL     1      44.329   7.408  11.776  0.00  0.00    +0.000 NA
ATOM      8  C   UNL     1      44.923   6.355  12.390  0.00  0.00    +0.000 A 
ATOM      9  N   UNL     1      46.130   6.432  12.990  0.00  0.00    +0.000 NA
BRANCH   4  14
ATOM     10  C   UNL     1      51.593   7.811  16.075  0.00  0.00    +0.000 C 
ATOM     11  C   UNL     1      50.350   7.820  15.240  0.00  0.00    +0.000 A 
ATOM     12  C   UNL     1      49.904   8.976  14.611  0.00  0.00    +0.000 A 
ATOM     13  C   UNL     1      48.726   8.929  13.860  0.00  0.00    +0.000 A 
ATOM     14  C   UNL     1      47.996   7.736  13.751  0.00  0.00    +0.000 A 
ATOM     15  C   UNL     1      48.557   6.633  14.395  0.00  0.00    +0.000 A 
ATOM     16  N   UNL     1      49.693   6.645  15.133  0.00  0.00    +0.000 NA
ENDBRANCH   4  14
ENDBRANCH   1   8
BRANCH   1  17
ATOM     17  C   UNL     1      43.702   4.669  10.912  0.00  0.00    +0.000 C 
BRANCH  17  18
ATOM     18  N   UNL     1      44.560   5.241   9.871  0.00  0.00    +0.000 N 
ATOM     19  C   UNL     1      45.240   4.323   9.072  0.00  0.00    +0.000 A 
ATOM     20  C   UNL     1      46.025   4.789   8.016  0.00  0.00    +0.000 A 
ATOM     21  N   UNL     1      46.739   3.982   7.195  0.00  0.00    +0.000 NA
ATOM     22  C   UNL     1      46.633   2.647   7.446  0.00  0.00    +0.000 A 
ATOM     23  C   UNL     1      45.830   2.182   8.478  0.00  0.00    +0.000 A 
ATOM     24  N   UNL     1      45.125   2.997   9.296  0.00  0.00    +0.000 NA
ATOM     25  H   UNL     1      45.201   5.955  10.199  0.00  0.00    +0.000 HD
BRANCH  22  26
ATOM     26  C   UNL     1      47.401   1.648   6.617  0.00  0.00    +0.000 C 
ATOM     27  F   UNL     1      47.609   2.031   5.327  0.00  0.00    +0.000 F 
ATOM     28  F   UNL     1      48.639   1.391   7.131  0.00  0.00    +0.000 F 
ATOM     29  F   UNL     1      46.778   0.435   6.549  0.00  0.00    +0.000 F 
ENDBRANCH  22  26
ENDBRANCH  17  18
ENDBRANCH   1  17
TORSDOF 5
ENDMDL
MODEL 6
REMARK VINA RESULT:    -7.460      4.898      7.434
REMARK INTER + INTRA:         -10.511
REMARK INTER:                  -9.378
REMARK INTRA:                  -1.133
REMARK UNBOUND:                -0.870
REMARK  Name = 
REMARK  8 active torsions:
REMARK  status: ('A' for Active; 'I' for Inactive)
REMARK    1  A    between atoms: C_1  and  C_2
REMARK    2  A    between atoms: C_5  and  C_6
REMARK    3  A    between atoms: C_10  and  C_11
REMARK    4  A    between atoms: C_11  and  C_12
REMARK    5  A    between atoms: C_11  and  C_13
REMARK    6  A    between atoms: C_11  and  C_14
REMARK    7  A    between atoms: C_14  and  N_15
REMARK    8  A    between atoms: C_19  and  C_20
REMARK                            x       y       z     vdW  Elec       q    Type
REMARK                         _______ _______ _______ _____ _____    ______ ____
ROOT
ATOM      1  C   UNL     1      49.095   7.324  15.598  0.00  0.00    +0.000 C 
ATOM      2  C   UNL     1      48.607   8.682  16.146  0.00  0.00    +0.000 C 
ATOM      3  C   UNL     1      50.545   7.490  15.090  0.00  0.00    +0.000 C 
ENDROOT
BRANCH   1   8
ATOM      4  C   UNL     1      50.053   4.439  17.726  0.00  0.00    +0.000 A 
ATOM      5  C   UNL     1      49.102   4.547  18.721  0.00  0.00    +0.000 A 
ATOM      6  N   UNL     1      48.155   5.503  18.692  0.00  0.00    +0.000 NA
ATOM      7  N   UNL     1      48.153   6.370  17.658  0.00  0.00    +0.000 NA
ATOM      8  C   UNL     1      49.114   6.277  16.706  0.00  0.00    +0.000 A 
ATOM      9  N   UNL     1      50.087   5.342  16.724  0.00  0.00    +0.000 NA
BRANCH   4  14
ATOM     10  C   UNL     1      53.766   0.050  17.571  0.00  0.00    +0.000 C 
ATOM     11  C   UNL     1      52.853   1.235  17.604  0.00  0.00    +0.000 A 
ATOM     12  C   UNL     1      53.303   2.491  17.994  0.00  0.00    +0.000 A 
ATOM     13  C   UNL     1      52.398   3.557  18.024  0.00  0.00    +0.000 A 
ATOM     14  C   UNL     1      51.053   3.362  17.678  0.00  0.00    +0.000 A 
ATOM     15  C   UNL     1      50.724   2.069  17.270  0.00  0.00    +0.000 A 
ATOM     16  N   UNL     1      51.573   1.015  17.233  0.00  0.00    +0.000 NA
ENDBRANCH   4  14
ENDBRANCH   1   8
BRANCH   1  17
ATOM     17  C   UNL     1      48.213   6.892  14.398  0.00  0.00    +0.000 C 
BRANCH  17  18
ATOM     18  N   UNL     1      47.704   5.525  14.539  0.00  0.00    +0.000 N 
ATOM     19  C   UNL     1      46.788   5.115  13.572  0.00  0.00    +0.000 A 
ATOM     20  C   UNL     1      46.308   3.804  13.599  0.00  0.00    +0.000 A 
ATOM     21  N   UNL     1      45.403   3.314  12.718  0.00  0.00    +0.000 NA
ATOM     22  C   UNL     1      44.986   4.187  11.759  0.00  0.00    +0.000 A 
ATOM     23  C   UNL     1      45.485   5.481  11.713  0.00  0.00    +0.000 A 
ATOM     24  N   UNL     1      46.383   5.962  12.602  0.00  0.00    +0.000 NA
ATOM     25  H   UNL     1      47.355   5.299  15.463  0.00  0.00    +0.000 HD
BRANCH  22  26
ATOM     26  C   UNL     1      43.960   3.767  10.736  0.00  0.00    +0.000 C 
ATOM     27  F   UNL     1      44.226   2.578  10.129  0.00  0.00    +0.000 F 
ATOM     28  F   UNL     1      42.713   3.636  11.276  0.00  0.00    +0.000 F 
ATOM     29  F   UNL     1      43.824   4.678   9.728  0.00  0.00    +0.000 F 
ENDBRANCH  22  26
ENDBRANCH  17  18
ENDBRANCH   1  17
TORSDOF 5
ENDMDL
MODEL 7
REMARK VINA RESULT:    -7.078      3.331      4.890
REMARK INTER + INTRA:         -10.017
REMARK INTER:                  -9.304
REMARK INTRA:                  -0.713
REMARK UNBOUND:                -0.870
REMARK  Name = 
REMARK  8 active torsions:
REMARK  status: ('A' for Active; 'I' for Inactive)
REMARK    1  A    between atoms: C_1  and  C_2
REMARK    2  A    between atoms: C_5  and  C_6
REMARK    3  A    between atoms: C_10  and  C_11
REMARK    4  A    between atoms: C_11  and  C_12
REMARK    5  A    between atoms: C_11  and  C_13
REMARK    6  A    between atoms: C_11  and  C_14
REMARK    7  A    between atoms: C_14  and  N_15
REMARK    8  A    between atoms: C_19  and  C_20
REMARK                            x       y       z     vdW  Elec       q    Type
REMARK                         _______ _______ _______ _____ _____    ______ ____
ROOT
ATOM      1  C   UNL     1      48.268   4.390  17.041  0.00  0.00    +0.000 C 
ATOM      2  C   UNL     1      48.909   3.159  17.716  0.00  0.00    +0.000 C 
ATOM      3  C   UNL     1      47.422   5.143  18.092  0.00  0.00    +0.000 C 
ENDROOT
BRANCH   1   8
ATOM      4  C   UNL     1      50.042   7.065  15.178  0.00  0.00    +0.000 A 
ATOM      5  C   UNL     1      51.270   7.023  15.808  0.00  0.00    +0.000 A 
ATOM      6  N   UNL     1      51.533   6.136  16.784  0.00  0.00    +0.000 NA
ATOM      7  N   UNL     1      50.559   5.275  17.145  0.00  0.00    +0.000 NA
ATOM      8  C   UNL     1      49.345   5.348  16.546  0.00  0.00    +0.000 A 
ATOM      9  N   UNL     1      49.049   6.244  15.580  0.00  0.00    +0.000 NA
BRANCH   4  14
ATOM     10  C   UNL     1      48.837  10.780  10.957  0.00  0.00    +0.000 C 
ATOM     11  C   UNL     1      49.156   9.763  12.008  0.00  0.00    +0.000 A 
ATOM     12  C   UNL     1      48.898   8.411  11.816  0.00  0.00    +0.000 A 
ATOM     13  C   UNL     1      49.199   7.510  12.842  0.00  0.00    +0.000 A 
ATOM     14  C   UNL     1      49.740   7.963  14.054  0.00  0.00    +0.000 A 
ATOM     15  C   UNL     1      49.988   9.335  14.121  0.00  0.00    +0.000 A 
ATOM     16  N   UNL     1      49.706  10.234  13.149  0.00  0.00    +0.000 NA
ENDBRANCH   4  14
ENDBRANCH   1   8
BRANCH   1  17
ATOM     17  C   UNL     1      47.321   3.933  15.901  0.00  0.00    +0.000 C 
BRANCH  17  18
ATOM     18  N   UNL     1      46.788   5.059  15.128  0.00  0.00    +0.000 N 
ATOM     19  C   UNL     1      46.188   4.732  13.914  0.00  0.00    +0.000 A 
ATOM     20  C   UNL     1      45.597   5.741  13.152  0.00  0.00    +0.000 A 
ATOM     21  N   UNL     1      45.005   5.531  11.951  0.00  0.00    +0.000 NA
ATOM     22  C   UNL     1      44.997   4.239  11.520  0.00  0.00    +0.000 A 
ATOM     23  C   UNL     1      45.558   3.231  12.290  0.00  0.00    +0.000 A 
ATOM     24  N   UNL     1      46.152   3.452  13.485  0.00  0.00    +0.000 NA
ATOM     25  H   UNL     1      47.439   5.824  14.997  0.00  0.00    +0.000 HD
BRANCH  22  26
ATOM     26  C   UNL     1      44.391   3.882  10.185  0.00  0.00    +0.000 C 
ATOM     27  F   UNL     1      45.265   3.928   9.141  0.00  0.00    +0.000 F 
ATOM     28  F   UNL     1      43.866   2.622  10.174  0.00  0.00    +0.000 F 
ATOM     29  F   UNL     1      43.358   4.708   9.842  0.00  0.00    +0.000 F 
ENDBRANCH  22  26
ENDBRANCH  17  18
ENDBRANCH   1  17
TORSDOF 5
ENDMDL
MODEL 8
REMARK VINA RESULT:    -6.471      4.055      5.636
REMARK INTER + INTRA:          -9.233
REMARK INTER:                  -8.104
REMARK INTRA:                  -1.130
REMARK UNBOUND:                -0.870
REMARK  Name = 
REMARK  8 active torsions:
REMARK  status: ('A' for Active; 'I' for Inactive)
REMARK    1  A    between atoms: C_1  and  C_2
REMARK    2  A    between atoms: C_5  and  C_6
REMARK    3  A    between atoms: C_10  and  C_11
REMARK    4  A    between atoms: C_11  and  C_12
REMARK    5  A    between atoms: C_11  and  C_13
REMARK    6  A    between atoms: C_11  and  C_14
REMARK    7  A    between atoms: C_14  and  N_15
REMARK    8  A    between atoms: C_19  and  C_20
REMARK                            x       y       z     vdW  Elec       q    Type
REMARK                         _______ _______ _______ _____ _____    ______ ____
ROOT
ATOM      1  C   UNL     1      48.405   4.896  17.115  0.00  0.00    +0.000 C 
ATOM      2  C   UNL     1      49.589   3.948  17.404  0.00  0.00    +0.000 C 
ATOM      3  C   UNL     1      47.506   4.957  18.369  0.00  0.00    +0.000 C 
ENDROOT
BRANCH   1   8
ATOM      4  C   UNL     1      50.278   7.776  15.712  0.00  0.00    +0.000 A 
ATOM      5  C   UNL     1      49.661   8.814  16.382  0.00  0.00    +0.000 A 
ATOM      6  N   UNL     1      48.690   8.593  17.286  0.00  0.00    +0.000 NA
ATOM      7  N   UNL     1      48.322   7.318  17.530  0.00  0.00    +0.000 NA
ATOM      8  C   UNL     1      48.909   6.309  16.840  0.00  0.00    +0.000 A 
ATOM      9  N   UNL     1      49.869   6.506  15.912  0.00  0.00    +0.000 NA
BRANCH   4  14
ATOM     10  C   UNL     1      54.482   8.486  11.852  0.00  0.00    +0.000 C 
ATOM     11  C   UNL     1      53.434   8.312  12.907  0.00  0.00    +0.000 A 
ATOM     12  C   UNL     1      53.759   7.918  14.199  0.00  0.00    +0.000 A 
ATOM     13  C   UNL     1      52.735   7.753  15.137  0.00  0.00    +0.000 A 
ATOM     14  C   UNL     1      51.396   7.969  14.777  0.00  0.00    +0.000 A 
ATOM     15  C   UNL     1      51.193   8.395  13.464  0.00  0.00    +0.000 A 
ATOM     16  N   UNL     1      52.160   8.561  12.531  0.00  0.00    +0.000 NA
ENDBRANCH   4  14
ENDBRANCH   1   8
BRANCH   1  17
ATOM     17  C   UNL     1      47.557   4.338  15.943  0.00  0.00    +0.000 C 
BRANCH  17  18
ATOM     18  N   UNL     1      47.138   5.384  15.006  0.00  0.00    +0.000 N 
ATOM     19  C   UNL     1      46.438   4.947  13.882  0.00  0.00    +0.000 A 
ATOM     20  C   UNL     1      45.946   5.890  12.977  0.00  0.00    +0.000 A 
ATOM     21  N   UNL     1      45.272   5.569  11.847  0.00  0.00    +0.000 NA
ATOM     22  C   UNL     1      45.072   4.237  11.641  0.00  0.00    +0.000 A 
ATOM     23  C   UNL     1      45.535   3.302  12.555  0.00  0.00    +0.000 A 
ATOM     24  N   UNL     1      46.213   3.632  13.677  0.00  0.00    +0.000 NA
ATOM     25  H   UNL     1      47.876   6.020  14.727  0.00  0.00    +0.000 HD
BRANCH  22  26
ATOM     26  C   UNL     1      44.357   3.752  10.404  0.00  0.00    +0.000 C 
ATOM     27  F   UNL     1      45.180   3.272   9.431  0.00  0.00    +0.000 F 
ATOM     28  F   UNL     1      43.477   2.745  10.675  0.00  0.00    +0.000 F 
ATOM     29  F   UNL     1      43.614   4.733   9.811  0.00  0.00    +0.000 F 
ENDBRANCH  22  26
ENDBRANCH  17  18
ENDBRANCH   1  17
TORSDOF 5
ENDMDL
MODEL 9
REMARK VINA RESULT:    -6.355      5.920      8.175
REMARK INTER + INTRA:          -9.083
REMARK INTER:                  -8.445
REMARK INTRA:                  -0.638
REMARK UNBOUND:                -0.870
REMARK  Name = 
REMARK  8 active torsions:
REMARK  status: ('A' for Active; 'I' for Inactive)
REMARK    1  A    between atoms: C_1  and  C_2
REMARK    2  A    between atoms: C_5  and  C_6
REMARK    3  A    between atoms: C_10  and  C_11
REMARK    4  A    between atoms: C_11  and  C_12
REMARK    5  A    between atoms: C_11  and  C_13
REMARK    6  A    between atoms: C_11  and  C_14
REMARK    7  A    between atoms: C_14  and  N_15
REMARK    8  A    between atoms: C_19  and  C_20
REMARK                            x       y       z     vdW  Elec       q    Type
REMARK                         _______ _______ _______ _____ _____    ______ ____
ROOT
ATOM      1  C   UNL     1      48.132   4.350  17.033  0.00  0.00    +0.000 C 
ATOM      2  C   UNL     1      47.786   2.850  17.142  0.00  0.00    +0.000 C 
ATOM      3  C   UNL     1      47.330   5.119  18.107  0.00  0.00    +0.000 C 
ENDROOT
BRANCH   1   8
ATOM      4  C   UNL     1      51.737   3.776  17.697  0.00  0.00    +0.000 A 
ATOM      5  C   UNL     1      52.188   5.081  17.724  0.00  0.00    +0.000 A 
ATOM      6  N   UNL     1      51.350   6.121  17.566  0.00  0.00    +0.000 NA
ATOM      7  N   UNL     1      50.039   5.863  17.375  0.00  0.00    +0.000 NA
ATOM      8  C   UNL     1      49.613   4.577  17.314  0.00  0.00    +0.000 A 
ATOM      9  N   UNL     1      50.437   3.516  17.447  0.00  0.00    +0.000 NA
BRANCH   4  14
ATOM     10  C   UNL     1      54.913  -0.908  18.722  0.00  0.00    +0.000 C 
ATOM     11  C   UNL     1      54.144   0.346  18.443  0.00  0.00    +0.000 A 
ATOM     12  C   UNL     1      54.716   1.602  18.606  0.00  0.00    +0.000 A 
ATOM     13  C   UNL     1      53.943   2.739  18.350  0.00  0.00    +0.000 A 
ATOM     14  C   UNL     1      52.605   2.616  17.946  0.00  0.00    +0.000 A 
ATOM     15  C   UNL     1      52.149   1.307  17.782  0.00  0.00    +0.000 A 
ATOM     16  N   UNL     1      52.870   0.186  18.025  0.00  0.00    +0.000 NA
ENDBRANCH   4  14
ENDBRANCH   1   8
BRANCH   1  17
ATOM     17  C   UNL     1      47.709   4.889  15.642  0.00  0.00    +0.000 C 
BRANCH  17  18
ATOM     18  N   UNL     1      47.215   3.830  14.757  0.00  0.00    +0.000 N 
ATOM     19  C   UNL     1      46.249   4.215  13.829  0.00  0.00    +0.000 A 
ATOM     20  C   UNL     1      45.778   3.279  12.907  0.00  0.00    +0.000 A 
ATOM     21  N   UNL     1      44.828   3.547  11.979  0.00  0.00    +0.000 NA
ATOM     22  C   UNL     1      44.355   4.824  11.976  0.00  0.00    +0.000 A 
ATOM     23  C   UNL     1      44.844   5.763  12.873  0.00  0.00    +0.000 A 
ATOM     24  N   UNL     1      45.788   5.483  13.800  0.00  0.00    +0.000 NA
ATOM     25  H   UNL     1      46.918   2.987  15.234  0.00  0.00    +0.000 HD
BRANCH  22  26
ATOM     26  C   UNL     1      43.276   5.239  11.007  0.00  0.00    +0.000 C 
ATOM     27  F   UNL     1      43.450   4.772   9.739  0.00  0.00    +0.000 F 
ATOM     28  F   UNL     1      42.039   4.810  11.393  0.00  0.00    +0.000 F 
ATOM     29  F   UNL     1      43.169   6.595  10.892  0.00  0.00    +0.000 F 
ENDBRANCH  22  26
ENDBRANCH  17  18
ENDBRANCH   1  17
TORSDOF 5
ENDMDL
