MODEL 1
REMARK VINA RESULT:    -8.625      0.000      0.000
REMARK INTER + INTRA:         -13.124
REMARK INTER:                 -12.155
REMARK INTRA:                  -0.969
REMARK UNBOUND:                -0.969
REMARK  Name = 
REMARK  8 active torsions:
REMARK  status: ('A' for Active; 'I' for Inactive)
REMARK    1  A    between atoms: C_1  and  C_2
REMARK    2  A    between atoms: C_2  and  N_3
REMARK    3  A    between atoms: C_2  and  C_25
REMARK    4  A    between atoms: N_3  and  C_4
REMARK    5  A    between atoms: C_4  and  C_5
REMARK    6  A    between atoms: C_8  and  C_9
REMARK    7  A    between atoms: C_9  and  N_10
REMARK    8  A    between atoms: C_11  and  C_13
REMARK                            x       y       z     vdW  Elec       q    Type
REMARK                         _______ _______ _______ _____ _____    ______ ____
ROOT
ATOM      1  C   UNL     1      44.658   5.896  11.679  0.00  0.00    +0.000 A 
ATOM      2  C   UNL     1      45.598   6.810  11.177  0.00  0.00    +0.000 A 
ATOM      3  C   UNL     1      46.765   7.087  11.881  0.00  0.00    +0.000 A 
ATOM      4  C   UNL     1      47.030   6.466  13.108  0.00  0.00    +0.000 A 
ATOM      5  C   UNL     1      46.069   5.581  13.626  0.00  0.00    +0.000 A 
ATOM      6  C   UNL     1      44.900   5.296  12.918  0.00  0.00    +0.000 A 
ENDROOT
BRANCH   1   7
ATOM      7  C   UNL     1      43.404   5.606  10.901  0.00  0.00    +0.000 C 
BRANCH   7   8
ATOM      8  N   UNL     1      43.685   4.691   9.796  0.00  0.00    +0.000 NA
ATOM      9  H   UNL     1      44.129   5.212   9.042  0.00  0.00    +0.000 HD
BRANCH   8  11
ATOM     10  C   UNL     1      43.699   2.440  10.808  0.00  0.00    +0.000 C 
ATOM     11  C   UNL     1      44.536   3.563  10.179  0.00  0.00    +0.000 C 
BRANCH  11  12
ATOM     12  C   UNL     1      45.328   3.095   8.961  0.00  0.00    +0.000 A 
ATOM     13  C   UNL     1      45.824   3.997   8.003  0.00  0.00    +0.000 A 
ATOM     14  C   UNL     1      46.598   3.555   6.925  0.00  0.00    +0.000 A 
ATOM     15  C   UNL     1      46.904   2.202   6.796  0.00  0.00    +0.000 A 
ATOM     16  C   UNL     1      46.424   1.304   7.740  0.00  0.00    +0.000 A 
ATOM     17  F   UNL     1      46.735   0.005   7.632  0.00  0.00    +0.000 F 
ATOM     18  C   UNL     1      45.639   1.734   8.810  0.00  0.00    +0.000 A 
ENDBRANCH  11  12
ENDBRANCH   8  11
ENDBRANCH   7   8
ENDBRANCH   1   7
BRANCH   4  19
ATOM     19  C   UNL     1      48.310   6.714  13.874  0.00  0.00    +0.000 C 
BRANCH  19  20
ATOM     20  N   UNL     1      48.095   6.849  15.296  0.00  0.00    +0.000 N 
ATOM     21  C   UNL     1      49.060   6.534  16.217  0.00  0.00    +0.000 C 
ATOM     22  O   UNL     1      50.173   6.112  15.895  0.00  0.00    +0.000 OA
ATOM     23  H   UNL     1      47.129   6.846  15.606  0.00  0.00    +0.000 HD
BRANCH  21  24
ATOM     24  C   UNL     1      48.706   6.777  17.617  0.00  0.00    +0.000 A 
ATOM     25  C   UNL     1      48.402   8.059  18.047  0.00  0.00    +0.000 A 
ATOM     26  S   UNL     1      47.992   8.143  19.703  0.00  0.00    +0.000 S 
ATOM     27  C   UNL     1      48.246   6.473  19.908  0.00  0.00    +0.000 A 
ATOM     28  N   UNL     1      48.103   5.882  21.125  0.00  0.00    +0.000 NA
ATOM     29  C   UNL     1      48.358   4.615  21.139  0.00  0.00    +0.000 A 
ATOM     30  N   UNL     1      48.728   3.882  20.040  0.00  0.00    +0.000 N 
ATOM     31  C   UNL     1      48.807   4.420  18.784  0.00  0.00    +0.000 A 
ATOM     32  O   UNL     1      49.026   3.709  17.797  0.00  0.00    +0.000 OA
ATOM     33  C   UNL     1      48.594   5.852  18.721  0.00  0.00    +0.000 A 
ATOM     34  H   UNL     1      48.870   2.884  20.112  0.00  0.00    +0.000 HD
ENDBRANCH  21  24
ENDBRANCH  19  20
ENDBRANCH   4  19
TORSDOF 7
ENDMDL
MODEL 2
REMARK VINA RESULT:    -8.437      2.422      3.026
REMARK INTER + INTRA:         -12.859
REMARK INTER:                 -11.908
REMARK INTRA:                  -0.952
REMARK UNBOUND:                -0.969
REMARK  Name = 
REMARK  8 active torsions:
REMARK  status: ('A' for Active; 'I' for Inactive)
REMARK    1  A    between atoms: C_1  and  C_2
REMARK    2  A    between atoms: C_2  and  N_3
REMARK    3  A    between atoms: C_2  and  C_25
REMARK    4  A    between atoms: N_3  and  C_4
REMARK    5  A    between atoms: C_4  and  C_5
REMARK    6  A    between atoms: C_8  and  C_9
REMARK    7  A    between atoms: C_9  and  N_10
REMARK    8  A    between atoms: C_11  and  C_13
REMARK                            x       y       z     vdW  Elec       q    Type
REMARK                         _______ _______ _______ _____ _____    ______ ____
ROOT
ATOM      1  C   UNL     1      45.668   4.459  12.811  0.00  0.00    +0.000 A 
ATOM      2  C   UNL     1      46.206   4.067  14.048  0.00  0.00    +0.000 A 
ATOM      3  C   UNL     1      47.137   4.868  14.702  0.00  0.00    +0.000 A 
ATOM      4  C   UNL     1      47.564   6.079  14.143  0.00  0.00    +0.000 A 
ATOM      5  C   UNL     1      47.052   6.449  12.888  0.00  0.00    +0.000 A 
ATOM      6  C   UNL     1      46.111   5.651  12.233  0.00  0.00    +0.000 A 
ENDROOT
BRANCH   1   7
ATOM      7  C   UNL     1      44.659   3.583  12.122  0.00  0.00    +0.000 C 
BRANCH   7   8
ATOM      8  N   UNL     1      45.273   2.875  11.001  0.00  0.00    +0.000 NA
ATOM      9  H   UNL     1      45.327   1.883  11.229  0.00  0.00    +0.000 HD
BRANCH   8  11
ATOM     10  C   UNL     1      44.055   4.493   9.591  0.00  0.00    +0.000 C 
ATOM     11  C   UNL     1      44.551   3.048   9.739  0.00  0.00    +0.000 C 
BRANCH  11  12
ATOM     12  C   UNL     1      45.448   2.613   8.583  0.00  0.00    +0.000 A 
ATOM     13  C   UNL     1      45.931   3.527   7.630  0.00  0.00    +0.000 A 
ATOM     14  C   UNL     1      46.800   3.119   6.613  0.00  0.00    +0.000 A 
ATOM     15  C   UNL     1      47.215   1.791   6.542  0.00  0.00    +0.000 A 
ATOM     16  C   UNL     1      46.748   0.883   7.482  0.00  0.00    +0.000 A 
ATOM     17  F   UNL     1      47.163  -0.391   7.429  0.00  0.00    +0.000 F 
ATOM     18  C   UNL     1      45.870   1.277   8.490  0.00  0.00    +0.000 A 
ENDBRANCH  11  12
ENDBRANCH   8  11
ENDBRANCH   7   8
ENDBRANCH   1   7
BRANCH   4  19
ATOM     19  C   UNL     1      48.540   6.990  14.853  0.00  0.00    +0.000 C 
BRANCH  19  20
ATOM     20  N   UNL     1      49.612   6.268  15.500  0.00  0.00    +0.000 N 
ATOM     21  C   UNL     1      49.584   5.953  16.833  0.00  0.00    +0.000 C 
ATOM     22  O   UNL     1      48.646   6.266  17.570  0.00  0.00    +0.000 OA
ATOM     23  H   UNL     1      50.517   6.305  15.043  0.00  0.00    +0.000 HD
BRANCH  21  24
ATOM     24  C   UNL     1      50.720   5.172  17.326  0.00  0.00    +0.000 A 
ATOM     25  C   UNL     1      51.833   5.814  17.846  0.00  0.00    +0.000 A 
ATOM     26  S   UNL     1      53.044   4.741  18.392  0.00  0.00    +0.000 S 
ATOM     27  C   UNL     1      52.137   3.384  17.914  0.00  0.00    +0.000 A 
ATOM     28  N   UNL     1      52.623   2.121  18.063  0.00  0.00    +0.000 NA
ATOM     29  C   UNL     1      51.839   1.191  17.628  0.00  0.00    +0.000 A 
ATOM     30  N   UNL     1      50.605   1.408  17.071  0.00  0.00    +0.000 N 
ATOM     31  C   UNL     1      50.045   2.653  16.974  0.00  0.00    +0.000 A 
ATOM     32  O   UNL     1      48.884   2.803  16.577  0.00  0.00    +0.000 OA
ATOM     33  C   UNL     1      50.908   3.742  17.388  0.00  0.00    +0.000 A 
ATOM     34  H   UNL     1      50.023   0.630  16.791  0.00  0.00    +0.000 HD
ENDBRANCH  21  24
ENDBRANCH  19  20
ENDBRANCH   4  19
TORSDOF 7
ENDMDL
MODEL 3
REMARK VINA RESULT:    -8.374      1.329      2.190
REMARK INTER + INTRA:         -12.769
REMARK INTER:                 -11.516
REMARK INTRA:                  -1.253
REMARK UNBOUND:                -0.969
REMARK  Name = 
REMARK  8 active torsions:
REMARK  status: ('A' for Active; 'I' for Inactive)
REMARK    1  A    between atoms: C_1  and  C_2
REMARK    2  A    between atoms: C_2  and  N_3
REMARK    3  A    between atoms: C_2  and  C_25
REMARK    4  A    between atoms: N_3  and  C_4
REMARK    5  A    between atoms: C_4  and  C_5
REMARK    6  A    between atoms: C_8  and  C_9
REMARK    7  A    between atoms: C_9  and  N_10
REMARK    8  A    between atoms: C_11  and  C_13
REMARK                            x       y       z     vdW  Elec       q    Type
REMARK                         _______ _______ _______ _____ _____    ______ ____
ROOT
ATOM      1  C   UNL     1      44.907   5.654  11.607  0.00  0.00    +0.000 A 
ATOM      2  C   UNL     1      45.087   5.127  12.896  0.00  0.00    +0.000 A 
ATOM      3  C   UNL     1      46.204   5.468  13.653  0.00  0.00    +0.000 A 
ATOM      4  C   UNL     1      47.176   6.340  13.147  0.00  0.00    +0.000 A 
ATOM      5  C   UNL     1      47.012   6.835  11.843  0.00  0.00    +0.000 A 
ATOM      6  C   UNL     1      45.888   6.500  11.084  0.00  0.00    +0.000 A 
ENDROOT
BRANCH   1   7
ATOM      7  C   UNL     1      43.691   5.278  10.807  0.00  0.00    +0.000 C 
BRANCH   7   8
ATOM      8  N   UNL     1      44.075   4.552   9.598  0.00  0.00    +0.000 NA
ATOM      9  H   UNL     1      44.626   5.170   9.004  0.00  0.00    +0.000 HD
BRANCH   8  11
ATOM     10  C   UNL     1      43.913   2.226  10.405  0.00  0.00    +0.000 C 
ATOM     11  C   UNL     1      44.835   3.331   9.871  0.00  0.00    +0.000 C 
BRANCH  11  12
ATOM     12  C   UNL     1      45.584   2.913   8.609  0.00  0.00    +0.000 A 
ATOM     13  C   UNL     1      45.976   3.845   7.631  0.00  0.00    +0.000 A 
ATOM     14  C   UNL     1      46.713   3.451   6.511  0.00  0.00    +0.000 A 
ATOM     15  C   UNL     1      47.089   2.118   6.357  0.00  0.00    +0.000 A 
ATOM     16  C   UNL     1      46.713   1.192   7.320  0.00  0.00    +0.000 A 
ATOM     17  F   UNL     1      47.091  -0.087   7.187  0.00  0.00    +0.000 F 
ATOM     18  C   UNL     1      45.964   1.573   8.433  0.00  0.00    +0.000 A 
ENDBRANCH  11  12
ENDBRANCH   8  11
ENDBRANCH   7   8
ENDBRANCH   1   7
BRANCH   4  19
ATOM     19  C   UNL     1      48.377   6.763  13.964  0.00  0.00    +0.000 C 
BRANCH  19  20
ATOM     20  N   UNL     1      48.184   6.574  15.383  0.00  0.00    +0.000 N 
ATOM     21  C   UNL     1      49.228   6.354  16.243  0.00  0.00    +0.000 C 
ATOM     22  O   UNL     1      50.400   6.298  15.863  0.00  0.00    +0.000 OA
ATOM     23  H   UNL     1      47.262   6.267  15.674  0.00  0.00    +0.000 HD
BRANCH  21  24
ATOM     24  C   UNL     1      48.873   6.236  17.658  0.00  0.00    +0.000 A 
ATOM     25  C   UNL     1      49.067   5.039  18.328  0.00  0.00    +0.000 A 
ATOM     26  S   UNL     1      48.618   5.098  19.975  0.00  0.00    +0.000 S 
ATOM     27  C   UNL     1      48.111   6.716  19.836  0.00  0.00    +0.000 A 
ATOM     28  N   UNL     1      47.570   7.379  20.894  0.00  0.00    +0.000 NA
ATOM     29  C   UNL     1      47.201   8.590  20.634  0.00  0.00    +0.000 A 
ATOM     30  N   UNL     1      47.339   9.204  19.416  0.00  0.00    +0.000 N 
ATOM     31  C   UNL     1      47.949   8.602  18.349  0.00  0.00    +0.000 A 
ATOM     32  O   UNL     1      48.165   9.222  17.302  0.00  0.00    +0.000 OA
ATOM     33  C   UNL     1      48.324   7.218  18.564  0.00  0.00    +0.000 A 
ATOM     34  H   UNL     1      47.070  10.171  19.293  0.00  0.00    +0.000 HD
ENDBRANCH  21  24
ENDBRANCH  19  20
ENDBRANCH   4  19
TORSDOF 7
ENDMDL
MODEL 4
REMARK VINA RESULT:    -8.121      1.567      2.048
REMARK INTER + INTRA:         -12.413
REMARK INTER:                 -11.468
REMARK INTRA:                  -0.946
REMARK UNBOUND:                -0.969
REMARK  Name = 
REMARK  8 active torsions:
REMARK  status: ('A' for Active; 'I' for Inactive)
REMARK    1  A    between atoms: C_1  and  C_2
REMARK    2  A    between atoms: C_2  and  N_3
REMARK    3  A    between atoms: C_2  and  C_25
REMARK    4  A    between atoms: N_3  and  C_4
REMARK    5  A    between atoms: C_4  and  C_5
REMARK    6  A    between atoms: C_8  and  C_9
REMARK    7  A    between atoms: C_9  and  N_10
REMARK    8  A    between atoms: C_11  and  C_13
REMARK                            x       y       z     vdW  Elec       q    Type
REMARK                         _______ _______ _______ _____ _____    ______ ____
ROOT
ATOM      1  C   UNL     1      44.728   6.021  11.367  0.00  0.00    +0.000 A 
ATOM      2  C   UNL     1      45.803   5.414  12.038  0.00  0.00    +0.000 A 
ATOM      3  C   UNL     1      46.711   6.179  12.762  0.00  0.00    +0.000 A 
ATOM      4  C   UNL     1      46.580   7.572  12.836  0.00  0.00    +0.000 A 
ATOM      5  C   UNL     1      45.527   8.179  12.132  0.00  0.00    +0.000 A 
ATOM      6  C   UNL     1      44.609   7.413  11.411  0.00  0.00    +0.000 A 
ENDROOT
BRANCH   1   7
ATOM      7  C   UNL     1      43.754   5.176  10.594  0.00  0.00    +0.000 C 
BRANCH   7   8
ATOM      8  N   UNL     1      44.404   4.574   9.432  0.00  0.00    +0.000 NA
ATOM      9  H   UNL     1      45.110   5.219   9.079  0.00  0.00    +0.000 HD
BRANCH   8  11
ATOM     10  C   UNL     1      43.974   2.266  10.190  0.00  0.00    +0.000 C 
ATOM     11  C   UNL     1      45.026   3.280   9.721  0.00  0.00    +0.000 C 
BRANCH  11  12
ATOM     12  C   UNL     1      45.793   2.805   8.490  0.00  0.00    +0.000 A 
ATOM     13  C   UNL     1      46.220   1.472   8.347  0.00  0.00    +0.000 A 
ATOM     14  C   UNL     1      46.870   1.043   7.185  0.00  0.00    +0.000 A 
ATOM     15  C   UNL     1      47.088   1.935   6.138  0.00  0.00    +0.000 A 
ATOM     16  C   UNL     1      46.665   3.251   6.268  0.00  0.00    +0.000 A 
ATOM     17  F   UNL     1      46.854   4.107   5.254  0.00  0.00    +0.000 F 
ATOM     18  C   UNL     1      46.030   3.692   7.429  0.00  0.00    +0.000 A 
ENDBRANCH  11  12
ENDBRANCH   8  11
ENDBRANCH   7   8
ENDBRANCH   1   7
BRANCH   4  19
ATOM     19  C   UNL     1      47.526   8.424  13.652  0.00  0.00    +0.000 C 
BRANCH  19  20
ATOM     20  N   UNL     1      47.808   7.861  14.952  0.00  0.00    +0.000 N 
ATOM     21  C   UNL     1      48.966   7.178  15.221  0.00  0.00    +0.000 C 
ATOM     22  O   UNL     1      49.842   6.996  14.371  0.00  0.00    +0.000 OA
ATOM     23  H   UNL     1      47.006   7.680  15.546  0.00  0.00    +0.000 HD
BRANCH  21  24
ATOM     24  C   UNL     1      49.126   6.715  16.601  0.00  0.00    +0.000 A 
ATOM     25  C   UNL     1      49.692   7.548  17.553  0.00  0.00    +0.000 A 
ATOM     26  S   UNL     1      49.774   6.846  19.108  0.00  0.00    +0.000 S 
ATOM     27  C   UNL     1      49.093   5.391  18.549  0.00  0.00    +0.000 A 
ATOM     28  N   UNL     1      48.917   4.328  19.381  0.00  0.00    +0.000 NA
ATOM     29  C   UNL     1      48.419   3.280  18.813  0.00  0.00    +0.000 A 
ATOM     30  N   UNL     1      48.064   3.203  17.490  0.00  0.00    +0.000 N 
ATOM     31  C   UNL     1      48.150   4.271  16.638  0.00  0.00    +0.000 A 
ATOM     32  O   UNL     1      47.713   4.205  15.484  0.00  0.00    +0.000 OA
ATOM     33  C   UNL     1      48.764   5.455  17.206  0.00  0.00    +0.000 A 
ATOM     34  H   UNL     1      47.638   2.366  17.119  0.00  0.00    +0.000 HD
ENDBRANCH  21  24
ENDBRANCH  19  20
ENDBRANCH   4  19
TORSDOF 7
ENDMDL
MODEL 5
REMARK VINA RESULT:    -8.019      2.311      3.856
REMARK INTER + INTRA:         -12.270
REMARK INTER:                 -11.260
REMARK INTRA:                  -1.010
REMARK UNBOUND:                -0.969
REMARK  Name = 
REMARK  8 active torsions:
REMARK  status: ('A' for Active; 'I' for Inactive)
REMARK    1  A    between atoms: C_1  and  C_2
REMARK    2  A    between atoms: C_2  and  N_3
REMARK    3  A    between atoms: C_2  and  C_25
REMARK    4  A    between atoms: N_3  and  C_4
REMARK    5  A    between atoms: C_4  and  C_5
REMARK    6  A    between atoms: C_8  and  C_9
REMARK    7  A    between atoms: C_9  and  N_10
REMARK    8  A    between atoms: C_11  and  C_13
REMARK                            x       y       z     vdW  Elec       q    Type
REMARK                         _______ _______ _______ _____ _____    ______ ____
ROOT
ATOM      1  C   UNL     1      44.631   4.450  11.736  0.00  0.00    +0.000 A 
ATOM      2  C   UNL     1      45.307   3.284  12.132  0.00  0.00    +0.000 A 
ATOM      3  C   UNL     1      46.138   3.289  13.248  0.00  0.00    +0.000 A 
ATOM      4  C   UNL     1      46.326   4.456  13.999  0.00  0.00    +0.000 A 
ATOM      5  C   UNL     1      45.679   5.630  13.577  0.00  0.00    +0.000 A 
ATOM      6  C   UNL     1      44.838   5.625  12.463  0.00  0.00    +0.000 A 
ENDROOT
BRANCH   1   7
ATOM      7  C   UNL     1      43.733   4.422  10.531  0.00  0.00    +0.000 C 
BRANCH   7   8
ATOM      8  N   UNL     1      44.256   3.506   9.520  0.00  0.00    +0.000 NA
ATOM      9  H   UNL     1      43.478   2.994   9.106  0.00  0.00    +0.000 HD
BRANCH   8  11
ATOM     10  C   UNL     1      45.855   5.324   9.045  0.00  0.00    +0.000 C 
ATOM     11  C   UNL     1      45.016   4.178   8.464  0.00  0.00    +0.000 C 
BRANCH  11  12
ATOM     12  C   UNL     1      45.861   3.149   7.719  0.00  0.00    +0.000 A 
ATOM     13  C   UNL     1      46.620   3.488   6.585  0.00  0.00    +0.000 A 
ATOM     14  C   UNL     1      47.435   2.544   5.952  0.00  0.00    +0.000 A 
ATOM     15  C   UNL     1      47.519   1.247   6.454  0.00  0.00    +0.000 A 
ATOM     16  C   UNL     1      46.778   0.905   7.577  0.00  0.00    +0.000 A 
ATOM     17  F   UNL     1      46.873  -0.336   8.075  0.00  0.00    +0.000 F 
ATOM     18  C   UNL     1      45.951   1.835   8.206  0.00  0.00    +0.000 A 
ENDBRANCH  11  12
ENDBRANCH   8  11
ENDBRANCH   7   8
ENDBRANCH   1   7
BRANCH   4  19
ATOM     19  C   UNL     1      47.188   4.481  15.242  0.00  0.00    +0.000 C 
BRANCH  19  20
ATOM     20  N   UNL     1      47.846   5.751  15.442  0.00  0.00    +0.000 N 
ATOM     21  C   UNL     1      48.979   5.879  16.202  0.00  0.00    +0.000 C 
ATOM     22  O   UNL     1      49.510   4.921  16.768  0.00  0.00    +0.000 OA
ATOM     23  H   UNL     1      47.276   6.579  15.304  0.00  0.00    +0.000 HD
BRANCH  21  24
ATOM     24  C   UNL     1      49.555   7.224  16.264  0.00  0.00    +0.000 A 
ATOM     25  C   UNL     1      49.828   7.809  17.490  0.00  0.00    +0.000 A 
ATOM     26  S   UNL     1      50.518   9.366  17.363  0.00  0.00    +0.000 S 
ATOM     27  C   UNL     1      50.438   9.324  15.664  0.00  0.00    +0.000 A 
ATOM     28  N   UNL     1      50.842  10.384  14.912  0.00  0.00    +0.000 NA
ATOM     29  C   UNL     1      50.694  10.224  13.638  0.00  0.00    +0.000 A 
ATOM     30  N   UNL     1      50.195   9.092  13.047  0.00  0.00    +0.000 N 
ATOM     31  C   UNL     1      49.851   7.975  13.759  0.00  0.00    +0.000 A 
ATOM     32  O   UNL     1      49.517   6.931  13.188  0.00  0.00    +0.000 OA
ATOM     33  C   UNL     1      49.935   8.122  15.198  0.00  0.00    +0.000 A 
ATOM     34  H   UNL     1      50.147   9.016  12.040  0.00  0.00    +0.000 HD
ENDBRANCH  21  24
ENDBRANCH  19  20
ENDBRANCH   4  19
TORSDOF 7
ENDMDL
MODEL 6
REMARK VINA RESULT:    -7.847      3.347      4.340
REMARK INTER + INTRA:         -12.027
REMARK INTER:                 -10.884
REMARK INTRA:                  -1.143
REMARK UNBOUND:                -0.969
REMARK  Name = 
REMARK  8 active torsions:
REMARK  status: ('A' for Active; 'I' for Inactive)
REMARK    1  A    between atoms: C_1  and  C_2
REMARK    2  A    between atoms: C_2  and  N_3
REMARK    3  A    between atoms: C_2  and  C_25
REMARK    4  A    between atoms: N_3  and  C_4
REMARK    5  A    between atoms: C_4  and  C_5
REMARK    6  A    between atoms: C_8  and  C_9
REMARK    7  A    between atoms: C_9  and  N_10
REMARK    8  A    between atoms: C_11  and  C_13
REMARK                            x       y       z     vdW  Elec       q    Type
REMARK                         _______ _______ _______ _____ _____    ______ ____
ROOT
ATOM      1  C   UNL     1      47.052   4.840  14.390  0.00  0.00    +0.000 A 
ATOM      2  C   UNL     1      47.772   6.035  14.229  0.00  0.00    +0.000 A 
ATOM      3  C   UNL     1      48.555   6.536  15.264  0.00  0.00    +0.000 A 
ATOM      4  C   UNL     1      48.641   5.867  16.491  0.00  0.00    +0.000 A 
ATOM      5  C   UNL     1      47.889   4.692  16.661  0.00  0.00    +0.000 A 
ATOM      6  C   UNL     1      47.109   4.182  15.622  0.00  0.00    +0.000 A 
ENDROOT
BRANCH   1   7
ATOM      7  C   UNL     1      46.215   4.311  13.258  0.00  0.00    +0.000 C 
BRANCH   7   8
ATOM      8  N   UNL     1      45.087   5.201  12.993  0.00  0.00    +0.000 NA
ATOM      9  H   UNL     1      45.414   5.988  12.435  0.00  0.00    +0.000 HD
BRANCH   8  11
ATOM     10  C   UNL     1      42.740   5.450  12.275  0.00  0.00    +0.000 C 
ATOM     11  C   UNL     1      43.976   4.541  12.304  0.00  0.00    +0.000 C 
BRANCH  11  12
ATOM     12  C   UNL     1      44.429   4.119  10.910  0.00  0.00    +0.000 A 
ATOM     13  C   UNL     1      45.093   5.004  10.042  0.00  0.00    +0.000 A 
ATOM     14  C   UNL     1      45.553   4.582   8.790  0.00  0.00    +0.000 A 
ATOM     15  C   UNL     1      45.372   3.259   8.392  0.00  0.00    +0.000 A 
ATOM     16  C   UNL     1      44.724   2.376   9.245  0.00  0.00    +0.000 A 
ATOM     17  F   UNL     1      44.568   1.097   8.874  0.00  0.00    +0.000 F 
ATOM     18  C   UNL     1      44.248   2.792  10.488  0.00  0.00    +0.000 A 
ENDBRANCH  11  12
ENDBRANCH   8  11
ENDBRANCH   7   8
ENDBRANCH   1   7
BRANCH   4  19
ATOM     19  C   UNL     1      49.519   6.364  17.617  0.00  0.00    +0.000 C 
BRANCH  19  20
ATOM     20  N   UNL     1      50.507   5.394  18.029  0.00  0.00    +0.000 N 
ATOM     21  C   UNL     1      51.737   5.301  17.432  0.00  0.00    +0.000 C 
ATOM     22  O   UNL     1      52.082   6.036  16.504  0.00  0.00    +0.000 OA
ATOM     23  H   UNL     1      50.157   4.575  18.515  0.00  0.00    +0.000 HD
BRANCH  21  24
ATOM     24  C   UNL     1      52.645   4.301  17.999  0.00  0.00    +0.000 A 
ATOM     25  C   UNL     1      53.777   4.702  18.691  0.00  0.00    +0.000 A 
ATOM     26  S   UNL     1      54.701   3.399  19.298  0.00  0.00    +0.000 S 
ATOM     27  C   UNL     1      53.638   2.257  18.620  0.00  0.00    +0.000 A 
ATOM     28  N   UNL     1      53.871   0.921  18.735  0.00  0.00    +0.000 NA
ATOM     29  C   UNL     1      52.999   0.173  18.144  0.00  0.00    +0.000 A 
ATOM     30  N   UNL     1      51.904   0.639  17.463  0.00  0.00    +0.000 N 
ATOM     31  C   UNL     1      51.589   1.969  17.390  0.00  0.00    +0.000 A 
ATOM     32  O   UNL     1      50.534   2.349  16.870  0.00  0.00    +0.000 OA
ATOM     33  C   UNL     1      52.569   2.859  17.980  0.00  0.00    +0.000 A 
ATOM     34  H   UNL     1      51.236  -0.004  17.061  0.00  0.00    +0.000 HD
ENDBRANCH  21  24
ENDBRANCH  19  20
ENDBRANCH   4  19
TORSDOF 7
ENDMDL
MODEL 7
REMARK VINA RESULT:    -7.842      3.664      8.915
REMARK INTER + INTRA:         -12.020
REMARK INTER:                 -10.189
REMARK INTRA:                  -1.831
REMARK UNBOUND:                -0.969
REMARK  Name = 
REMARK  8 active torsions:
REMARK  status: ('A' for Active; 'I' for Inactive)
REMARK    1  A    between atoms: C_1  and  C_2
REMARK    2  A    between atoms: C_2  and  N_3
REMARK    3  A    between atoms: C_2  and  C_25
REMARK    4  A    between atoms: N_3  and  C_4
REMARK    5  A    between atoms: C_4  and  C_5
REMARK    6  A    between atoms: C_8  and  C_9
REMARK    7  A    between atoms: C_9  and  N_10
REMARK    8  A    between atoms: C_11  and  C_13
REMARK                            x       y       z     vdW  Elec       q    Type
REMARK                         _______ _______ _______ _____ _____    ______ ____
ROOT
ATOM      1  C   UNL     1      49.086   8.162  16.270  0.00  0.00    +0.000 A 
ATOM      2  C   UNL     1      48.231   9.096  15.663  0.00  0.00    +0.000 A 
ATOM      3  C   UNL     1      47.847   8.948  14.335  0.00  0.00    +0.000 A 
ATOM      4  C   UNL     1      48.307   7.870  13.568  0.00  0.00    +0.000 A 
ATOM      5  C   UNL     1      49.194   6.959  14.167  0.00  0.00    +0.000 A 
ATOM      6  C   UNL     1      49.574   7.100  15.503  0.00  0.00    +0.000 A 
ENDROOT
BRANCH   1   7
ATOM      7  C   UNL     1      49.486   8.336  17.709  0.00  0.00    +0.000 C 
BRANCH   7   8
ATOM      8  N   UNL     1      50.051   7.097  18.239  0.00  0.00    +0.000 NA
ATOM      9  H   UNL     1      50.878   7.322  18.791  0.00  0.00    +0.000 HD
BRANCH   8  11
ATOM     10  C   UNL     1      47.874   7.180  19.398  0.00  0.00    +0.000 C 
ATOM     11  C   UNL     1      49.110   6.334  19.061  0.00  0.00    +0.000 C 
BRANCH  11  12
ATOM     12  C   UNL     1      48.755   5.034  18.344  0.00  0.00    +0.000 A 
ATOM     13  C   UNL     1      47.447   4.758  17.907  0.00  0.00    +0.000 A 
ATOM     14  C   UNL     1      47.154   3.588  17.199  0.00  0.00    +0.000 A 
ATOM     15  C   UNL     1      48.169   2.681  16.900  0.00  0.00    +0.000 A 
ATOM     16  C   UNL     1      49.464   2.949  17.321  0.00  0.00    +0.000 A 
ATOM     17  F   UNL     1      50.447   2.090  17.017  0.00  0.00    +0.000 F 
ATOM     18  C   UNL     1      49.763   4.105  18.041  0.00  0.00    +0.000 A 
ENDBRANCH  11  12
ENDBRANCH   8  11
ENDBRANCH   7   8
ENDBRANCH   1   7
BRANCH   4  19
ATOM     19  C   UNL     1      47.871   7.659  12.135  0.00  0.00    +0.000 C 
BRANCH  19  20
ATOM     20  N   UNL     1      47.069   6.471  11.962  0.00  0.00    +0.000 N 
ATOM     21  C   UNL     1      45.699   6.505  11.950  0.00  0.00    +0.000 C 
ATOM     22  O   UNL     1      45.060   7.552  12.088  0.00  0.00    +0.000 OA
ATOM     23  H   UNL     1      47.515   5.590  12.196  0.00  0.00    +0.000 HD
BRANCH  21  24
ATOM     24  C   UNL     1      45.032   5.224  11.711  0.00  0.00    +0.000 A 
ATOM     25  C   UNL     1      44.306   4.618  12.724  0.00  0.00    +0.000 A 
ATOM     26  S   UNL     1      43.580   3.145  12.254  0.00  0.00    +0.000 S 
ATOM     27  C   UNL     1      44.247   3.250  10.693  0.00  0.00    +0.000 A 
ATOM     28  N   UNL     1      44.046   2.268   9.772  0.00  0.00    +0.000 NA
ATOM     29  C   UNL     1      44.638   2.466   8.640  0.00  0.00    +0.000 A 
ATOM     30  N   UNL     1      45.400   3.566   8.340  0.00  0.00    +0.000 N 
ATOM     31  C   UNL     1      45.563   4.612   9.207  0.00  0.00    +0.000 A 
ATOM     32  O   UNL     1      46.156   5.641   8.864  0.00  0.00    +0.000 OA
ATOM     33  C   UNL     1      44.974   4.414  10.517  0.00  0.00    +0.000 A 
ATOM     34  H   UNL     1      45.799   3.680   7.419  0.00  0.00    +0.000 HD
ENDBRANCH  21  24
ENDBRANCH  19  20
ENDBRANCH   4  19
TORSDOF 7
ENDMDL
MODEL 8
REMARK VINA RESULT:    -7.474      5.328      9.849
REMARK INTER + INTRA:         -11.501
REMARK INTER:                 -10.432
REMARK INTRA:                  -1.070
REMARK UNBOUND:                -0.969
REMARK  Name = 
REMARK  8 active torsions:
REMARK  status: ('A' for Active; 'I' for Inactive)
REMARK    1  A    between atoms: C_1  and  C_2
REMARK    2  A    between atoms: C_2  and  N_3
REMARK    3  A    between atoms: C_2  and  C_25
REMARK    4  A    between atoms: N_3  and  C_4
REMARK    5  A    between atoms: C_4  and  C_5
REMARK    6  A    between atoms: C_8  and  C_9
REMARK    7  A    between atoms: C_9  and  N_10
REMARK    8  A    between atoms: C_11  and  C_13
REMARK                            x       y       z     vdW  Elec       q    Type
REMARK                         _______ _______ _______ _____ _____    ______ ____
ROOT
ATOM      1  C   UNL     1      51.376   3.570  17.784  0.00  0.00    +0.000 A 
ATOM      2  C   UNL     1      50.607   4.745  17.791  0.00  0.00    +0.000 A 
ATOM      3  C   UNL     1      49.257   4.711  17.456  0.00  0.00    +0.000 A 
ATOM      4  C   UNL     1      48.634   3.509  17.099  0.00  0.00    +0.000 A 
ATOM      5  C   UNL     1      49.416   2.343  17.055  0.00  0.00    +0.000 A 
ATOM      6  C   UNL     1      50.769   2.372  17.399  0.00  0.00    +0.000 A 
ENDROOT
BRANCH   1   7
ATOM      7  C   UNL     1      52.832   3.626  18.154  0.00  0.00    +0.000 C 
BRANCH   7   8
ATOM      8  N   UNL     1      53.181   2.517  19.039  0.00  0.00    +0.000 NA
ATOM      9  H   UNL     1      52.605   1.711  18.799  0.00  0.00    +0.000 HD
BRANCH   8  11
ATOM     10  C   UNL     1      55.144   1.847  20.377  0.00  0.00    +0.000 C 
ATOM     11  C   UNL     1      54.595   2.143  18.974  0.00  0.00    +0.000 C 
BRANCH  11  12
ATOM     12  C   UNL     1      54.761   0.967  18.017  0.00  0.00    +0.000 A 
ATOM     13  C   UNL     1      55.268   1.131  16.715  0.00  0.00    +0.000 A 
ATOM     14  C   UNL     1      55.468   0.033  15.873  0.00  0.00    +0.000 A 
ATOM     15  C   UNL     1      55.183  -1.254  16.326  0.00  0.00    +0.000 A 
ATOM     16  C   UNL     1      54.689  -1.426  17.611  0.00  0.00    +0.000 A 
ATOM     17  F   UNL     1      54.434  -2.664  18.058  0.00  0.00    +0.000 F 
ATOM     18  C   UNL     1      54.471  -0.336  18.453  0.00  0.00    +0.000 A 
ENDBRANCH  11  12
ENDBRANCH   8  11
ENDBRANCH   7   8
ENDBRANCH   1   7
BRANCH   4  19
ATOM     19  C   UNL     1      47.159   3.435  16.773  0.00  0.00    +0.000 C 
BRANCH  19  20
ATOM     20  N   UNL     1      46.754   4.410  15.787  0.00  0.00    +0.000 N 
ATOM     21  C   UNL     1      46.805   4.158  14.441  0.00  0.00    +0.000 C 
ATOM     22  O   UNL     1      47.202   3.085  13.981  0.00  0.00    +0.000 OA
ATOM     23  H   UNL     1      46.763   5.380  16.084  0.00  0.00    +0.000 HD
BRANCH  21  24
ATOM     24  C   UNL     1      46.309   5.228  13.573  0.00  0.00    +0.000 A 
ATOM     25  C   UNL     1      47.102   6.334  13.309  0.00  0.00    +0.000 A 
ATOM     26  S   UNL     1      46.366   7.464  12.260  0.00  0.00    +0.000 S 
ATOM     27  C   UNL     1      44.948   6.530  12.158  0.00  0.00    +0.000 A 
ATOM     28  N   UNL     1      43.876   6.952  11.434  0.00  0.00    +0.000 NA
ATOM     29  C   UNL     1      42.857   6.158  11.472  0.00  0.00    +0.000 A 
ATOM     30  N   UNL     1      42.820   4.970  12.156  0.00  0.00    +0.000 N 
ATOM     31  C   UNL     1      43.901   4.470  12.831  0.00  0.00    +0.000 A 
ATOM     32  O   UNL     1      43.873   3.342  13.337  0.00  0.00    +0.000 OA
ATOM     33  C   UNL     1      45.050   5.351  12.876  0.00  0.00    +0.000 A 
ATOM     34  H   UNL     1      42.005   4.373  12.108  0.00  0.00    +0.000 HD
ENDBRANCH  21  24
ENDBRANCH  19  20
ENDBRANCH   4  19
TORSDOF 7
ENDMDL
MODEL 9
REMARK VINA RESULT:    -7.345      4.306      9.264
REMARK INTER + INTRA:         -11.319
REMARK INTER:                  -9.102
REMARK INTRA:                  -2.218
REMARK UNBOUND:                -0.969
REMARK  Name = 
REMARK  8 active torsions:
REMARK  status: ('A' for Active; 'I' for Inactive)
REMARK    1  A    between atoms: C_1  and  C_2
REMARK    2  A    between atoms: C_2  and  N_3
REMARK    3  A    between atoms: C_2  and  C_25
REMARK    4  A    between atoms: N_3  and  C_4
REMARK    5  A    between atoms: C_4  and  C_5
REMARK    6  A    between atoms: C_8  and  C_9
REMARK    7  A    between atoms: C_9  and  N_10
REMARK    8  A    between atoms: C_11  and  C_13
REMARK                            x       y       z     vdW  Elec       q    Type
REMARK                         _______ _______ _______ _____ _____    ______ ____
ROOT
ATOM      1  C   UNL     1      50.845   4.390  18.866  0.00  0.00    +0.000 A 
ATOM      2  C   UNL     1      50.842   3.527  17.758  0.00  0.00    +0.000 A 
ATOM      3  C   UNL     1      49.650   3.188  17.126  0.00  0.00    +0.000 A 
ATOM      4  C   UNL     1      48.425   3.692  17.581  0.00  0.00    +0.000 A 
ATOM      5  C   UNL     1      48.428   4.523  18.714  0.00  0.00    +0.000 A 
ATOM      6  C   UNL     1      49.624   4.872  19.345  0.00  0.00    +0.000 A 
ENDROOT
BRANCH   1   7
ATOM      7  C   UNL     1      52.144   4.749  19.533  0.00  0.00    +0.000 C 
BRANCH   7   8
ATOM      8  N   UNL     1      52.272   6.199  19.661  0.00  0.00    +0.000 NA
ATOM      9  H   UNL     1      52.917   6.406  20.423  0.00  0.00    +0.000 HD
BRANCH   8  11
ATOM     10  C   UNL     1      53.719   5.947  17.679  0.00  0.00    +0.000 C 
ATOM     11  C   UNL     1      52.738   6.852  18.436  0.00  0.00    +0.000 C 
BRANCH  11  12
ATOM     12  C   UNL     1      51.533   7.251  17.589  0.00  0.00    +0.000 A 
ATOM     13  C   UNL     1      51.354   6.777  16.277  0.00  0.00    +0.000 A 
ATOM     14  C   UNL     1      50.214   7.107  15.538  0.00  0.00    +0.000 A 
ATOM     15  C   UNL     1      49.220   7.902  16.107  0.00  0.00    +0.000 A 
ATOM     16  C   UNL     1      49.385   8.368  17.404  0.00  0.00    +0.000 A 
ATOM     17  F   UNL     1      48.421   9.115  17.961  0.00  0.00    +0.000 F 
ATOM     18  C   UNL     1      50.526   8.058  18.142  0.00  0.00    +0.000 A 
ENDBRANCH  11  12
ENDBRANCH   8  11
ENDBRANCH   7   8
ENDBRANCH   1   7
BRANCH   4  19
ATOM     19  C   UNL     1      47.119   3.376  16.887  0.00  0.00    +0.000 C 
BRANCH  19  20
ATOM     20  N   UNL     1      46.760   4.361  15.893  0.00  0.00    +0.000 N 
ATOM     21  C   UNL     1      46.878   4.125  14.549  0.00  0.00    +0.000 C 
ATOM     22  O   UNL     1      47.303   3.058  14.097  0.00  0.00    +0.000 OA
ATOM     23  H   UNL     1      46.751   5.327  16.203  0.00  0.00    +0.000 HD
BRANCH  21  24
ATOM     24  C   UNL     1      46.423   5.204  13.670  0.00  0.00    +0.000 A 
ATOM     25  C   UNL     1      47.218   6.321  13.469  0.00  0.00    +0.000 A 
ATOM     26  S   UNL     1      46.532   7.460  12.396  0.00  0.00    +0.000 S 
ATOM     27  C   UNL     1      45.132   6.514  12.198  0.00  0.00    +0.000 A 
ATOM     28  N   UNL     1      44.099   6.937  11.419  0.00  0.00    +0.000 NA
ATOM     29  C   UNL     1      43.089   6.133  11.386  0.00  0.00    +0.000 A 
ATOM     30  N   UNL     1      43.025   4.934  12.049  0.00  0.00    +0.000 N 
ATOM     31  C   UNL     1      44.070   4.434  12.778  0.00  0.00    +0.000 A 
ATOM     32  O   UNL     1      44.025   3.298  13.264  0.00  0.00    +0.000 OA
ATOM     33  C   UNL     1      45.206   5.326  12.903  0.00  0.00    +0.000 A 
ATOM     34  H   UNL     1      42.221   4.330  11.944  0.00  0.00    +0.000 HD
ENDBRANCH  21  24
ENDBRANCH  19  20
ENDBRANCH   4  19
TORSDOF 7
ENDMDL
