MODEL 1
REMARK VINA RESULT:    -8.734      0.000      0.000
REMARK INTER + INTRA:         -12.266
REMARK INTER:                 -11.287
REMARK INTRA:                  -0.979
REMARK UNBOUND:                -0.979
REMARK  Name = 
REMARK  6 active torsions:
REMARK  status: ('A' for Active; 'I' for Inactive)
REMARK    1  A    between atoms: C_1  and  C_2
REMARK    2  A    between atoms: C_6  and  C_7
REMARK    3  A    between atoms: C_7  and  C_8
REMARK    4  A    between atoms: C_11  and  C_12
REMARK    5  A    between atoms: C_12  and  N_13
REMARK    6  A    between atoms: C_14  and  C_16
REMARK                            x       y       z     vdW  Elec       q    Type
REMARK                         _______ _______ _______ _____ _____    ______ ____
ROOT
ATOM      1  C   UNL     1      46.501   7.588  12.735  0.00  0.00    +0.000 C 
ENDROOT
BRANCH   1   5
ATOM      2  C   UNL     1      44.855   4.699  10.114  0.00  0.00    +0.000 A 
ATOM      3  C   UNL     1      44.358   4.762  11.410  0.00  0.00    +0.000 A 
ATOM      4  C   UNL     1      44.884   5.707  12.283  0.00  0.00    +0.000 A 
ATOM      5  C   UNL     1      45.903   6.537  11.840  0.00  0.00    +0.000 A 
ATOM      6  N   UNL     1      46.378   6.443  10.577  0.00  0.00    +0.000 NA
ATOM      7  N   UNL     1      45.851   5.520   9.711  0.00  0.00    +0.000 NA
BRANCH   2   8
ATOM      8  C   UNL     1      44.267   3.761   9.091  0.00  0.00    +0.000 C 
BRANCH   8  14
ATOM      9  C   UNL     1      47.312   3.118   5.125  0.00  0.00    +0.000 C 
ATOM     10  C   UNL     1      46.727   2.593   6.402  0.00  0.00    +0.000 A 
ATOM     11  C   UNL     1      47.048   1.315   6.869  0.00  0.00    +0.000 A 
ATOM     12  C   UNL     1      46.485   0.836   8.051  0.00  0.00    +0.000 A 
ATOM     13  C   UNL     1      45.597   1.629   8.779  0.00  0.00    +0.000 A 
ATOM     14  C   UNL     1      45.265   2.917   8.335  0.00  0.00    +0.000 A 
ATOM     15  C   UNL     1      45.838   3.387   7.140  0.00  0.00    +0.000 A 
ENDBRANCH   8  14
ENDBRANCH   2   8
ENDBRANCH   1   5
BRANCH   1  16
ATOM     16  N   UNL     1      47.012   7.045  13.975  0.00  0.00    +0.000 N 
ATOM     17  C   UNL     1      48.310   6.633  14.129  0.00  0.00    +0.000 C 
ATOM     18  O   UNL     1      49.124   6.694  13.212  0.00  0.00    +0.000 OA
ATOM     19  H   UNL     1      46.316   6.783  14.666  0.00  0.00    +0.000 HD
BRANCH  17  20
ATOM     20  C   UNL     1      48.700   6.182  15.473  0.00  0.00    +0.000 A 
ATOM     21  C   UNL     1      49.669   6.881  16.180  0.00  0.00    +0.000 A 
ATOM     22  S   UNL     1      49.960   6.260  17.742  0.00  0.00    +0.000 S 
ATOM     23  C   UNL     1      48.835   5.007  17.514  0.00  0.00    +0.000 A 
ATOM     24  N   UNL     1      48.607   4.084  18.487  0.00  0.00    +0.000 NA
ATOM     25  C   UNL     1      47.752   3.171  18.167  0.00  0.00    +0.000 A 
ATOM     26  N   UNL     1      47.102   3.097  16.962  0.00  0.00    +0.000 N 
ATOM     27  C   UNL     1      47.261   4.036  15.972  0.00  0.00    +0.000 A 
ATOM     28  O   UNL     1      46.597   3.995  14.942  0.00  0.00    +0.000 OA
ATOM     29  C   UNL     1      48.232   5.072  16.270  0.00  0.00    +0.000 A 
ATOM     30  H   UNL     1      46.432   2.365  16.778  0.00  0.00    +0.000 HD
ENDBRANCH  17  20
ENDBRANCH   1  16
TORSDOF 5
ENDMDL
MODEL 2
REMARK VINA RESULT:    -8.317      2.425      4.090
REMARK INTER + INTRA:         -11.727
REMARK INTER:                 -10.660
REMARK INTRA:                  -1.067
REMARK UNBOUND:                -0.979
REMARK  Name = 
REMARK  6 active torsions:
REMARK  status: ('A' for Active; 'I' for Inactive)
REMARK    1  A    between atoms: C_1  and  C_2
REMARK    2  A    between atoms: C_6  and  C_7
REMARK    3  A    between atoms: C_7  and  C_8
REMARK    4  A    between atoms: C_11  and  C_12
REMARK    5  A    between atoms: C_12  and  N_13
REMARK    6  A    between atoms: C_14  and  C_16
REMARK                            x       y       z     vdW  Elec       q    Type
REMARK                         _______ _______ _______ _____ _____    ______ ____
ROOT
ATOM      1  C   UNL     1      47.018   4.795  14.846  0.00  0.00    +0.000 C 
ENDROOT
BRANCH   1   5
ATOM      2  C   UNL     1      44.916   3.978  11.263  0.00  0.00    +0.000 A 
ATOM      3  C   UNL     1      45.183   5.305  11.574  0.00  0.00    +0.000 A 
ATOM      4  C   UNL     1      45.877   5.593  12.744  0.00  0.00    +0.000 A 
ATOM      5  C   UNL     1      46.254   4.548  13.574  0.00  0.00    +0.000 A 
ATOM      6  N   UNL     1      45.966   3.265  13.254  0.00  0.00    +0.000 NA
ATOM      7  N   UNL     1      45.295   2.979  12.094  0.00  0.00    +0.000 NA
BRANCH   2   8
ATOM      8  C   UNL     1      44.251   3.592   9.967  0.00  0.00    +0.000 C 
BRANCH   8  14
ATOM      9  C   UNL     1      46.795  -0.084   7.636  0.00  0.00    +0.000 C 
ATOM     10  C   UNL     1      46.436   1.368   7.747  0.00  0.00    +0.000 A 
ATOM     11  C   UNL     1      46.996   2.316   6.886  0.00  0.00    +0.000 A 
ATOM     12  C   UNL     1      46.662   3.664   7.011  0.00  0.00    +0.000 A 
ATOM     13  C   UNL     1      45.764   4.078   7.996  0.00  0.00    +0.000 A 
ATOM     14  C   UNL     1      45.184   3.145   8.867  0.00  0.00    +0.000 A 
ATOM     15  C   UNL     1      45.531   1.789   8.732  0.00  0.00    +0.000 A 
ENDBRANCH   8  14
ENDBRANCH   2   8
ENDBRANCH   1   5
BRANCH   1  16
ATOM     16  N   UNL     1      47.676   6.085  14.863  0.00  0.00    +0.000 N 
ATOM     17  C   UNL     1      48.809   6.333  15.591  0.00  0.00    +0.000 C 
ATOM     18  O   UNL     1      49.337   5.469  16.287  0.00  0.00    +0.000 OA
ATOM     19  H   UNL     1      47.144   6.860  14.479  0.00  0.00    +0.000 HD
BRANCH  17  20
ATOM     20  C   UNL     1      49.407   7.668  15.439  0.00  0.00    +0.000 A 
ATOM     21  C   UNL     1      49.641   8.450  16.562  0.00  0.00    +0.000 A 
ATOM     22  S   UNL     1      50.391   9.942  16.214  0.00  0.00    +0.000 S 
ATOM     23  C   UNL     1      50.389   9.617  14.545  0.00  0.00    +0.000 A 
ATOM     24  N   UNL     1      50.887  10.519  13.656  0.00  0.00    +0.000 NA
ATOM     25  C   UNL     1      50.792  10.157  12.420  0.00  0.00    +0.000 A 
ATOM     26  N   UNL     1      50.246   8.974  11.993  0.00  0.00    +0.000 N 
ATOM     27  C   UNL     1      49.781   8.013  12.857  0.00  0.00    +0.000 A 
ATOM     28  O   UNL     1      49.384   6.927  12.449  0.00  0.00    +0.000 OA
ATOM     29  C   UNL     1      49.840   8.380  14.259  0.00  0.00    +0.000 A 
ATOM     30  H   UNL     1      50.215   8.742  11.011  0.00  0.00    +0.000 HD
ENDBRANCH  17  20
ENDBRANCH   1  16
TORSDOF 5
ENDMDL
MODEL 3
REMARK VINA RESULT:    -7.832      2.786      3.912
REMARK INTER + INTRA:         -11.101
REMARK INTER:                 -10.370
REMARK INTRA:                  -0.731
REMARK UNBOUND:                -0.979
REMARK  Name = 
REMARK  6 active torsions:
REMARK  status: ('A' for Active; 'I' for Inactive)
REMARK    1  A    between atoms: C_1  and  C_2
REMARK    2  A    between atoms: C_6  and  C_7
REMARK    3  A    between atoms: C_7  and  C_8
REMARK    4  A    between atoms: C_11  and  C_12
REMARK    5  A    between atoms: C_12  and  N_13
REMARK    6  A    between atoms: C_14  and  C_16
REMARK                            x       y       z     vdW  Elec       q    Type
REMARK                         _______ _______ _______ _____ _____    ______ ____
ROOT
ATOM      1  C   UNL     1      46.974   4.804  14.864  0.00  0.00    +0.000 C 
ENDROOT
BRANCH   1   5
ATOM      2  C   UNL     1      44.891   4.026  11.261  0.00  0.00    +0.000 A 
ATOM      3  C   UNL     1      45.091   5.351  11.625  0.00  0.00    +0.000 A 
ATOM      4  C   UNL     1      45.778   5.626  12.802  0.00  0.00    +0.000 A 
ATOM      5  C   UNL     1      46.214   4.569  13.586  0.00  0.00    +0.000 A 
ATOM      6  N   UNL     1      45.991   3.288  13.215  0.00  0.00    +0.000 NA
ATOM      7  N   UNL     1      45.327   3.015  12.048  0.00  0.00    +0.000 NA
BRANCH   2   8
ATOM      8  C   UNL     1      44.237   3.659   9.954  0.00  0.00    +0.000 C 
BRANCH   8  14
ATOM      9  C   UNL     1      46.758  -0.045   7.642  0.00  0.00    +0.000 C 
ATOM     10  C   UNL     1      46.417   1.412   7.753  0.00  0.00    +0.000 A 
ATOM     11  C   UNL     1      47.001   2.355   6.902  0.00  0.00    +0.000 A 
ATOM     12  C   UNL     1      46.685   3.706   7.028  0.00  0.00    +0.000 A 
ATOM     13  C   UNL     1      45.781   4.130   8.003  0.00  0.00    +0.000 A 
ATOM     14  C   UNL     1      45.176   3.202   8.864  0.00  0.00    +0.000 A 
ATOM     15  C   UNL     1      45.506   1.843   8.728  0.00  0.00    +0.000 A 
ENDBRANCH   8  14
ENDBRANCH   2   8
ENDBRANCH   1   5
BRANCH   1  16
ATOM     16  N   UNL     1      47.737   6.034  14.844  0.00  0.00    +0.000 N 
ATOM     17  C   UNL     1      48.833   6.244  15.638  0.00  0.00    +0.000 C 
ATOM     18  O   UNL     1      49.235   5.394  16.428  0.00  0.00    +0.000 OA
ATOM     19  H   UNL     1      47.302   6.820  14.370  0.00  0.00    +0.000 HD
BRANCH  17  20
ATOM     20  C   UNL     1      49.552   7.512  15.443  0.00  0.00    +0.000 A 
ATOM     21  C   UNL     1      50.225   7.746  14.253  0.00  0.00    +0.000 A 
ATOM     22  S   UNL     1      50.956   9.286  14.169  0.00  0.00    +0.000 S 
ATOM     23  C   UNL     1      50.437   9.678  15.740  0.00  0.00    +0.000 A 
ATOM     24  N   UNL     1      50.747  10.879  16.300  0.00  0.00    +0.000 NA
ATOM     25  C   UNL     1      50.318  11.030  17.508  0.00  0.00    +0.000 A 
ATOM     26  N   UNL     1      49.604  10.091  18.207  0.00  0.00    +0.000 N 
ATOM     27  C   UNL     1      49.222   8.889  17.662  0.00  0.00    +0.000 A 
ATOM     28  O   UNL     1      48.504   8.109  18.278  0.00  0.00    +0.000 OA
ATOM     29  C   UNL     1      49.701   8.656  16.313  0.00  0.00    +0.000 A 
ATOM     30  H   UNL     1      49.282  10.276  19.145  0.00  0.00    +0.000 HD
ENDBRANCH  17  20
ENDBRANCH   1  16
TORSDOF 5
ENDMDL
MODEL 4
REMARK VINA RESULT:    -7.343      4.056      9.356
REMARK INTER + INTRA:         -10.468
REMARK INTER:                  -9.744
REMARK INTRA:                  -0.725
REMARK UNBOUND:                -0.979
REMARK  Name = 
REMARK  6 active torsions:
REMARK  status: ('A' for Active; 'I' for Inactive)
REMARK    1  A    between atoms: C_1  and  C_2
REMARK    2  A    between atoms: C_6  and  C_7
REMARK    3  A    between atoms: C_7  and  C_8
REMARK    4  A    between atoms: C_11  and  C_12
REMARK    5  A    between atoms: C_12  and  N_13
REMARK    6  A    between atoms: C_14  and  C_16
REMARK                            x       y       z     vdW  Elec       q    Type
REMARK                         _______ _______ _______ _____ _____    ______ ____
ROOT
ATOM      1  C   UNL     1      47.183   3.297  16.817  0.00  0.00    +0.000 C 
ENDROOT
BRANCH   1   5
ATOM      2  C   UNL     1      51.283   2.428  17.415  0.00  0.00    +0.000 A 
ATOM      3  C   UNL     1      50.745   3.522  18.080  0.00  0.00    +0.000 A 
ATOM      4  C   UNL     1      49.399   3.820  17.900  0.00  0.00    +0.000 A 
ATOM      5  C   UNL     1      48.647   3.032  17.041  0.00  0.00    +0.000 A 
ATOM      6  N   UNL     1      49.201   1.982  16.394  0.00  0.00    +0.000 NA
ATOM      7  N   UNL     1      50.525   1.679  16.582  0.00  0.00    +0.000 NA
BRANCH   2   8
ATOM      8  C   UNL     1      52.710   1.996  17.638  0.00  0.00    +0.000 C 
BRANCH   8  14
ATOM      9  C   UNL     1      55.684   6.057  17.344  0.00  0.00    +0.000 C 
ATOM     10  C   UNL     1      55.058   4.972  18.169  0.00  0.00    +0.000 A 
ATOM     11  C   UNL     1      55.332   4.856  19.535  0.00  0.00    +0.000 A 
ATOM     12  C   UNL     1      54.754   3.833  20.284  0.00  0.00    +0.000 A 
ATOM     13  C   UNL     1      53.895   2.916  19.678  0.00  0.00    +0.000 A 
ATOM     14  C   UNL     1      53.598   3.015  18.311  0.00  0.00    +0.000 A 
ATOM     15  C   UNL     1      54.191   4.049  17.566  0.00  0.00    +0.000 A 
ENDBRANCH   8  14
ENDBRANCH   2   8
ENDBRANCH   1   5
BRANCH   1  16
ATOM     16  N   UNL     1      46.945   4.347  15.849  0.00  0.00    +0.000 N 
ATOM     17  C   UNL     1      46.981   4.135  14.496  0.00  0.00    +0.000 C 
ATOM     18  O   UNL     1      47.227   3.030  14.018  0.00  0.00    +0.000 OA
ATOM     19  H   UNL     1      46.958   5.296  16.210  0.00  0.00    +0.000 HD
BRANCH  17  20
ATOM     20  C   UNL     1      46.635   5.281  13.643  0.00  0.00    +0.000 A 
ATOM     21  C   UNL     1      47.569   6.285  13.426  0.00  0.00    +0.000 A 
ATOM     22  S   UNL     1      47.027   7.509  12.368  0.00  0.00    +0.000 S 
ATOM     23  C   UNL     1      45.508   6.764  12.196  0.00  0.00    +0.000 A 
ATOM     24  N   UNL     1      44.540   7.320  11.417  0.00  0.00    +0.000 NA
ATOM     25  C   UNL     1      43.427   6.667  11.404  0.00  0.00    +0.000 A 
ATOM     26  N   UNL     1      43.193   5.507  12.096  0.00  0.00    +0.000 N 
ATOM     27  C   UNL     1      44.157   4.883  12.851  0.00  0.00    +0.000 A 
ATOM     28  O   UNL     1      43.947   3.798  13.383  0.00  0.00    +0.000 OA
ATOM     29  C   UNL     1      45.422   5.589  12.921  0.00  0.00    +0.000 A 
ATOM     30  H   UNL     1      42.304   5.034  12.032  0.00  0.00    +0.000 HD
ENDBRANCH  17  20
ENDBRANCH   1  16
TORSDOF 5
ENDMDL
MODEL 5
REMARK VINA RESULT:    -7.335      2.901      3.988
REMARK INTER + INTRA:         -10.459
REMARK INTER:                  -9.536
REMARK INTRA:                  -0.923
REMARK UNBOUND:                -0.979
REMARK  Name = 
REMARK  6 active torsions:
REMARK  status: ('A' for Active; 'I' for Inactive)
REMARK    1  A    between atoms: C_1  and  C_2
REMARK    2  A    between atoms: C_6  and  C_7
REMARK    3  A    between atoms: C_7  and  C_8
REMARK    4  A    between atoms: C_11  and  C_12
REMARK    5  A    between atoms: C_12  and  N_13
REMARK    6  A    between atoms: C_14  and  C_16
REMARK                            x       y       z     vdW  Elec       q    Type
REMARK                         _______ _______ _______ _____ _____    ______ ____
ROOT
ATOM      1  C   UNL     1      47.223   5.472  14.568  0.00  0.00    +0.000 C 
ENDROOT
BRANCH   1   5
ATOM      2  C   UNL     1      45.005   4.157  11.210  0.00  0.00    +0.000 A 
ATOM      3  C   UNL     1      45.472   5.465  11.211  0.00  0.00    +0.000 A 
ATOM      4  C   UNL     1      46.207   5.913  12.303  0.00  0.00    +0.000 A 
ATOM      5  C   UNL     1      46.424   5.049  13.365  0.00  0.00    +0.000 A 
ATOM      6  N   UNL     1      45.944   3.784  13.344  0.00  0.00    +0.000 NA
ATOM      7  N   UNL     1      45.232   3.337  12.262  0.00  0.00    +0.000 NA
BRANCH   2   8
ATOM      8  C   UNL     1      44.284   3.580  10.019  0.00  0.00    +0.000 C 
BRANCH   8  14
ATOM      9  C   UNL     1      46.797  -0.082   7.632  0.00  0.00    +0.000 C 
ATOM     10  C   UNL     1      46.404   1.363   7.731  0.00  0.00    +0.000 A 
ATOM     11  C   UNL     1      46.891   2.305   6.820  0.00  0.00    +0.000 A 
ATOM     12  C   UNL     1      46.528   3.646   6.934  0.00  0.00    +0.000 A 
ATOM     13  C   UNL     1      45.674   4.059   7.958  0.00  0.00    +0.000 A 
ATOM     14  C   UNL     1      45.167   3.132   8.879  0.00  0.00    +0.000 A 
ATOM     15  C   UNL     1      45.543   1.783   8.755  0.00  0.00    +0.000 A 
ENDBRANCH   8  14
ENDBRANCH   2   8
ENDBRANCH   1   5
BRANCH   1  16
ATOM     16  N   UNL     1      48.445   6.162  14.214  0.00  0.00    +0.000 N 
ATOM     17  C   UNL     1      48.595   7.519  14.331  0.00  0.00    +0.000 C 
ATOM     18  O   UNL     1      47.688   8.240  14.739  0.00  0.00    +0.000 OA
ATOM     19  H   UNL     1      49.119   5.626  13.676  0.00  0.00    +0.000 HD
BRANCH  17  20
ATOM     20  C   UNL     1      49.923   8.063  14.012  0.00  0.00    +0.000 A 
ATOM     21  C   UNL     1      50.073   8.935  12.942  0.00  0.00    +0.000 A 
ATOM     22  S   UNL     1      51.666   9.515  12.747  0.00  0.00    +0.000 S 
ATOM     23  C   UNL     1      52.223   8.586  14.058  0.00  0.00    +0.000 A 
ATOM     24  N   UNL     1      53.533   8.610  14.426  0.00  0.00    +0.000 NA
ATOM     25  C   UNL     1      53.823   7.833  15.415  0.00  0.00    +0.000 A 
ATOM     26  N   UNL     1      52.922   7.036  16.073  0.00  0.00    +0.000 N 
ATOM     27  C   UNL     1      51.581   7.021  15.771  0.00  0.00    +0.000 A 
ATOM     28  O   UNL     1      50.785   6.369  16.437  0.00  0.00    +0.000 OA
ATOM     29  C   UNL     1      51.205   7.858  14.647  0.00  0.00    +0.000 A 
ATOM     30  H   UNL     1      53.208   6.461  16.851  0.00  0.00    +0.000 HD
ENDBRANCH  17  20
ENDBRANCH   1  16
TORSDOF 5
ENDMDL
MODEL 6
REMARK VINA RESULT:    -7.309      2.188      2.930
REMARK INTER + INTRA:         -10.424
REMARK INTER:                  -9.508
REMARK INTRA:                  -0.916
REMARK UNBOUND:                -0.979
REMARK  Name = 
REMARK  6 active torsions:
REMARK  status: ('A' for Active; 'I' for Inactive)
REMARK    1  A    between atoms: C_1  and  C_2
REMARK    2  A    between atoms: C_6  and  C_7
REMARK    3  A    between atoms: C_7  and  C_8
REMARK    4  A    between atoms: C_11  and  C_12
REMARK    5  A    between atoms: C_12  and  N_13
REMARK    6  A    between atoms: C_14  and  C_16
REMARK                            x       y       z     vdW  Elec       q    Type
REMARK                         _______ _______ _______ _____ _____    ______ ____
ROOT
ATOM      1  C   UNL     1      47.901   7.775  13.946  0.00  0.00    +0.000 C 
ENDROOT
BRANCH   1   5
ATOM      2  C   UNL     1      44.918   6.029  11.502  0.00  0.00    +0.000 A 
ATOM      3  C   UNL     1      44.900   7.408  11.668  0.00  0.00    +0.000 A 
ATOM      4  C   UNL     1      45.875   8.000  12.463  0.00  0.00    +0.000 A 
ATOM      5  C   UNL     1      46.814   7.191  13.085  0.00  0.00    +0.000 A 
ATOM      6  N   UNL     1      46.798   5.849  12.918  0.00  0.00    +0.000 NA
ATOM      7  N   UNL     1      45.847   5.266  12.123  0.00  0.00    +0.000 NA
BRANCH   2   8
ATOM      8  C   UNL     1      43.948   5.335  10.580  0.00  0.00    +0.000 C 
BRANCH   8  14
ATOM      9  C   UNL     1      46.693   3.733   6.666  0.00  0.00    +0.000 C 
ATOM     10  C   UNL     1      45.837   3.420   7.858  0.00  0.00    +0.000 A 
ATOM     11  C   UNL     1      45.519   2.099   8.189  0.00  0.00    +0.000 A 
ATOM     12  C   UNL     1      44.711   1.826   9.291  0.00  0.00    +0.000 A 
ATOM     13  C   UNL     1      44.213   2.868  10.074  0.00  0.00    +0.000 A 
ATOM     14  C   UNL     1      44.524   4.200   9.767  0.00  0.00    +0.000 A 
ATOM     15  C   UNL     1      45.338   4.463   8.651  0.00  0.00    +0.000 A 
ENDBRANCH   8  14
ENDBRANCH   2   8
ENDBRANCH   1   5
BRANCH   1  16
ATOM     16  N   UNL     1      47.956   7.176  15.263  0.00  0.00    +0.000 N 
ATOM     17  C   UNL     1      49.116   6.704  15.819  0.00  0.00    +0.000 C 
ATOM     18  O   UNL     1      50.189   6.755  15.224  0.00  0.00    +0.000 OA
ATOM     19  H   UNL     1      47.062   6.927  15.676  0.00  0.00    +0.000 HD
BRANCH  17  20
ATOM     20  C   UNL     1      49.025   6.201  17.197  0.00  0.00    +0.000 A 
ATOM     21  C   UNL     1      49.471   4.921  17.494  0.00  0.00    +0.000 A 
ATOM     22  S   UNL     1      49.347   4.517  19.147  0.00  0.00    +0.000 S 
ATOM     23  C   UNL     1      48.650   6.023  19.519  0.00  0.00    +0.000 A 
ATOM     24  N   UNL     1      48.280   6.327  20.793  0.00  0.00    +0.000 NA
ATOM     25  C   UNL     1      47.734   7.489  20.926  0.00  0.00    +0.000 A 
ATOM     26  N   UNL     1      47.528   8.377  19.902  0.00  0.00    +0.000 N 
ATOM     27  C   UNL     1      47.934   8.134  18.612  0.00  0.00    +0.000 A 
ATOM     28  O   UNL     1      47.820   8.985  17.736  0.00  0.00    +0.000 OA
ATOM     29  C   UNL     1      48.531   6.829  18.401  0.00  0.00    +0.000 A 
ATOM     30  H   UNL     1      47.109   9.280  20.073  0.00  0.00    +0.000 HD
ENDBRANCH  17  20
ENDBRANCH   1  16
TORSDOF 5
ENDMDL
MODEL 7
REMARK VINA RESULT:    -7.301      3.395      8.380
REMARK INTER + INTRA:         -10.414
REMARK INTER:                  -9.780
REMARK INTRA:                  -0.634
REMARK UNBOUND:                -0.979
REMARK  Name = 
REMARK  6 active torsions:
REMARK  status: ('A' for Active; 'I' for Inactive)
REMARK    1  A    between atoms: C_1  and  C_2
REMARK    2  A    between atoms: C_6  and  C_7
REMARK    3  A    between atoms: C_7  and  C_8
REMARK    4  A    between atoms: C_11  and  C_12
REMARK    5  A    between atoms: C_12  and  N_13
REMARK    6  A    between atoms: C_14  and  C_16
REMARK                            x       y       z     vdW  Elec       q    Type
REMARK                         _______ _______ _______ _____ _____    ______ ____
ROOT
ATOM      1  C   UNL     1      48.482   7.539  12.972  0.00  0.00    +0.000 C 
ENDROOT
BRANCH   1   5
ATOM      2  C   UNL     1      50.034   5.988  16.593  0.00  0.00    +0.000 A 
ATOM      3  C   UNL     1      50.747   6.997  15.958  0.00  0.00    +0.000 A 
ATOM      4  C   UNL     1      50.250   7.522  14.770  0.00  0.00    +0.000 A 
ATOM      5  C   UNL     1      49.076   7.002  14.247  0.00  0.00    +0.000 A 
ATOM      6  N   UNL     1      48.411   6.008  14.879  0.00  0.00    +0.000 NA
ATOM      7  N   UNL     1      48.892   5.500  16.057  0.00  0.00    +0.000 NA
BRANCH   2   8
ATOM      8  C   UNL     1      50.468   5.440  17.929  0.00  0.00    +0.000 C 
BRANCH   8  14
ATOM      9  C   UNL     1      54.414   2.388  18.662  0.00  0.00    +0.000 C 
ATOM     10  C   UNL     1      52.990   2.576  18.231  0.00  0.00    +0.000 A 
ATOM     11  C   UNL     1      52.235   1.503  17.748  0.00  0.00    +0.000 A 
ATOM     12  C   UNL     1      50.917   1.697  17.339  0.00  0.00    +0.000 A 
ATOM     13  C   UNL     1      50.338   2.965  17.410  0.00  0.00    +0.000 A 
ATOM     14  C   UNL     1      51.072   4.056  17.897  0.00  0.00    +0.000 A 
ATOM     15  C   UNL     1      52.401   3.847  18.304  0.00  0.00    +0.000 A 
ENDBRANCH   8  14
ENDBRANCH   2   8
ENDBRANCH   1   5
BRANCH   1  16
ATOM     16  N   UNL     1      47.678   6.560  12.272  0.00  0.00    +0.000 N 
ATOM     17  C   UNL     1      46.396   6.808  11.858  0.00  0.00    +0.000 C 
ATOM     18  O   UNL     1      45.843   7.885  12.063  0.00  0.00    +0.000 OA
ATOM     19  H   UNL     1      48.027   5.606  12.286  0.00  0.00    +0.000 HD
BRANCH  17  20
ATOM     20  C   UNL     1      45.739   5.743  11.085  0.00  0.00    +0.000 A 
ATOM     21  C   UNL     1      45.874   5.710   9.704  0.00  0.00    +0.000 A 
ATOM     22  S   UNL     1      45.098   4.379   8.971  0.00  0.00    +0.000 S 
ATOM     23  C   UNL     1      44.515   3.823  10.468  0.00  0.00    +0.000 A 
ATOM     24  N   UNL     1      43.744   2.705  10.547  0.00  0.00    +0.000 NA
ATOM     25  C   UNL     1      43.343   2.417  11.740  0.00  0.00    +0.000 A 
ATOM     26  N   UNL     1      43.646   3.145  12.863  0.00  0.00    +0.000 N 
ATOM     27  C   UNL     1      44.464   4.248  12.837  0.00  0.00    +0.000 A 
ATOM     28  O   UNL     1      44.792   4.824  13.869  0.00  0.00    +0.000 OA
ATOM     29  C   UNL     1      44.921   4.632  11.515  0.00  0.00    +0.000 A 
ATOM     30  H   UNL     1      43.314   2.858  13.772  0.00  0.00    +0.000 HD
ENDBRANCH  17  20
ENDBRANCH   1  16
TORSDOF 5
ENDMDL
MODEL 8
REMARK VINA RESULT:    -7.098      3.037      4.531
REMARK INTER + INTRA:         -10.152
REMARK INTER:                  -9.307
REMARK INTRA:                  -0.845
REMARK UNBOUND:                -0.979
REMARK  Name = 
REMARK  6 active torsions:
REMARK  status: ('A' for Active; 'I' for Inactive)
REMARK    1  A    between atoms: C_1  and  C_2
REMARK    2  A    between atoms: C_6  and  C_7
REMARK    3  A    between atoms: C_7  and  C_8
REMARK    4  A    between atoms: C_11  and  C_12
REMARK    5  A    between atoms: C_12  and  N_13
REMARK    6  A    between atoms: C_14  and  C_16
REMARK                            x       y       z     vdW  Elec       q    Type
REMARK                         _______ _______ _______ _____ _____    ______ ____
ROOT
ATOM      1  C   UNL     1      47.058   6.043  13.833  0.00  0.00    +0.000 C 
ENDROOT
BRANCH   1   5
ATOM      2  C   UNL     1      45.151   4.635  10.326  0.00  0.00    +0.000 A 
ATOM      3  C   UNL     1      45.808   5.857  10.264  0.00  0.00    +0.000 A 
ATOM      4  C   UNL     1      46.444   6.334  11.405  0.00  0.00    +0.000 A 
ATOM      5  C   UNL     1      46.378   5.586  12.571  0.00  0.00    +0.000 A 
ATOM      6  N   UNL     1      45.717   4.406  12.606  0.00  0.00    +0.000 NA
ATOM      7  N   UNL     1      45.102   3.929  11.479  0.00  0.00    +0.000 NA
BRANCH   2   8
ATOM      8  C   UNL     1      44.521   4.019   9.103  0.00  0.00    +0.000 C 
BRANCH   8  14
ATOM      9  C   UNL     1      47.439   2.993   5.121  0.00  0.00    +0.000 C 
ATOM     10  C   UNL     1      46.795   2.545   6.399  0.00  0.00    +0.000 A 
ATOM     11  C   UNL     1      46.944   1.234   6.860  0.00  0.00    +0.000 A 
ATOM     12  C   UNL     1      46.327   0.829   8.042  0.00  0.00    +0.000 A 
ATOM     13  C   UNL     1      45.555   1.730   8.777  0.00  0.00    +0.000 A 
ATOM     14  C   UNL     1      45.396   3.053   8.339  0.00  0.00    +0.000 A 
ATOM     15  C   UNL     1      46.021   3.447   7.144  0.00  0.00    +0.000 A 
ENDBRANCH   8  14
ENDBRANCH   2   8
ENDBRANCH   1   5
BRANCH   1  16
ATOM     16  N   UNL     1      48.107   7.009  13.586  0.00  0.00    +0.000 N 
ATOM     17  C   UNL     1      47.908   8.362  13.666  0.00  0.00    +0.000 C 
ATOM     18  O   UNL     1      46.813   8.842  13.947  0.00  0.00    +0.000 OA
ATOM     19  H   UNL     1      48.948   6.650  13.145  0.00  0.00    +0.000 HD
BRANCH  17  20
ATOM     20  C   UNL     1      49.091   9.213  13.470  0.00  0.00    +0.000 A 
ATOM     21  C   UNL     1      49.284  10.322  14.281  0.00  0.00    +0.000 A 
ATOM     22  S   UNL     1      50.733  11.164  13.960  0.00  0.00    +0.000 S 
ATOM     23  C   UNL     1      51.133  10.102  12.694  0.00  0.00    +0.000 A 
ATOM     24  N   UNL     1      52.273  10.274  11.971  0.00  0.00    +0.000 NA
ATOM     25  C   UNL     1      52.435   9.416  11.020  0.00  0.00    +0.000 A 
ATOM     26  N   UNL     1      51.563   8.399  10.728  0.00  0.00    +0.000 N 
ATOM     27  C   UNL     1      50.428   8.156  11.465  0.00  0.00    +0.000 A 
ATOM     28  O   UNL     1      49.716   7.184  11.237  0.00  0.00    +0.000 OA
ATOM     29  C   UNL     1      50.184   9.109  12.531  0.00  0.00    +0.000 A 
ATOM     30  H   UNL     1      51.754   7.749   9.979  0.00  0.00    +0.000 HD
ENDBRANCH  17  20
ENDBRANCH   1  16
TORSDOF 5
ENDMDL
MODEL 9
REMARK VINA RESULT:    -6.567      2.346      3.441
REMARK INTER + INTRA:          -9.466
REMARK INTER:                  -8.418
REMARK INTRA:                  -1.048
REMARK UNBOUND:                -0.979
REMARK  Name = 
REMARK  6 active torsions:
REMARK  status: ('A' for Active; 'I' for Inactive)
REMARK    1  A    between atoms: C_1  and  C_2
REMARK    2  A    between atoms: C_6  and  C_7
REMARK    3  A    between atoms: C_7  and  C_8
REMARK    4  A    between atoms: C_11  and  C_12
REMARK    5  A    between atoms: C_12  and  N_13
REMARK    6  A    between atoms: C_14  and  C_16
REMARK                            x       y       z     vdW  Elec       q    Type
REMARK                         _______ _______ _______ _____ _____    ______ ____
ROOT
ATOM      1  C   UNL     1      49.183   7.885  13.998  0.00  0.00    +0.000 C 
ENDROOT
BRANCH   1   5
ATOM      2  C   UNL     1      45.909   6.371  11.783  0.00  0.00    +0.000 A 
ATOM      3  C   UNL     1      46.604   5.491  12.602  0.00  0.00    +0.000 A 
ATOM      4  C   UNL     1      47.680   5.971  13.341  0.00  0.00    +0.000 A 
ATOM      5  C   UNL     1      48.038   7.305  13.214  0.00  0.00    +0.000 A 
ATOM      6  N   UNL     1      47.352   8.136  12.397  0.00  0.00    +0.000 NA
ATOM      7  N   UNL     1      46.282   7.667  11.679  0.00  0.00    +0.000 NA
BRANCH   2   8
ATOM      8  C   UNL     1      44.678   5.937  11.028  0.00  0.00    +0.000 C 
BRANCH   8  14
ATOM      9  C   UNL     1      46.503   3.651   6.921  0.00  0.00    +0.000 C 
ATOM     10  C   UNL     1      45.703   3.585   8.188  0.00  0.00    +0.000 A 
ATOM     11  C   UNL     1      45.058   2.405   8.571  0.00  0.00    +0.000 A 
ATOM     12  C   UNL     1      44.307   2.363   9.745  0.00  0.00    +0.000 A 
ATOM     13  C   UNL     1      44.194   3.499  10.549  0.00  0.00    +0.000 A 
ATOM     14  C   UNL     1      44.838   4.691  10.190  0.00  0.00    +0.000 A 
ATOM     15  C   UNL     1      45.590   4.721   9.002  0.00  0.00    +0.000 A 
ENDBRANCH   8  14
ENDBRANCH   2   8
ENDBRANCH   1   5
BRANCH   1  16
ATOM     16  N   UNL     1      49.614   7.027  15.081  0.00  0.00    +0.000 N 
ATOM     17  C   UNL     1      49.310   7.274  16.394  0.00  0.00    +0.000 C 
ATOM     18  O   UNL     1      48.653   8.254  16.735  0.00  0.00    +0.000 OA
ATOM     19  H   UNL     1      50.331   6.345  14.850  0.00  0.00    +0.000 HD
BRANCH  17  20
ATOM     20  C   UNL     1      49.747   6.265  17.369  0.00  0.00    +0.000 A 
ATOM     21  C   UNL     1      48.838   5.752  18.285  0.00  0.00    +0.000 A 
ATOM     22  S   UNL     1      49.493   4.552  19.305  0.00  0.00    +0.000 S 
ATOM     23  C   UNL     1      51.028   4.705  18.590  0.00  0.00    +0.000 A 
ATOM     24  N   UNL     1      52.078   3.954  19.019  0.00  0.00    +0.000 NA
ATOM     25  C   UNL     1      53.191   4.196  18.411  0.00  0.00    +0.000 A 
ATOM     26  N   UNL     1      53.349   5.119  17.410  0.00  0.00    +0.000 N 
ATOM     27  C   UNL     1      52.306   5.860  16.909  0.00  0.00    +0.000 A 
ATOM     28  O   UNL     1      52.459   6.610  15.951  0.00  0.00    +0.000 OA
ATOM     29  C   UNL     1      51.036   5.646  17.575  0.00  0.00    +0.000 A 
ATOM     30  H   UNL     1      54.244   5.252  16.962  0.00  0.00    +0.000 HD
ENDBRANCH  17  20
ENDBRANCH   1  16
TORSDOF 5
ENDMDL
