MODEL 1
REMARK VINA RESULT:    -7.189      0.000      0.000
REMARK INTER + INTRA:         -11.880
REMARK INTER:                 -10.552
REMARK INTRA:                  -1.328
REMARK UNBOUND:                -1.328
REMARK  Name = 
REMARK  9 active torsions:
REMARK  status: ('A' for Active; 'I' for Inactive)
REMARK    1  A    between atoms: C_1  and  C_2
REMARK    2  A    between atoms: C_2  and  N_3
REMARK    3  A    between atoms: N_3  and  C_4
REMARK    4  A    between atoms: C_4  and  C_5
REMARK    5  A    between atoms: C_8  and  C_9
REMARK    6  A    between atoms: C_9  and  N_10
REMARK    7  A    between atoms: N_10  and  C_11
REMARK    8  A    between atoms: C_11  and  C_12
REMARK    9  A    between atoms: C_19  and  C_21
REMARK                            x       y       z     vdW  Elec       q    Type
REMARK                         _______ _______ _______ _____ _____    ______ ____
ROOT
ATOM      1  C   UNL     1      47.343   6.260  12.616  0.00  0.00    +0.000 C 
ENDROOT
BRANCH   1   2
ATOM      2  C   UNL     1      47.476   5.907  14.070  0.00  0.00    +0.000 A 
ATOM      3  C   UNL     1      46.914   4.709  14.543  0.00  0.00    +0.000 A 
ATOM      4  C   UNL     1      47.291   4.196  15.778  0.00  0.00    +0.000 A 
ATOM      5  C   UNL     1      48.227   4.865  16.573  0.00  0.00    +0.000 A 
ATOM      6  C   UNL     1      48.707   6.113  16.144  0.00  0.00    +0.000 A 
ATOM      7  C   UNL     1      48.332   6.634  14.903  0.00  0.00    +0.000 A 
BRANCH   5   8
ATOM      8  C   UNL     1      48.732   4.238  17.851  0.00  0.00    +0.000 C 
BRANCH   8   9
ATOM      9  N   UNL     1      49.647   3.132  17.569  0.00  0.00    +0.000 NA
ATOM     10  H   UNL     1      49.428   2.735  16.656  0.00  0.00    +0.000 HD
BRANCH   9  11
ATOM     11  C   UNL     1      51.033   3.603  17.526  0.00  0.00    +0.000 C 
BRANCH  11  12
ATOM     12  C   UNL     1      51.941   2.453  17.818  0.00  0.00    +0.000 A 
ATOM     13  C   UNL     1      53.130   2.444  18.521  0.00  0.00    +0.000 A 
ATOM     14  N   UNL     1      53.560   1.147  18.492  0.00  0.00    +0.000 N 
ATOM     15  C   UNL     1      52.641   0.425  17.785  0.00  0.00    +0.000 A 
ATOM     16  N   UNL     1      51.652   1.182  17.365  0.00  0.00    +0.000 NA
ATOM     17  H   UNL     1      54.401   0.782  18.916  0.00  0.00    +0.000 HD
ENDBRANCH  11  12
ENDBRANCH   9  11
ENDBRANCH   8   9
ENDBRANCH   5   8
ENDBRANCH   1   2
BRANCH   1  18
ATOM     18  N   UNL     1      46.391   7.258  12.150  0.00  0.00    +0.000 N 
ATOM     19  C   UNL     1      45.121   6.900  11.651  0.00  0.00    +0.000 C 
ATOM     20  O   UNL     1      44.331   7.754  11.252  0.00  0.00    +0.000 OA
BRANCH  19  21
ATOM     21  C   UNL     1      44.708   5.483  11.648  0.00  0.00    +0.000 A 
ATOM     22  C   UNL     1      43.991   4.849  12.651  0.00  0.00    +0.000 A 
ATOM     23  S   UNL     1      43.582   3.230  12.295  0.00  0.00    +0.000 S 
ATOM     24  C   UNL     1      44.209   3.374  10.726  0.00  0.00    +0.000 A 
ATOM     25  N   UNL     1      44.049   2.373   9.818  0.00  0.00    +0.000 NA
ATOM     26  C   UNL     1      44.520   2.652   8.643  0.00  0.00    +0.000 A 
ATOM     27  N   UNL     1      45.178   3.808   8.318  0.00  0.00    +0.000 N 
ATOM     28  C   UNL     1      45.488   4.784   9.246  0.00  0.00    +0.000 A 
ATOM     29  O   UNL     1      46.300   5.666   8.990  0.00  0.00    +0.000 OA
ATOM     30  C   UNL     1      44.844   4.586  10.527  0.00  0.00    +0.000 A 
ATOM     31  H   UNL     1      45.597   3.923   7.408  0.00  0.00    +0.000 HD
ENDBRANCH  19  21
BRANCH  18  33
ATOM     32  C   UNL     1      48.148   9.006  11.979  0.00  0.00    +0.000 C 
ATOM     33  C   UNL     1      46.689   8.687  12.273  0.00  0.00    +0.000 C 
ENDBRANCH  18  33
ENDBRANCH   1  18
TORSDOF 8
ENDMDL
MODEL 2
REMARK VINA RESULT:    -7.155      3.876      8.424
REMARK INTER + INTRA:         -11.829
REMARK INTER:                 -10.445
REMARK INTRA:                  -1.384
REMARK UNBOUND:                -1.328
REMARK  Name = 
REMARK  9 active torsions:
REMARK  status: ('A' for Active; 'I' for Inactive)
REMARK    1  A    between atoms: C_1  and  C_2
REMARK    2  A    between atoms: C_2  and  N_3
REMARK    3  A    between atoms: N_3  and  C_4
REMARK    4  A    between atoms: C_4  and  C_5
REMARK    5  A    between atoms: C_8  and  C_9
REMARK    6  A    between atoms: C_9  and  N_10
REMARK    7  A    between atoms: N_10  and  C_11
REMARK    8  A    between atoms: C_11  and  C_12
REMARK    9  A    between atoms: C_19  and  C_21
REMARK                            x       y       z     vdW  Elec       q    Type
REMARK                         _______ _______ _______ _____ _____    ______ ____
ROOT
ATOM      1  C   UNL     1      47.220   6.911  13.708  0.00  0.00    +0.000 C 
ENDROOT
BRANCH   1   2
ATOM      2  C   UNL     1      46.584   5.907  12.789  0.00  0.00    +0.000 A 
ATOM      3  C   UNL     1      46.285   4.622  13.273  0.00  0.00    +0.000 A 
ATOM      4  C   UNL     1      45.416   3.793  12.574  0.00  0.00    +0.000 A 
ATOM      5  C   UNL     1      44.834   4.219  11.376  0.00  0.00    +0.000 A 
ATOM      6  C   UNL     1      45.216   5.461  10.844  0.00  0.00    +0.000 A 
ATOM      7  C   UNL     1      46.088   6.299  11.543  0.00  0.00    +0.000 A 
BRANCH   5   8
ATOM      8  C   UNL     1      43.789   3.369  10.689  0.00  0.00    +0.000 C 
BRANCH   8   9
ATOM      9  N   UNL     1      44.083   3.225   9.263  0.00  0.00    +0.000 NA
ATOM     10  H   UNL     1      44.626   4.027   8.945  0.00  0.00    +0.000 HD
BRANCH   9  11
ATOM     11  C   UNL     1      44.884   2.024   9.018  0.00  0.00    +0.000 C 
BRANCH  11  12
ATOM     12  C   UNL     1      46.018   2.378   8.112  0.00  0.00    +0.000 A 
ATOM     13  C   UNL     1      46.382   3.617   7.621  0.00  0.00    +0.000 A 
ATOM     14  N   UNL     1      47.480   3.390   6.840  0.00  0.00    +0.000 N 
ATOM     15  C   UNL     1      47.741   2.049   6.876  0.00  0.00    +0.000 A 
ATOM     16  N   UNL     1      46.879   1.410   7.635  0.00  0.00    +0.000 NA
ATOM     17  H   UNL     1      48.008   4.082   6.328  0.00  0.00    +0.000 HD
ENDBRANCH  11  12
ENDBRANCH   9  11
ENDBRANCH   8   9
ENDBRANCH   5   8
ENDBRANCH   1   2
BRANCH   1  18
ATOM     18  N   UNL     1      48.665   7.069  13.794  0.00  0.00    +0.000 N 
ATOM     19  C   UNL     1      49.371   6.823  14.990  0.00  0.00    +0.000 C 
ATOM     20  O   UNL     1      50.591   6.971  15.051  0.00  0.00    +0.000 OA
BRANCH  19  21
ATOM     21  C   UNL     1      48.647   6.336  16.181  0.00  0.00    +0.000 A 
ATOM     22  C   UNL     1      48.267   5.023  16.414  0.00  0.00    +0.000 A 
ATOM     23  S   UNL     1      47.537   4.771  17.936  0.00  0.00    +0.000 S 
ATOM     24  C   UNL     1      47.851   6.372  18.397  0.00  0.00    +0.000 A 
ATOM     25  N   UNL     1      47.605   6.791  19.669  0.00  0.00    +0.000 NA
ATOM     26  C   UNL     1      47.958   8.018  19.893  0.00  0.00    +0.000 A 
ATOM     27  N   UNL     1      48.477   8.868  18.952  0.00  0.00    +0.000 N 
ATOM     28  C   UNL     1      48.604   8.527  17.619  0.00  0.00    +0.000 A 
ATOM     29  O   UNL     1      48.812   9.380  16.764  0.00  0.00    +0.000 OA
ATOM     30  C   UNL     1      48.373   7.121  17.360  0.00  0.00    +0.000 A 
ATOM     31  H   UNL     1      48.646   9.837  19.172  0.00  0.00    +0.000 HD
ENDBRANCH  19  21
BRANCH  18  33
ATOM     32  C   UNL     1      48.958   8.667  11.914  0.00  0.00    +0.000 C 
ATOM     33  C   UNL     1      49.450   7.402  12.604  0.00  0.00    +0.000 C 
ENDBRANCH  18  33
ENDBRANCH   1  18
TORSDOF 8
ENDMDL
MODEL 3
REMARK VINA RESULT:    -6.822      2.819      3.630
REMARK INTER + INTRA:         -11.341
REMARK INTER:                  -9.803
REMARK INTRA:                  -1.538
REMARK UNBOUND:                -1.328
REMARK  Name = 
REMARK  9 active torsions:
REMARK  status: ('A' for Active; 'I' for Inactive)
REMARK    1  A    between atoms: C_1  and  C_2
REMARK    2  A    between atoms: C_2  and  N_3
REMARK    3  A    between atoms: N_3  and  C_4
REMARK    4  A    between atoms: C_4  and  C_5
REMARK    5  A    between atoms: C_8  and  C_9
REMARK    6  A    between atoms: C_9  and  N_10
REMARK    7  A    between atoms: N_10  and  C_11
REMARK    8  A    between atoms: C_11  and  C_12
REMARK    9  A    between atoms: C_19  and  C_21
REMARK                            x       y       z     vdW  Elec       q    Type
REMARK                         _______ _______ _______ _____ _____    ______ ____
ROOT
ATOM      1  C   UNL     1      47.361   6.208  12.341  0.00  0.00    +0.000 C 
ENDROOT
BRANCH   1   2
ATOM      2  C   UNL     1      47.666   5.651  13.702  0.00  0.00    +0.000 A 
ATOM      3  C   UNL     1      48.349   6.447  14.636  0.00  0.00    +0.000 A 
ATOM      4  C   UNL     1      48.358   6.101  15.981  0.00  0.00    +0.000 A 
ATOM      5  C   UNL     1      47.696   4.952  16.426  0.00  0.00    +0.000 A 
ATOM      6  C   UNL     1      47.104   4.104  15.476  0.00  0.00    +0.000 A 
ATOM      7  C   UNL     1      47.091   4.448  14.122  0.00  0.00    +0.000 A 
BRANCH   5   8
ATOM      8  C   UNL     1      47.595   4.652  17.904  0.00  0.00    +0.000 C 
BRANCH   8   9
ATOM      9  N   UNL     1      46.582   5.491  18.544  0.00  0.00    +0.000 NA
ATOM     10  H   UNL     1      45.790   4.914  18.826  0.00  0.00    +0.000 HD
BRANCH   9  11
ATOM     11  C   UNL     1      47.120   6.123  19.751  0.00  0.00    +0.000 C 
BRANCH  11  12
ATOM     12  C   UNL     1      47.912   7.325  19.352  0.00  0.00    +0.000 A 
ATOM     13  C   UNL     1      47.466   8.530  18.845  0.00  0.00    +0.000 A 
ATOM     14  N   UNL     1      48.590   9.281  18.647  0.00  0.00    +0.000 N 
ATOM     15  C   UNL     1      49.663   8.524  19.029  0.00  0.00    +0.000 A 
ATOM     16  N   UNL     1      49.288   7.340  19.459  0.00  0.00    +0.000 NA
ATOM     17  H   UNL     1      48.628  10.224  18.288  0.00  0.00    +0.000 HD
ENDBRANCH  11  12
ENDBRANCH   9  11
ENDBRANCH   8   9
ENDBRANCH   5   8
ENDBRANCH   1   2
BRANCH   1  18
ATOM     18  N   UNL     1      46.307   7.191  12.130  0.00  0.00    +0.000 N 
ATOM     19  C   UNL     1      44.989   6.811  11.803  0.00  0.00    +0.000 C 
ATOM     20  O   UNL     1      44.111   7.652  11.618  0.00  0.00    +0.000 OA
BRANCH  19  21
ATOM     21  C   UNL     1      44.638   5.379  11.726  0.00  0.00    +0.000 A 
ATOM     22  C   UNL     1      43.945   4.664  12.690  0.00  0.00    +0.000 A 
ATOM     23  S   UNL     1      43.608   3.050  12.250  0.00  0.00    +0.000 S 
ATOM     24  C   UNL     1      44.233   3.300  10.694  0.00  0.00    +0.000 A 
ATOM     25  N   UNL     1      44.120   2.341   9.735  0.00  0.00    +0.000 NA
ATOM     26  C   UNL     1      44.582   2.700   8.579  0.00  0.00    +0.000 A 
ATOM     27  N   UNL     1      45.190   3.899   8.316  0.00  0.00    +0.000 N 
ATOM     28  C   UNL     1      45.455   4.838   9.295  0.00  0.00    +0.000 A 
ATOM     29  O   UNL     1      46.229   5.766   9.089  0.00  0.00    +0.000 OA
ATOM     30  C   UNL     1      44.816   4.547  10.561  0.00  0.00    +0.000 A 
ATOM     31  H   UNL     1      45.607   4.078   7.416  0.00  0.00    +0.000 HD
ENDBRANCH  19  21
BRANCH  18  33
ATOM     32  C   UNL     1      47.982   9.019  11.962  0.00  0.00    +0.000 C 
ATOM     33  C   UNL     1      46.564   8.617  12.345  0.00  0.00    +0.000 C 
ENDBRANCH  18  33
ENDBRANCH   1  18
TORSDOF 8
ENDMDL
MODEL 4
REMARK VINA RESULT:    -6.603      3.226      8.228
REMARK INTER + INTRA:         -11.019
REMARK INTER:                  -9.515
REMARK INTRA:                  -1.504
REMARK UNBOUND:                -1.328
REMARK  Name = 
REMARK  9 active torsions:
REMARK  status: ('A' for Active; 'I' for Inactive)
REMARK    1  A    between atoms: C_1  and  C_2
REMARK    2  A    between atoms: C_2  and  N_3
REMARK    3  A    between atoms: N_3  and  C_4
REMARK    4  A    between atoms: C_4  and  C_5
REMARK    5  A    between atoms: C_8  and  C_9
REMARK    6  A    between atoms: C_9  and  N_10
REMARK    7  A    between atoms: N_10  and  C_11
REMARK    8  A    between atoms: C_11  and  C_12
REMARK    9  A    between atoms: C_19  and  C_21
REMARK                            x       y       z     vdW  Elec       q    Type
REMARK                         _______ _______ _______ _____ _____    ______ ____
ROOT
ATOM      1  C   UNL     1      49.310   6.883  15.336  0.00  0.00    +0.000 C 
ENDROOT
BRANCH   1   2
ATOM      2  C   UNL     1      48.321   6.830  14.207  0.00  0.00    +0.000 A 
ATOM      3  C   UNL     1      47.474   5.715  14.085  0.00  0.00    +0.000 A 
ATOM      4  C   UNL     1      46.347   5.775  13.275  0.00  0.00    +0.000 A 
ATOM      5  C   UNL     1      46.042   6.939  12.561  0.00  0.00    +0.000 A 
ATOM      6  C   UNL     1      46.946   8.012  12.604  0.00  0.00    +0.000 A 
ATOM      7  C   UNL     1      48.080   7.958  13.418  0.00  0.00    +0.000 A 
BRANCH   5   8
ATOM      8  C   UNL     1      44.748   7.045  11.788  0.00  0.00    +0.000 C 
BRANCH   8   9
ATOM      9  N   UNL     1      43.682   6.283  12.438  0.00  0.00    +0.000 NA
ATOM     10  H   UNL     1      43.081   6.918  12.963  0.00  0.00    +0.000 HD
BRANCH   9  11
ATOM     11  C   UNL     1      42.848   5.606  11.443  0.00  0.00    +0.000 C 
BRANCH  11  12
ATOM     12  C   UNL     1      43.582   4.409  10.933  0.00  0.00    +0.000 A 
ATOM     13  C   UNL     1      44.037   3.307  11.631  0.00  0.00    +0.000 A 
ATOM     14  N   UNL     1      44.642   2.511  10.699  0.00  0.00    +0.000 N 
ATOM     15  C   UNL     1      44.541   3.141   9.491  0.00  0.00    +0.000 A 
ATOM     16  N   UNL     1      43.907   4.288   9.597  0.00  0.00    +0.000 NA
ATOM     17  H   UNL     1      45.082   1.618  10.866  0.00  0.00    +0.000 HD
ENDBRANCH  11  12
ENDBRANCH   9  11
ENDBRANCH   8   9
ENDBRANCH   5   8
ENDBRANCH   1   2
BRANCH   1  18
ATOM     18  N   UNL     1      49.018   7.574  16.584  0.00  0.00    +0.000 N 
ATOM     19  C   UNL     1      48.592   6.881  17.736  0.00  0.00    +0.000 C 
ATOM     20  O   UNL     1      48.340   7.478  18.781  0.00  0.00    +0.000 OA
BRANCH  19  21
ATOM     21  C   UNL     1      48.490   5.408  17.709  0.00  0.00    +0.000 A 
ATOM     22  C   UNL     1      47.332   4.683  17.472  0.00  0.00    +0.000 A 
ATOM     23  S   UNL     1      47.572   2.995  17.404  0.00  0.00    +0.000 S 
ATOM     24  C   UNL     1      49.252   3.187  17.527  0.00  0.00    +0.000 A 
ATOM     25  N   UNL     1      50.087   2.121  17.385  0.00  0.00    +0.000 NA
ATOM     26  C   UNL     1      51.344   2.432  17.435  0.00  0.00    +0.000 A 
ATOM     27  N   UNL     1      51.832   3.691  17.668  0.00  0.00    +0.000 N 
ATOM     28  C   UNL     1      51.019   4.769  17.961  0.00  0.00    +0.000 A 
ATOM     29  O   UNL     1      51.484   5.804  18.424  0.00  0.00    +0.000 OA
ATOM     30  C   UNL     1      49.611   4.502  17.758  0.00  0.00    +0.000 A 
ATOM     31  H   UNL     1      52.821   3.846  17.783  0.00  0.00    +0.000 HD
ENDBRANCH  19  21
BRANCH  18  33
ATOM     32  C   UNL     1      50.725   9.356  16.869  0.00  0.00    +0.000 C 
ATOM     33  C   UNL     1      49.250   9.014  16.711  0.00  0.00    +0.000 C 
ENDBRANCH  18  33
ENDBRANCH   1  18
TORSDOF 8
ENDMDL
MODEL 5
REMARK VINA RESULT:    -6.530      3.765      8.587
REMARK INTER + INTRA:         -10.912
REMARK INTER:                  -9.804
REMARK INTRA:                  -1.108
REMARK UNBOUND:                -1.328
REMARK  Name = 
REMARK  9 active torsions:
REMARK  status: ('A' for Active; 'I' for Inactive)
REMARK    1  A    between atoms: C_1  and  C_2
REMARK    2  A    between atoms: C_2  and  N_3
REMARK    3  A    between atoms: N_3  and  C_4
REMARK    4  A    between atoms: C_4  and  C_5
REMARK    5  A    between atoms: C_8  and  C_9
REMARK    6  A    between atoms: C_9  and  N_10
REMARK    7  A    between atoms: N_10  and  C_11
REMARK    8  A    between atoms: C_11  and  C_12
REMARK    9  A    between atoms: C_19  and  C_21
REMARK                            x       y       z     vdW  Elec       q    Type
REMARK                         _______ _______ _______ _____ _____    ______ ____
ROOT
ATOM      1  C   UNL     1      47.233   7.309  13.997  0.00  0.00    +0.000 C 
ENDROOT
BRANCH   1   2
ATOM      2  C   UNL     1      46.269   6.589  13.096  0.00  0.00    +0.000 A 
ATOM      3  C   UNL     1      45.711   7.268  12.000  0.00  0.00    +0.000 A 
ATOM      4  C   UNL     1      45.091   6.562  10.978  0.00  0.00    +0.000 A 
ATOM      5  C   UNL     1      45.004   5.166  11.026  0.00  0.00    +0.000 A 
ATOM      6  C   UNL     1      45.470   4.501  12.171  0.00  0.00    +0.000 A 
ATOM      7  C   UNL     1      46.095   5.206  13.202  0.00  0.00    +0.000 A 
BRANCH   5   8
ATOM      8  C   UNL     1      44.449   4.394   9.852  0.00  0.00    +0.000 C 
BRANCH   8   9
ATOM      9  N   UNL     1      45.255   4.611   8.650  0.00  0.00    +0.000 NA
ATOM     10  H   UNL     1      46.242   4.496   8.878  0.00  0.00    +0.000 HD
BRANCH   9  11
ATOM     11  C   UNL     1      44.922   3.627   7.618  0.00  0.00    +0.000 C 
BRANCH  11  12
ATOM     12  C   UNL     1      46.188   3.041   7.084  0.00  0.00    +0.000 A 
ATOM     13  C   UNL     1      46.913   3.414   5.969  0.00  0.00    +0.000 A 
ATOM     14  N   UNL     1      47.979   2.559   5.926  0.00  0.00    +0.000 N 
ATOM     15  C   UNL     1      47.869   1.710   6.992  0.00  0.00    +0.000 A 
ATOM     16  N   UNL     1      46.801   1.975   7.710  0.00  0.00    +0.000 NA
ATOM     17  H   UNL     1      48.718   2.553   5.238  0.00  0.00    +0.000 HD
ENDBRANCH  11  12
ENDBRANCH   9  11
ENDBRANCH   8   9
ENDBRANCH   5   8
ENDBRANCH   1   2
BRANCH   1  18
ATOM     18  N   UNL     1      48.670   7.281  13.766  0.00  0.00    +0.000 N 
ATOM     19  C   UNL     1      49.593   7.635  14.772  0.00  0.00    +0.000 C 
ATOM     20  O   UNL     1      50.804   7.616  14.560  0.00  0.00    +0.000 OA
BRANCH  19  21
ATOM     21  C   UNL     1      49.106   7.990  16.120  0.00  0.00    +0.000 A 
ATOM     22  C   UNL     1      48.734   9.259  16.535  0.00  0.00    +0.000 A 
ATOM     23  S   UNL     1      48.115   9.316  18.125  0.00  0.00    +0.000 S 
ATOM     24  C   UNL     1      48.174   7.626  18.252  0.00  0.00    +0.000 A 
ATOM     25  N   UNL     1      47.643   6.989  19.331  0.00  0.00    +0.000 NA
ATOM     26  C   UNL     1      47.700   5.697  19.258  0.00  0.00    +0.000 A 
ATOM     27  N   UNL     1      48.286   4.996  18.237  0.00  0.00    +0.000 N 
ATOM     28  C   UNL     1      48.963   5.605  17.198  0.00  0.00    +0.000 A 
ATOM     29  O   UNL     1      49.697   4.962  16.457  0.00  0.00    +0.000 OA
ATOM     30  C   UNL     1      48.785   7.042  17.158  0.00  0.00    +0.000 A 
ATOM     31  H   UNL     1      48.374   3.993  18.286  0.00  0.00    +0.000 HD
ENDBRANCH  19  21
BRANCH  18  33
ATOM     32  C   UNL     1      49.415   7.903  11.479  0.00  0.00    +0.000 C 
ATOM     33  C   UNL     1      49.212   6.790  12.497  0.00  0.00    +0.000 C 
ENDBRANCH  18  33
ENDBRANCH   1  18
TORSDOF 8
ENDMDL
MODEL 6
REMARK VINA RESULT:    -6.475      3.035      8.299
REMARK INTER + INTRA:         -10.831
REMARK INTER:                  -9.526
REMARK INTRA:                  -1.305
REMARK UNBOUND:                -1.328
REMARK  Name = 
REMARK  9 active torsions:
REMARK  status: ('A' for Active; 'I' for Inactive)
REMARK    1  A    between atoms: C_1  and  C_2
REMARK    2  A    between atoms: C_2  and  N_3
REMARK    3  A    between atoms: N_3  and  C_4
REMARK    4  A    between atoms: C_4  and  C_5
REMARK    5  A    between atoms: C_8  and  C_9
REMARK    6  A    between atoms: C_9  and  N_10
REMARK    7  A    between atoms: N_10  and  C_11
REMARK    8  A    between atoms: C_11  and  C_12
REMARK    9  A    between atoms: C_19  and  C_21
REMARK                            x       y       z     vdW  Elec       q    Type
REMARK                         _______ _______ _______ _____ _____    ______ ____
ROOT
ATOM      1  C   UNL     1      48.655   6.484  14.109  0.00  0.00    +0.000 C 
ENDROOT
BRANCH   1   2
ATOM      2  C   UNL     1      47.530   6.008  13.234  0.00  0.00    +0.000 A 
ATOM      3  C   UNL     1      46.585   5.108  13.756  0.00  0.00    +0.000 A 
ATOM      4  C   UNL     1      45.374   4.907  13.106  0.00  0.00    +0.000 A 
ATOM      5  C   UNL     1      45.080   5.587  11.919  0.00  0.00    +0.000 A 
ATOM      6  C   UNL     1      46.068   6.404  11.347  0.00  0.00    +0.000 A 
ATOM      7  C   UNL     1      47.287   6.611  11.997  0.00  0.00    +0.000 A 
BRANCH   5   8
ATOM      8  C   UNL     1      43.712   5.466  11.288  0.00  0.00    +0.000 C 
BRANCH   8   9
ATOM      9  N   UNL     1      43.797   4.854   9.962  0.00  0.00    +0.000 NA
ATOM     10  H   UNL     1      44.544   5.298   9.429  0.00  0.00    +0.000 HD
BRANCH   9  11
ATOM     11  C   UNL     1      44.117   3.429  10.069  0.00  0.00    +0.000 C 
BRANCH  11  12
ATOM     12  C   UNL     1      45.127   3.082   9.024  0.00  0.00    +0.000 A 
ATOM     13  C   UNL     1      45.748   3.910   8.109  0.00  0.00    +0.000 A 
ATOM     14  N   UNL     1      46.575   3.097   7.386  0.00  0.00    +0.000 N 
ATOM     15  C   UNL     1      46.432   1.828   7.871  0.00  0.00    +0.000 A 
ATOM     16  N   UNL     1      45.567   1.785   8.860  0.00  0.00    +0.000 NA
ATOM     17  H   UNL     1      47.185   3.378   6.632  0.00  0.00    +0.000 HD
ENDBRANCH  11  12
ENDBRANCH   9  11
ENDBRANCH   8   9
ENDBRANCH   5   8
ENDBRANCH   1   2
BRANCH   1  18
ATOM     18  N   UNL     1      48.484   7.576  15.057  0.00  0.00    +0.000 N 
ATOM     19  C   UNL     1      48.520   7.365  16.451  0.00  0.00    +0.000 C 
ATOM     20  O   UNL     1      48.365   8.295  17.239  0.00  0.00    +0.000 OA
BRANCH  19  21
ATOM     21  C   UNL     1      48.794   6.014  16.979  0.00  0.00    +0.000 A 
ATOM     22  C   UNL     1      47.861   4.998  17.122  0.00  0.00    +0.000 A 
ATOM     23  S   UNL     1      48.520   3.520  17.666  0.00  0.00    +0.000 S 
ATOM     24  C   UNL     1      50.095   4.142  17.573  0.00  0.00    +0.000 A 
ATOM     25  N   UNL     1      51.175   3.337  17.770  0.00  0.00    +0.000 NA
ATOM     26  C   UNL     1      52.312   3.935  17.600  0.00  0.00    +0.000 A 
ATOM     27  N   UNL     1      52.461   5.266  17.309  0.00  0.00    +0.000 N 
ATOM     28  C   UNL     1      51.398   6.145  17.246  0.00  0.00    +0.000 A 
ATOM     29  O   UNL     1      51.577   7.358  17.254  0.00  0.00    +0.000 OA
ATOM     30  C   UNL     1      50.106   5.491  17.271  0.00  0.00    +0.000 A 
ATOM     31  H   UNL     1      53.376   5.686  17.279  0.00  0.00    +0.000 HD
ENDBRANCH  19  21
BRANCH  18  33
ATOM     32  C   UNL     1      49.430   9.323  13.565  0.00  0.00    +0.000 C 
ATOM     33  C   UNL     1      48.363   8.958  14.588  0.00  0.00    +0.000 C 
ENDBRANCH  18  33
ENDBRANCH   1  18
TORSDOF 8
ENDMDL
MODEL 7
REMARK VINA RESULT:    -6.051      3.718      8.618
REMARK INTER + INTRA:         -10.208
REMARK INTER:                  -8.703
REMARK INTRA:                  -1.505
REMARK UNBOUND:                -1.328
REMARK  Name = 
REMARK  9 active torsions:
REMARK  status: ('A' for Active; 'I' for Inactive)
REMARK    1  A    between atoms: C_1  and  C_2
REMARK    2  A    between atoms: C_2  and  N_3
REMARK    3  A    between atoms: N_3  and  C_4
REMARK    4  A    between atoms: C_4  and  C_5
REMARK    5  A    between atoms: C_8  and  C_9
REMARK    6  A    between atoms: C_9  and  N_10
REMARK    7  A    between atoms: N_10  and  C_11
REMARK    8  A    between atoms: C_11  and  C_12
REMARK    9  A    between atoms: C_19  and  C_21
REMARK                            x       y       z     vdW  Elec       q    Type
REMARK                         _______ _______ _______ _____ _____    ______ ____
ROOT
ATOM      1  C   UNL     1      49.567   7.070  17.179  0.00  0.00    +0.000 C 
ENDROOT
BRANCH   1   2
ATOM      2  C   UNL     1      48.993   7.172  15.795  0.00  0.00    +0.000 A 
ATOM      3  C   UNL     1      48.489   6.018  15.171  0.00  0.00    +0.000 A 
ATOM      4  C   UNL     1      47.668   6.124  14.055  0.00  0.00    +0.000 A 
ATOM      5  C   UNL     1      47.338   7.378  13.530  0.00  0.00    +0.000 A 
ATOM      6  C   UNL     1      47.928   8.522  14.092  0.00  0.00    +0.000 A 
ATOM      7  C   UNL     1      48.753   8.421  15.215  0.00  0.00    +0.000 A 
BRANCH   5   8
ATOM      8  C   UNL     1      46.341   7.495  12.400  0.00  0.00    +0.000 C 
BRANCH   8   9
ATOM      9  N   UNL     1      45.053   6.910  12.773  0.00  0.00    +0.000 NA
ATOM     10  H   UNL     1      44.424   7.647  13.090  0.00  0.00    +0.000 HD
BRANCH   9  11
ATOM     11  C   UNL     1      44.426   6.260  11.620  0.00  0.00    +0.000 C 
BRANCH  11  12
ATOM     12  C   UNL     1      44.347   4.791  11.880  0.00  0.00    +0.000 A 
ATOM     13  C   UNL     1      45.340   3.930  12.304  0.00  0.00    +0.000 A 
ATOM     14  N   UNL     1      44.748   2.701  12.380  0.00  0.00    +0.000 N 
ATOM     15  C   UNL     1      43.442   2.849  12.004  0.00  0.00    +0.000 A 
ATOM     16  N   UNL     1      43.168   4.097  11.697  0.00  0.00    +0.000 NA
ATOM     17  H   UNL     1      45.188   1.838  12.664  0.00  0.00    +0.000 HD
ENDBRANCH  11  12
ENDBRANCH   9  11
ENDBRANCH   8   9
ENDBRANCH   5   8
ENDBRANCH   1   2
BRANCH   1  18
ATOM     18  N   UNL     1      48.805   6.515  18.290  0.00  0.00    +0.000 N 
ATOM     19  C   UNL     1      49.292   5.440  19.062  0.00  0.00    +0.000 C 
ATOM     20  O   UNL     1      48.634   4.975  19.991  0.00  0.00    +0.000 OA
BRANCH  19  21
ATOM     21  C   UNL     1      50.633   4.888  18.786  0.00  0.00    +0.000 A 
ATOM     22  C   UNL     1      51.829   5.389  19.277  0.00  0.00    +0.000 A 
ATOM     23  S   UNL     1      53.197   4.459  18.857  0.00  0.00    +0.000 S 
ATOM     24  C   UNL     1      52.220   3.271  18.143  0.00  0.00    +0.000 A 
ATOM     25  N   UNL     1      52.757   2.100  17.703  0.00  0.00    +0.000 NA
ATOM     26  C   UNL     1      51.881   1.262  17.245  0.00  0.00    +0.000 A 
ATOM     27  N   UNL     1      50.538   1.512  17.140  0.00  0.00    +0.000 N 
ATOM     28  C   UNL     1      49.976   2.738  17.439  0.00  0.00    +0.000 A 
ATOM     29  O   UNL     1      48.836   3.015  17.085  0.00  0.00    +0.000 OA
ATOM     30  C   UNL     1      50.890   3.645  18.102  0.00  0.00    +0.000 A 
ATOM     31  H   UNL     1      49.925   0.850  16.692  0.00  0.00    +0.000 HD
ENDBRANCH  19  21
BRANCH  18  33
ATOM     32  C   UNL     1      47.677   8.609  19.005  0.00  0.00    +0.000 C 
ATOM     33  C   UNL     1      47.540   7.123  18.703  0.00  0.00    +0.000 C 
ENDBRANCH  18  33
ENDBRANCH   1  18
TORSDOF 8
ENDMDL
MODEL 8
REMARK VINA RESULT:    -5.864      3.203      4.504
REMARK INTER + INTRA:          -9.935
REMARK INTER:                  -7.994
REMARK INTRA:                  -1.941
REMARK UNBOUND:                -1.328
REMARK  Name = 
REMARK  9 active torsions:
REMARK  status: ('A' for Active; 'I' for Inactive)
REMARK    1  A    between atoms: C_1  and  C_2
REMARK    2  A    between atoms: C_2  and  N_3
REMARK    3  A    between atoms: N_3  and  C_4
REMARK    4  A    between atoms: C_4  and  C_5
REMARK    5  A    between atoms: C_8  and  C_9
REMARK    6  A    between atoms: C_9  and  N_10
REMARK    7  A    between atoms: N_10  and  C_11
REMARK    8  A    between atoms: C_11  and  C_12
REMARK    9  A    between atoms: C_19  and  C_21
REMARK                            x       y       z     vdW  Elec       q    Type
REMARK                         _______ _______ _______ _____ _____    ______ ____
ROOT
ATOM      1  C   UNL     1      48.655   9.428  14.840  0.00  0.00    +0.000 C 
ENDROOT
BRANCH   1   2
ATOM      2  C   UNL     1      48.753   8.925  16.253  0.00  0.00    +0.000 A 
ATOM      3  C   UNL     1      47.897   9.454  17.233  0.00  0.00    +0.000 A 
ATOM      4  C   UNL     1      47.730   8.798  18.447  0.00  0.00    +0.000 A 
ATOM      5  C   UNL     1      48.416   7.609  18.715  0.00  0.00    +0.000 A 
ATOM      6  C   UNL     1      49.349   7.141  17.775  0.00  0.00    +0.000 A 
ATOM      7  C   UNL     1      49.520   7.796  16.553  0.00  0.00    +0.000 A 
BRANCH   5   8
ATOM      8  C   UNL     1      48.131   6.830  19.979  0.00  0.00    +0.000 C 
BRANCH   8   9
ATOM      9  N   UNL     1      47.398   5.599  19.684  0.00  0.00    +0.000 NA
ATOM     10  H   UNL     1      46.961   5.675  18.767  0.00  0.00    +0.000 HD
BRANCH   9  11
ATOM     11  C   UNL     1      48.307   4.451  19.647  0.00  0.00    +0.000 C 
BRANCH  11  12
ATOM     12  C   UNL     1      48.200   3.795  18.309  0.00  0.00    +0.000 A 
ATOM     13  C   UNL     1      47.222   3.945  17.346  0.00  0.00    +0.000 A 
ATOM     14  N   UNL     1      47.594   3.122  16.319  0.00  0.00    +0.000 N 
ATOM     15  C   UNL     1      48.759   2.509  16.685  0.00  0.00    +0.000 A 
ATOM     16  N   UNL     1      49.152   2.893  17.878  0.00  0.00    +0.000 NA
ATOM     17  H   UNL     1      47.103   2.990  15.447  0.00  0.00    +0.000 HD
ENDBRANCH  11  12
ENDBRANCH   9  11
ENDBRANCH   8   9
ENDBRANCH   5   8
ENDBRANCH   1   2
BRANCH   1  18
ATOM     18  N   UNL     1      49.462   8.868  13.765  0.00  0.00    +0.000 N 
ATOM     19  C   UNL     1      48.885   8.153  12.696  0.00  0.00    +0.000 C 
ATOM     20  O   UNL     1      49.580   7.678  11.800  0.00  0.00    +0.000 OA
BRANCH  19  21
ATOM     21  C   UNL     1      47.418   8.008  12.619  0.00  0.00    +0.000 A 
ATOM     22  C   UNL     1      46.549   8.901  12.011  0.00  0.00    +0.000 A 
ATOM     23  S   UNL     1      44.920   8.390  12.004  0.00  0.00    +0.000 S 
ATOM     24  C   UNL     1      45.346   6.889  12.667  0.00  0.00    +0.000 A 
ATOM     25  N   UNL     1      44.424   5.896  12.792  0.00  0.00    +0.000 NA
ATOM     26  C   UNL     1      44.909   4.785  13.250  0.00  0.00    +0.000 A 
ATOM     27  N   UNL     1      46.208   4.602  13.644  0.00  0.00    +0.000 N 
ATOM     28  C   UNL     1      47.137   5.624  13.671  0.00  0.00    +0.000 A 
ATOM     29  O   UNL     1      48.198   5.500  14.272  0.00  0.00    +0.000 OA
ATOM     30  C   UNL     1      46.682   6.834  13.018  0.00  0.00    +0.000 A 
ATOM     31  H   UNL     1      46.498   3.738  14.075  0.00  0.00    +0.000 HD
ENDBRANCH  19  21
BRANCH  18  33
ATOM     32  C   UNL     1      51.273  10.527  14.140  0.00  0.00    +0.000 C 
ATOM     33  C   UNL     1      50.905   9.114  13.711  0.00  0.00    +0.000 C 
ENDBRANCH  18  33
ENDBRANCH   1  18
TORSDOF 8
ENDMDL
MODEL 9
REMARK VINA RESULT:    -5.612      4.305      5.177
REMARK INTER + INTRA:          -9.564
REMARK INTER:                  -8.457
REMARK INTRA:                  -1.107
REMARK UNBOUND:                -1.328
REMARK  Name = 
REMARK  9 active torsions:
REMARK  status: ('A' for Active; 'I' for Inactive)
REMARK    1  A    between atoms: C_1  and  C_2
REMARK    2  A    between atoms: C_2  and  N_3
REMARK    3  A    between atoms: N_3  and  C_4
REMARK    4  A    between atoms: C_4  and  C_5
REMARK    5  A    between atoms: C_8  and  C_9
REMARK    6  A    between atoms: C_9  and  N_10
REMARK    7  A    between atoms: N_10  and  C_11
REMARK    8  A    between atoms: C_11  and  C_12
REMARK    9  A    between atoms: C_19  and  C_21
REMARK                            x       y       z     vdW  Elec       q    Type
REMARK                         _______ _______ _______ _____ _____    ______ ____
ROOT
ATOM      1  C   UNL     1      46.403   6.476  12.423  0.00  0.00    +0.000 C 
ENDROOT
BRANCH   1   2
ATOM      2  C   UNL     1      47.701   7.215  12.578  0.00  0.00    +0.000 A 
ATOM      3  C   UNL     1      48.320   7.265  13.839  0.00  0.00    +0.000 A 
ATOM      4  C   UNL     1      49.651   7.643  13.953  0.00  0.00    +0.000 A 
ATOM      5  C   UNL     1      50.395   7.987  12.820  0.00  0.00    +0.000 A 
ATOM      6  C   UNL     1      49.745   8.036  11.576  0.00  0.00    +0.000 A 
ATOM      7  C   UNL     1      48.407   7.656  11.454  0.00  0.00    +0.000 A 
BRANCH   5   8
ATOM      8  C   UNL     1      51.876   8.269  12.933  0.00  0.00    +0.000 C 
BRANCH   8   9
ATOM      9  N   UNL     1      52.486   8.416  11.611  0.00  0.00    +0.000 NA
ATOM     10  H   UNL     1      52.730   9.394  11.456  0.00  0.00    +0.000 HD
BRANCH   9  11
ATOM     11  C   UNL     1      53.720   7.632  11.520  0.00  0.00    +0.000 C 
BRANCH  11  12
ATOM     12  C   UNL     1      53.651   6.765  10.306  0.00  0.00    +0.000 A 
ATOM     13  C   UNL     1      54.204   5.516  10.099  0.00  0.00    +0.000 A 
ATOM     14  N   UNL     1      53.849   5.167   8.827  0.00  0.00    +0.000 N 
ATOM     15  C   UNL     1      53.109   6.193   8.309  0.00  0.00    +0.000 A 
ATOM     16  N   UNL     1      52.970   7.171   9.176  0.00  0.00    +0.000 NA
ATOM     17  H   UNL     1      54.084   4.307   8.351  0.00  0.00    +0.000 HD
ENDBRANCH  11  12
ENDBRANCH   9  11
ENDBRANCH   8   9
ENDBRANCH   5   8
ENDBRANCH   1   2
BRANCH   1  18
ATOM     18  N   UNL     1      45.166   7.158  12.068  0.00  0.00    +0.000 N 
ATOM     19  C   UNL     1      44.056   6.463  11.544  0.00  0.00    +0.000 C 
ATOM     20  O   UNL     1      43.021   7.053  11.240  0.00  0.00    +0.000 OA
BRANCH  19  21
ATOM     21  C   UNL     1      44.115   4.995  11.397  0.00  0.00    +0.000 A 
ATOM     22  C   UNL     1      43.468   4.076  12.208  0.00  0.00    +0.000 A 
ATOM     23  S   UNL     1      43.654   2.455  11.707  0.00  0.00    +0.000 S 
ATOM     24  C   UNL     1      44.469   2.940  10.302  0.00  0.00    +0.000 A 
ATOM     25  N   UNL     1      44.791   2.036   9.336  0.00  0.00    +0.000 NA
ATOM     26  C   UNL     1      45.348   2.562   8.291  0.00  0.00    +0.000 A 
ATOM     27  N   UNL     1      45.658   3.890   8.154  0.00  0.00    +0.000 N 
ATOM     28  C   UNL     1      45.481   4.812   9.167  0.00  0.00    +0.000 A 
ATOM     29  O   UNL     1      46.007   5.917   9.116  0.00  0.00    +0.000 OA
ATOM     30  C   UNL     1      44.717   4.300  10.286  0.00  0.00    +0.000 A 
ATOM     31  H   UNL     1      46.172   4.217   7.352  0.00  0.00    +0.000 HD
ENDBRANCH  19  21
BRANCH  18  33
ATOM     32  C   UNL     1      45.096   9.434  11.075  0.00  0.00    +0.000 C 
ATOM     33  C   UNL     1      45.000   8.588  12.337  0.00  0.00    +0.000 C 
ENDBRANCH  18  33
ENDBRANCH   1  18
TORSDOF 8
ENDMDL
