MODEL 1
REMARK VINA RESULT:    -8.272      0.000      0.000
REMARK INTER + INTRA:         -10.173
REMARK INTER:                  -9.723
REMARK INTRA:                  -0.450
REMARK UNBOUND:                -0.450
REMARK  Name = 
REMARK  5 active torsions:
REMARK  status: ('A' for Active; 'I' for Inactive)
REMARK    1  A    between atoms: C_1  and  C_2
REMARK    2  A    between atoms: N_6  and  C_7
REMARK    3  A    between atoms: C_7  and  C_8
REMARK    4  A    between atoms: C_10  and  C_11
REMARK    5  A    between atoms: C_15  and  C_16
REMARK                            x       y       z     vdW  Elec       q    Type
REMARK                         _______ _______ _______ _____ _____    ______ ____
ROOT
ATOM      1  C   UNL     1      44.678   4.946  11.895  0.00  0.00    +0.000 A 
ATOM      2  C   UNL     1      45.433   6.087  11.636  0.00  0.00    +0.000 A 
ATOM      3  C   UNL     1      46.520   6.420  12.460  0.00  0.00    +0.000 A 
ATOM      4  C   UNL     1      46.792   5.560  13.532  0.00  0.00    +0.000 A 
ATOM      5  C   UNL     1      45.988   4.448  13.730  0.00  0.00    +0.000 A 
ATOM      6  N   UNL     1      44.939   4.130  12.947  0.00  0.00    +0.000 NA
ENDROOT
BRANCH   3   7
ATOM      7  C   UNL     1      47.335   7.629  12.211  0.00  0.00    +0.000 A 
ATOM      8  C   UNL     1      46.793   8.918  12.280  0.00  0.00    +0.000 A 
ATOM      9  C   UNL     1      47.605  10.012  12.018  0.00  0.00    +0.000 A 
ATOM     10  N   UNL     1      48.910   9.919  11.701  0.00  0.00    +0.000 NA
ATOM     11  C   UNL     1      49.441   8.680  11.640  0.00  0.00    +0.000 A 
ATOM     12  C   UNL     1      50.891   8.562  11.276  0.00  0.00    +0.000 C 
ATOM     13  C   UNL     1      48.696   7.530  11.884  0.00  0.00    +0.000 A 
ENDBRANCH   3   7
BRANCH   1  14
ATOM     14  C   UNL     1      43.519   4.578  10.986  0.00  0.00    +0.000 C 
BRANCH  14  20
ATOM     15  C   UNL     1      47.283   1.267   6.890  0.00  0.00    +0.000 C 
ATOM     16  C   UNL     1      46.395   2.181   7.659  0.00  0.00    +0.000 A 
ATOM     17  C   UNL     1      45.669   1.787   8.760  0.00  0.00    +0.000 A 
ATOM     18  N   UNL     1      44.846   2.607   9.444  0.00  0.00    +0.000 NA
ATOM     19  C   UNL     1      44.731   3.867   9.002  0.00  0.00    +0.000 A 
ATOM     20  N   UNL     1      43.846   4.745   9.584  0.00  0.00    +0.000 N 
ATOM     21  N   UNL     1      45.414   4.351   7.958  0.00  0.00    +0.000 NA
ATOM     22  C   UNL     1      46.228   3.499   7.307  0.00  0.00    +0.000 A 
ATOM     23  H   UNL     1      44.098   5.687   9.309  0.00  0.00    +0.000 HD
ENDBRANCH  14  20
ENDBRANCH   1  14
TORSDOF 3
ENDMDL
MODEL 2
REMARK VINA RESULT:    -8.245      2.485      3.639
REMARK INTER + INTRA:         -10.141
REMARK INTER:                  -9.729
REMARK INTRA:                  -0.412
REMARK UNBOUND:                -0.450
REMARK  Name = 
REMARK  5 active torsions:
REMARK  status: ('A' for Active; 'I' for Inactive)
REMARK    1  A    between atoms: C_1  and  C_2
REMARK    2  A    between atoms: N_6  and  C_7
REMARK    3  A    between atoms: C_7  and  C_8
REMARK    4  A    between atoms: C_10  and  C_11
REMARK    5  A    between atoms: C_15  and  C_16
REMARK                            x       y       z     vdW  Elec       q    Type
REMARK                         _______ _______ _______ _____ _____    ______ ____
ROOT
ATOM      1  C   UNL     1      44.290   4.325  11.164  0.00  0.00    +0.000 A 
ATOM      2  C   UNL     1      45.257   4.269  12.164  0.00  0.00    +0.000 A 
ATOM      3  C   UNL     1      45.642   5.436  12.843  0.00  0.00    +0.000 A 
ATOM      4  C   UNL     1      45.014   6.629  12.463  0.00  0.00    +0.000 A 
ATOM      5  C   UNL     1      44.068   6.605  11.450  0.00  0.00    +0.000 A 
ATOM      6  N   UNL     1      43.702   5.490  10.790  0.00  0.00    +0.000 NA
ENDROOT
BRANCH   3   7
ATOM      7  C   UNL     1      46.670   5.407  13.906  0.00  0.00    +0.000 A 
ATOM      8  C   UNL     1      47.661   6.390  14.009  0.00  0.00    +0.000 A 
ATOM      9  C   UNL     1      48.609   6.298  15.017  0.00  0.00    +0.000 A 
ATOM     10  N   UNL     1      48.640   5.308  15.931  0.00  0.00    +0.000 NA
ATOM     11  C   UNL     1      47.683   4.361  15.842  0.00  0.00    +0.000 A 
ATOM     12  C   UNL     1      47.712   3.247  16.845  0.00  0.00    +0.000 C 
ATOM     13  C   UNL     1      46.699   4.377  14.859  0.00  0.00    +0.000 A 
ENDBRANCH   3   7
BRANCH   1  14
ATOM     14  C   UNL     1      43.860   3.056  10.449  0.00  0.00    +0.000 C 
BRANCH  14  20
ATOM     15  C   UNL     1      47.650   2.514   5.229  0.00  0.00    +0.000 C 
ATOM     16  C   UNL     1      46.890   2.451   6.507  0.00  0.00    +0.000 A 
ATOM     17  C   UNL     1      46.221   3.525   7.048  0.00  0.00    +0.000 A 
ATOM     18  N   UNL     1      45.551   3.477   8.218  0.00  0.00    +0.000 NA
ATOM     19  C   UNL     1      45.563   2.313   8.882  0.00  0.00    +0.000 A 
ATOM     20  N   UNL     1      44.984   2.201  10.125  0.00  0.00    +0.000 N 
ATOM     21  N   UNL     1      46.162   1.207   8.426  0.00  0.00    +0.000 NA
ATOM     22  C   UNL     1      46.814   1.299   7.252  0.00  0.00    +0.000 A 
ATOM     23  H   UNL     1      44.851   1.217  10.330  0.00  0.00    +0.000 HD
ENDBRANCH  14  20
ENDBRANCH   1  14
TORSDOF 3
ENDMDL
MODEL 3
REMARK VINA RESULT:    -8.199      0.328      1.410
REMARK INTER + INTRA:         -10.087
REMARK INTER:                  -9.636
REMARK INTRA:                  -0.451
REMARK UNBOUND:                -0.450
REMARK  Name = 
REMARK  5 active torsions:
REMARK  status: ('A' for Active; 'I' for Inactive)
REMARK    1  A    between atoms: C_1  and  C_2
REMARK    2  A    between atoms: N_6  and  C_7
REMARK    3  A    between atoms: C_7  and  C_8
REMARK    4  A    between atoms: C_10  and  C_11
REMARK    5  A    between atoms: C_15  and  C_16
REMARK                            x       y       z     vdW  Elec       q    Type
REMARK                         _______ _______ _______ _____ _____    ______ ____
ROOT
ATOM      1  C   UNL     1      44.776   4.942  11.959  0.00  0.00    +0.000 A 
ATOM      2  C   UNL     1      45.568   6.053  11.679  0.00  0.00    +0.000 A 
ATOM      3  C   UNL     1      46.670   6.359  12.494  0.00  0.00    +0.000 A 
ATOM      4  C   UNL     1      46.918   5.504  13.576  0.00  0.00    +0.000 A 
ATOM      5  C   UNL     1      46.077   4.425  13.794  0.00  0.00    +0.000 A 
ATOM      6  N   UNL     1      45.014   4.132  13.021  0.00  0.00    +0.000 NA
ENDROOT
BRANCH   3   7
ATOM      7  C   UNL     1      47.526   7.534  12.224  0.00  0.00    +0.000 A 
ATOM      8  C   UNL     1      48.907   7.418  12.024  0.00  0.00    +0.000 A 
ATOM      9  C   UNL     1      49.659   8.560  11.793  0.00  0.00    +0.000 A 
ATOM     10  N   UNL     1      49.141   9.802  11.739  0.00  0.00    +0.000 NA
ATOM     11  C   UNL     1      47.809   9.921  11.923  0.00  0.00    +0.000 A 
ATOM     12  C   UNL     1      47.221  11.299  11.877  0.00  0.00    +0.000 C 
ATOM     13  C   UNL     1      46.984   8.827  12.165  0.00  0.00    +0.000 A 
ENDBRANCH   3   7
BRANCH   1  14
ATOM     14  C   UNL     1      43.599   4.602  11.061  0.00  0.00    +0.000 C 
BRANCH  14  20
ATOM     15  C   UNL     1      47.216   1.264   6.855  0.00  0.00    +0.000 C 
ATOM     16  C   UNL     1      46.363   2.188   7.652  0.00  0.00    +0.000 A 
ATOM     17  C   UNL     1      45.644   1.795   8.758  0.00  0.00    +0.000 A 
ATOM     18  N   UNL     1      44.852   2.624   9.468  0.00  0.00    +0.000 NA
ATOM     19  C   UNL     1      44.763   3.894   9.048  0.00  0.00    +0.000 A 
ATOM     20  N   UNL     1      43.909   4.784   9.657  0.00  0.00    +0.000 N 
ATOM     21  N   UNL     1      45.442   4.377   8.002  0.00  0.00    +0.000 NA
ATOM     22  C   UNL     1      46.224   3.515   7.325  0.00  0.00    +0.000 A 
ATOM     23  H   UNL     1      44.180   5.724   9.393  0.00  0.00    +0.000 HD
ENDBRANCH  14  20
ENDBRANCH   1  14
TORSDOF 3
ENDMDL
MODEL 4
REMARK VINA RESULT:    -7.959      1.565      2.520
REMARK INTER + INTRA:          -9.805
REMARK INTER:                  -9.467
REMARK INTRA:                  -0.338
REMARK UNBOUND:                -0.450
REMARK  Name = 
REMARK  5 active torsions:
REMARK  status: ('A' for Active; 'I' for Inactive)
REMARK    1  A    between atoms: C_1  and  C_2
REMARK    2  A    between atoms: N_6  and  C_7
REMARK    3  A    between atoms: C_7  and  C_8
REMARK    4  A    between atoms: C_10  and  C_11
REMARK    5  A    between atoms: C_15  and  C_16
REMARK                            x       y       z     vdW  Elec       q    Type
REMARK                         _______ _______ _______ _____ _____    ______ ____
ROOT
ATOM      1  C   UNL     1      44.090   4.431  10.815  0.00  0.00    +0.000 A 
ATOM      2  C   UNL     1      45.320   4.713  11.404  0.00  0.00    +0.000 A 
ATOM      3  C   UNL     1      45.574   5.988  11.935  0.00  0.00    +0.000 A 
ATOM      4  C   UNL     1      44.546   6.934  11.838  0.00  0.00    +0.000 A 
ATOM      5  C   UNL     1      43.353   6.580  11.228  0.00  0.00    +0.000 A 
ATOM      6  N   UNL     1      43.107   5.361  10.709  0.00  0.00    +0.000 NA
ENDROOT
BRANCH   3   7
ATOM      7  C   UNL     1      46.872   6.317  12.563  0.00  0.00    +0.000 A 
ATOM      8  C   UNL     1      47.176   5.949  13.879  0.00  0.00    +0.000 A 
ATOM      9  C   UNL     1      48.405   6.302  14.418  0.00  0.00    +0.000 A 
ATOM     10  N   UNL     1      49.351   6.986  13.746  0.00  0.00    +0.000 NA
ATOM     11  C   UNL     1      49.068   7.338  12.474  0.00  0.00    +0.000 A 
ATOM     12  C   UNL     1      50.107   8.109  11.718  0.00  0.00    +0.000 C 
ATOM     13  C   UNL     1      47.858   7.027  11.860  0.00  0.00    +0.000 A 
ENDBRANCH   3   7
BRANCH   1  14
ATOM     14  C   UNL     1      43.811   3.044  10.263  0.00  0.00    +0.000 C 
BRANCH  14  20
ATOM     15  C   UNL     1      47.697   2.448   5.120  0.00  0.00    +0.000 C 
ATOM     16  C   UNL     1      46.934   2.419   6.398  0.00  0.00    +0.000 A 
ATOM     17  C   UNL     1      46.143   3.457   6.834  0.00  0.00    +0.000 A 
ATOM     18  N   UNL     1      45.470   3.443   8.003  0.00  0.00    +0.000 NA
ATOM     19  C   UNL     1      45.605   2.355   8.774  0.00  0.00    +0.000 A 
ATOM     20  N   UNL     1      45.028   2.295  10.021  0.00  0.00    +0.000 N 
ATOM     21  N   UNL     1      46.329   1.286   8.425  0.00  0.00    +0.000 NA
ATOM     22  C   UNL     1      46.980   1.341   7.248  0.00  0.00    +0.000 A 
ATOM     23  H   UNL     1      45.005   1.326  10.319  0.00  0.00    +0.000 HD
ENDBRANCH  14  20
ENDBRANCH   1  14
TORSDOF 3
ENDMDL
MODEL 5
REMARK VINA RESULT:    -7.675      2.194      3.414
REMARK INTER + INTRA:          -9.471
REMARK INTER:                  -8.923
REMARK INTRA:                  -0.548
REMARK UNBOUND:                -0.450
REMARK  Name = 
REMARK  5 active torsions:
REMARK  status: ('A' for Active; 'I' for Inactive)
REMARK    1  A    between atoms: C_1  and  C_2
REMARK    2  A    between atoms: N_6  and  C_7
REMARK    3  A    between atoms: C_7  and  C_8
REMARK    4  A    between atoms: C_10  and  C_11
REMARK    5  A    between atoms: C_15  and  C_16
REMARK                            x       y       z     vdW  Elec       q    Type
REMARK                         _______ _______ _______ _____ _____    ______ ____
ROOT
ATOM      1  C   UNL     1      44.566   5.646  11.482  0.00  0.00    +0.000 A 
ATOM      2  C   UNL     1      45.333   5.116  12.517  0.00  0.00    +0.000 A 
ATOM      3  C   UNL     1      46.200   5.942  13.250  0.00  0.00    +0.000 A 
ATOM      4  C   UNL     1      46.249   7.294  12.887  0.00  0.00    +0.000 A 
ATOM      5  C   UNL     1      45.463   7.744  11.838  0.00  0.00    +0.000 A 
ATOM      6  N   UNL     1      44.636   6.954  11.127  0.00  0.00    +0.000 NA
ENDROOT
BRANCH   3   7
ATOM      7  C   UNL     1      47.030   5.405  14.350  0.00  0.00    +0.000 A 
ATOM      8  C   UNL     1      46.876   4.097  14.827  0.00  0.00    +0.000 A 
ATOM      9  C   UNL     1      47.672   3.658  15.874  0.00  0.00    +0.000 A 
ATOM     10  N   UNL     1      48.609   4.416  16.476  0.00  0.00    +0.000 NA
ATOM     11  C   UNL     1      48.768   5.675  16.016  0.00  0.00    +0.000 A 
ATOM     12  C   UNL     1      49.799   6.534  16.684  0.00  0.00    +0.000 C 
ATOM     13  C   UNL     1      48.008   6.195  14.973  0.00  0.00    +0.000 A 
ENDBRANCH   3   7
BRANCH   1  14
ATOM     14  C   UNL     1      43.612   4.754  10.708  0.00  0.00    +0.000 C 
BRANCH  14  20
ATOM     15  C   UNL     1      47.326   1.079   6.886  0.00  0.00    +0.000 C 
ATOM     16  C   UNL     1      46.439   2.055   7.576  0.00  0.00    +0.000 A 
ATOM     17  C   UNL     1      45.764   1.776   8.743  0.00  0.00    +0.000 A 
ATOM     18  N   UNL     1      44.942   2.650   9.358  0.00  0.00    +0.000 NA
ATOM     19  C   UNL     1      44.774   3.846   8.776  0.00  0.00    +0.000 A 
ATOM     20  N   UNL     1      43.884   4.763   9.285  0.00  0.00    +0.000 N 
ATOM     21  N   UNL     1      45.406   4.220   7.658  0.00  0.00    +0.000 NA
ATOM     22  C   UNL     1      46.221   3.318   7.080  0.00  0.00    +0.000 A 
ATOM     23  H   UNL     1      44.098   5.672   8.892  0.00  0.00    +0.000 HD
ENDBRANCH  14  20
ENDBRANCH   1  14
TORSDOF 3
ENDMDL
MODEL 6
REMARK VINA RESULT:    -7.490      1.774      6.618
REMARK INTER + INTRA:          -9.253
REMARK INTER:                  -8.708
REMARK INTRA:                  -0.546
REMARK UNBOUND:                -0.450
REMARK  Name = 
REMARK  5 active torsions:
REMARK  status: ('A' for Active; 'I' for Inactive)
REMARK    1  A    between atoms: C_1  and  C_2
REMARK    2  A    between atoms: N_6  and  C_7
REMARK    3  A    between atoms: C_7  and  C_8
REMARK    4  A    between atoms: C_10  and  C_11
REMARK    5  A    between atoms: C_15  and  C_16
REMARK                            x       y       z     vdW  Elec       q    Type
REMARK                         _______ _______ _______ _____ _____    ______ ____
ROOT
ATOM      1  C   UNL     1      44.334   5.493  11.613  0.00  0.00    +0.000 A 
ATOM      2  C   UNL     1      45.034   5.022  10.505  0.00  0.00    +0.000 A 
ATOM      3  C   UNL     1      44.798   3.727  10.017  0.00  0.00    +0.000 A 
ATOM      4  C   UNL     1      43.843   2.956  10.693  0.00  0.00    +0.000 A 
ATOM      5  C   UNL     1      43.195   3.492  11.794  0.00  0.00    +0.000 A 
ATOM      6  N   UNL     1      43.424   4.731  12.272  0.00  0.00    +0.000 NA
ENDROOT
BRANCH   3   7
ATOM      7  C   UNL     1      45.530   3.199   8.845  0.00  0.00    +0.000 A 
ATOM      8  C   UNL     1      45.954   4.028   7.799  0.00  0.00    +0.000 A 
ATOM      9  C   UNL     1      46.621   3.470   6.718  0.00  0.00    +0.000 A 
ATOM     10  N   UNL     1      46.902   2.158   6.604  0.00  0.00    +0.000 NA
ATOM     11  C   UNL     1      46.503   1.354   7.612  0.00  0.00    +0.000 A 
ATOM     12  C   UNL     1      46.799  -0.110   7.493  0.00  0.00    +0.000 C 
ATOM     13  C   UNL     1      45.825   1.832   8.730  0.00  0.00    +0.000 A 
ENDBRANCH   3   7
BRANCH   1  14
ATOM     14  C   UNL     1      44.575   6.903  12.122  0.00  0.00    +0.000 C 
BRANCH  14  20
ATOM     15  C   UNL     1      50.876   8.350  12.461  0.00  0.00    +0.000 C 
ATOM     16  C   UNL     1      49.449   7.954  12.606  0.00  0.00    +0.000 A 
ATOM     17  C   UNL     1      48.448   8.402  11.774  0.00  0.00    +0.000 A 
ATOM     18  N   UNL     1      47.150   8.063  11.916  0.00  0.00    +0.000 NA
ATOM     19  C   UNL     1      46.837   7.258  12.941  0.00  0.00    +0.000 A 
ATOM     20  N   UNL     1      45.527   6.936  13.214  0.00  0.00    +0.000 N 
ATOM     21  N   UNL     1      47.740   6.750  13.786  0.00  0.00    +0.000 NA
ATOM     22  C   UNL     1      49.025   7.111  13.604  0.00  0.00    +0.000 A 
ATOM     23  H   UNL     1      45.515   6.126  13.823  0.00  0.00    +0.000 HD
ENDBRANCH  14  20
ENDBRANCH   1  14
TORSDOF 3
ENDMDL
MODEL 7
REMARK VINA RESULT:    -7.009      4.446      7.871
REMARK INTER + INTRA:          -8.688
REMARK INTER:                  -8.221
REMARK INTRA:                  -0.467
REMARK UNBOUND:                -0.450
REMARK  Name = 
REMARK  5 active torsions:
REMARK  status: ('A' for Active; 'I' for Inactive)
REMARK    1  A    between atoms: C_1  and  C_2
REMARK    2  A    between atoms: N_6  and  C_7
REMARK    3  A    between atoms: C_7  and  C_8
REMARK    4  A    between atoms: C_10  and  C_11
REMARK    5  A    between atoms: C_15  and  C_16
REMARK                            x       y       z     vdW  Elec       q    Type
REMARK                         _______ _______ _______ _____ _____    ______ ____
ROOT
ATOM      1  C   UNL     1      47.532   5.058  15.352  0.00  0.00    +0.000 A 
ATOM      2  C   UNL     1      46.564   4.466  14.545  0.00  0.00    +0.000 A 
ATOM      3  C   UNL     1      46.397   4.885  13.216  0.00  0.00    +0.000 A 
ATOM      4  C   UNL     1      47.238   5.909  12.761  0.00  0.00    +0.000 A 
ATOM      5  C   UNL     1      48.171   6.455  13.628  0.00  0.00    +0.000 A 
ATOM      6  N   UNL     1      48.330   6.062  14.906  0.00  0.00    +0.000 NA
ENDROOT
BRANCH   3   7
ATOM      7  C   UNL     1      45.373   4.278  12.338  0.00  0.00    +0.000 A 
ATOM      8  C   UNL     1      44.320   3.507  12.848  0.00  0.00    +0.000 A 
ATOM      9  C   UNL     1      43.401   2.948  11.972  0.00  0.00    +0.000 A 
ATOM     10  N   UNL     1      43.447   3.103  10.635  0.00  0.00    +0.000 NA
ATOM     11  C   UNL     1      44.455   3.851  10.137  0.00  0.00    +0.000 A 
ATOM     12  C   UNL     1      44.525   4.022   8.650  0.00  0.00    +0.000 C 
ATOM     13  C   UNL     1      45.421   4.442  10.945  0.00  0.00    +0.000 A 
ENDBRANCH   3   7
BRANCH   1  14
ATOM     14  C   UNL     1      47.725   4.585  16.781  0.00  0.00    +0.000 C 
BRANCH  14  20
ATOM     15  C   UNL     1      53.396   1.767  18.126  0.00  0.00    +0.000 C 
ATOM     16  C   UNL     1      52.020   2.202  17.763  0.00  0.00    +0.000 A 
ATOM     17  C   UNL     1      51.458   3.384  18.190  0.00  0.00    +0.000 A 
ATOM     18  N   UNL     1      50.203   3.769  17.883  0.00  0.00    +0.000 NA
ATOM     19  C   UNL     1      49.472   2.932  17.133  0.00  0.00    +0.000 A 
ATOM     20  N   UNL     1      48.154   3.202  16.849  0.00  0.00    +0.000 N 
ATOM     21  N   UNL     1      49.937   1.774  16.649  0.00  0.00    +0.000 NA
ATOM     22  C   UNL     1      51.197   1.432  16.976  0.00  0.00    +0.000 A 
ATOM     23  H   UNL     1      47.867   2.622  16.069  0.00  0.00    +0.000 HD
ENDBRANCH  14  20
ENDBRANCH   1  14
TORSDOF 3
ENDMDL
MODEL 8
REMARK VINA RESULT:    -6.807      1.898      2.609
REMARK INTER + INTRA:          -8.451
REMARK INTER:                  -8.051
REMARK INTRA:                  -0.400
REMARK UNBOUND:                -0.450
REMARK  Name = 
REMARK  5 active torsions:
REMARK  status: ('A' for Active; 'I' for Inactive)
REMARK    1  A    between atoms: C_1  and  C_2
REMARK    2  A    between atoms: N_6  and  C_7
REMARK    3  A    between atoms: C_7  and  C_8
REMARK    4  A    between atoms: C_10  and  C_11
REMARK    5  A    between atoms: C_15  and  C_16
REMARK                            x       y       z     vdW  Elec       q    Type
REMARK                         _______ _______ _______ _____ _____    ______ ____
ROOT
ATOM      1  C   UNL     1      45.341   6.761  11.373  0.00  0.00    +0.000 A 
ATOM      2  C   UNL     1      46.644   6.788  11.865  0.00  0.00    +0.000 A 
ATOM      3  C   UNL     1      47.155   7.957  12.451  0.00  0.00    +0.000 A 
ATOM      4  C   UNL     1      46.300   9.066  12.508  0.00  0.00    +0.000 A 
ATOM      5  C   UNL     1      45.020   8.963  11.988  0.00  0.00    +0.000 A 
ATOM      6  N   UNL     1      44.528   7.847  11.417  0.00  0.00    +0.000 NA
ENDROOT
BRANCH   3   7
ATOM      7  C   UNL     1      48.536   8.016  12.976  0.00  0.00    +0.000 A 
ATOM      8  C   UNL     1      49.583   8.598  12.251  0.00  0.00    +0.000 A 
ATOM      9  C   UNL     1      50.861   8.606  12.790  0.00  0.00    +0.000 A 
ATOM     10  N   UNL     1      51.172   8.087  13.994  0.00  0.00    +0.000 NA
ATOM     11  C   UNL     1      50.167   7.531  14.702  0.00  0.00    +0.000 A 
ATOM     12  C   UNL     1      50.501   6.939  16.037  0.00  0.00    +0.000 C 
ATOM     13  C   UNL     1      48.858   7.477  14.232  0.00  0.00    +0.000 A 
ENDBRANCH   3   7
BRANCH   1  14
ATOM     14  C   UNL     1      44.785   5.487  10.762  0.00  0.00    +0.000 C 
BRANCH  14  20
ATOM     15  C   UNL     1      46.938   0.656   7.029  0.00  0.00    +0.000 C 
ATOM     16  C   UNL     1      46.468   1.899   7.699  0.00  0.00    +0.000 A 
ATOM     17  C   UNL     1      45.705   1.903   8.845  0.00  0.00    +0.000 A 
ATOM     18  N   UNL     1      45.258   3.027   9.441  0.00  0.00    +0.000 NA
ATOM     19  C   UNL     1      45.570   4.194   8.859  0.00  0.00    +0.000 A 
ATOM     20  N   UNL     1      45.079   5.383   9.347  0.00  0.00    +0.000 N 
ATOM     21  N   UNL     1      46.327   4.294   7.760  0.00  0.00    +0.000 NA
ATOM     22  C   UNL     1      46.756   3.147   7.202  0.00  0.00    +0.000 A 
ATOM     23  H   UNL     1      45.631   6.141   8.964  0.00  0.00    +0.000 HD
ENDBRANCH  14  20
ENDBRANCH   1  14
TORSDOF 3
ENDMDL
MODEL 9
REMARK VINA RESULT:    -6.519      3.465      7.816
REMARK INTER + INTRA:          -8.113
REMARK INTER:                  -7.601
REMARK INTRA:                  -0.512
REMARK UNBOUND:                -0.450
REMARK  Name = 
REMARK  5 active torsions:
REMARK  status: ('A' for Active; 'I' for Inactive)
REMARK    1  A    between atoms: C_1  and  C_2
REMARK    2  A    between atoms: N_6  and  C_7
REMARK    3  A    between atoms: C_7  and  C_8
REMARK    4  A    between atoms: C_10  and  C_11
REMARK    5  A    between atoms: C_15  and  C_16
REMARK                            x       y       z     vdW  Elec       q    Type
REMARK                         _______ _______ _______ _____ _____    ______ ____
ROOT
ATOM      1  C   UNL     1      47.687   7.247  13.420  0.00  0.00    +0.000 A 
ATOM      2  C   UNL     1      47.011   6.123  12.954  0.00  0.00    +0.000 A 
ATOM      3  C   UNL     1      45.709   6.241  12.440  0.00  0.00    +0.000 A 
ATOM      4  C   UNL     1      45.145   7.524  12.426  0.00  0.00    +0.000 A 
ATOM      5  C   UNL     1      45.879   8.592  12.917  0.00  0.00    +0.000 A 
ATOM      6  N   UNL     1      47.124   8.482  13.419  0.00  0.00    +0.000 NA
ENDROOT
BRANCH   3   7
ATOM      7  C   UNL     1      44.966   5.063  11.943  0.00  0.00    +0.000 A 
ATOM      8  C   UNL     1      44.110   4.322  12.768  0.00  0.00    +0.000 A 
ATOM      9  C   UNL     1      43.454   3.216  12.248  0.00  0.00    +0.000 A 
ATOM     10  N   UNL     1      43.581   2.798  10.974  0.00  0.00    +0.000 NA
ATOM     11  C   UNL     1      44.398   3.511  10.172  0.00  0.00    +0.000 A 
ATOM     12  C   UNL     1      44.558   3.050   8.754  0.00  0.00    +0.000 C 
ATOM     13  C   UNL     1      45.097   4.630  10.615  0.00  0.00    +0.000 A 
ENDBRANCH   3   7
BRANCH   1  14
ATOM     14  C   UNL     1      49.103   7.117  13.952  0.00  0.00    +0.000 C 
BRANCH  14  20
ATOM     15  C   UNL     1      48.755   4.411  19.822  0.00  0.00    +0.000 C 
ATOM     16  C   UNL     1      48.847   5.235  18.586  0.00  0.00    +0.000 A 
ATOM     17  C   UNL     1      49.249   4.736  17.368  0.00  0.00    +0.000 A 
ATOM     18  N   UNL     1      49.356   5.485  16.252  0.00  0.00    +0.000 NA
ATOM     19  C   UNL     1      49.066   6.789  16.360  0.00  0.00    +0.000 A 
ATOM     20  N   UNL     1      49.235   7.643  15.295  0.00  0.00    +0.000 N 
ATOM     21  N   UNL     1      48.642   7.361  17.492  0.00  0.00    +0.000 NA
ATOM     22  C   UNL     1      48.545   6.575  18.581  0.00  0.00    +0.000 A 
ATOM     23  H   UNL     1      48.716   8.494  15.479  0.00  0.00    +0.000 HD
ENDBRANCH  14  20
ENDBRANCH   1  14
TORSDOF 3
ENDMDL
