MODEL 1
REMARK VINA RESULT:    -7.347      0.000      0.000
REMARK INTER + INTRA:         -11.237
REMARK INTER:                  -9.924
REMARK INTRA:                  -1.313
REMARK UNBOUND:                -1.313
REMARK  Name = 
REMARK  7 active torsions:
REMARK  status: ('A' for Active; 'I' for Inactive)
REMARK    1  A    between atoms: C_1  and  C_2
REMARK    2  A    between atoms: C_2  and  N_3
REMARK    3  A    between atoms: N_3  and  C_4
REMARK    4  A    between atoms: N_3  and  C_11
REMARK    5  A    between atoms: C_4  and  C_5
REMARK    6  A    between atoms: C_11  and  C_12
REMARK    7  A    between atoms: C_16  and  C_18
REMARK                            x       y       z     vdW  Elec       q    Type
REMARK                         _______ _______ _______ _____ _____    ______ ____
ROOT
ATOM      1  C   UNL     1      48.687   7.606  13.076  0.00  0.00    +0.000 C 
ATOM      2  C   UNL     1      47.652   8.554  12.439  0.00  0.00    +0.000 C 
ATOM      3  C   UNL     1      46.219   8.241  12.872  0.00  0.00    +0.000 C 
ATOM      4  N   UNL     1      45.898   6.837  12.611  0.00  0.00    +0.000 N 
ATOM      5  C   UNL     1      44.782   6.553  11.808  0.00  0.00    +0.000 C 
ATOM      6  O   UNL     1      44.072   7.452  11.363  0.00  0.00    +0.000 OA
ATOM      7  C   UNL     1      46.829   5.878  13.215  0.00  0.00    +0.000 C 
ATOM      8  C   UNL     1      48.268   6.156  12.803  0.00  0.00    +0.000 C 
ENDROOT
BRANCH   5   9
ATOM      9  C   UNL     1      44.444   5.154  11.507  0.00  0.00    +0.000 A 
ATOM     10  C   UNL     1      43.559   4.393  12.250  0.00  0.00    +0.000 A 
ATOM     11  S   UNL     1      43.401   2.790  11.688  0.00  0.00    +0.000 S 
ATOM     12  C   UNL     1      44.346   3.127  10.312  0.00  0.00    +0.000 A 
ATOM     13  N   UNL     1      44.526   2.185   9.349  0.00  0.00    +0.000 NA
ATOM     14  C   UNL     1      45.192   2.602   8.323  0.00  0.00    +0.000 A 
ATOM     15  N   UNL     1      45.716   3.862   8.191  0.00  0.00    +0.000 N 
ATOM     16  C   UNL     1      45.652   4.813   9.189  0.00  0.00    +0.000 A 
ATOM     17  O   UNL     1      46.273   5.867   9.079  0.00  0.00    +0.000 OA
ATOM     18  C   UNL     1      44.841   4.417  10.327  0.00  0.00    +0.000 A 
ATOM     19  H   UNL     1      46.251   4.114   7.373  0.00  0.00    +0.000 HD
ENDBRANCH   5   9
BRANCH   1  20
ATOM     20  C   UNL     1      48.894   7.899  14.587  0.00  0.00    +0.000 C 
BRANCH  20  21
ATOM     21  N   UNL     1      49.921   7.050  15.250  0.00  0.00    +0.000 NA
BRANCH  21  23
ATOM     22  C   UNL     1      52.375   6.990  15.918  0.00  0.00    +0.000 C 
ATOM     23  C   UNL     1      51.201   7.787  15.353  0.00  0.00    +0.000 C 
ENDBRANCH  21  23
BRANCH  21  24
ATOM     24  C   UNL     1      49.450   6.647  16.603  0.00  0.00    +0.000 C 
BRANCH  24  25
ATOM     25  C   UNL     1      49.143   5.174  16.812  0.00  0.00    +0.000 A 
ATOM     26  C   UNL     1      47.882   4.653  16.515  0.00  0.00    +0.000 A 
ATOM     27  C   UNL     1      47.679   3.279  16.615  0.00  0.00    +0.000 A 
ATOM     28  C   UNL     1      48.731   2.460  17.005  0.00  0.00    +0.000 A 
ATOM     29  C   UNL     1      49.946   3.055  17.297  0.00  0.00    +0.000 A 
ATOM     30  N   UNL     1      50.172   4.383  17.214  0.00  0.00    +0.000 NA
ENDBRANCH  24  25
ENDBRANCH  21  24
ENDBRANCH  20  21
ENDBRANCH   1  20
TORSDOF 6
ENDMDL
MODEL 2
REMARK VINA RESULT:    -7.332      2.946      8.094
REMARK INTER + INTRA:         -11.216
REMARK INTER:                 -10.381
REMARK INTRA:                  -0.835
REMARK UNBOUND:                -1.313
REMARK  Name = 
REMARK  7 active torsions:
REMARK  status: ('A' for Active; 'I' for Inactive)
REMARK    1  A    between atoms: C_1  and  C_2
REMARK    2  A    between atoms: C_2  and  N_3
REMARK    3  A    between atoms: N_3  and  C_4
REMARK    4  A    between atoms: N_3  and  C_11
REMARK    5  A    between atoms: C_4  and  C_5
REMARK    6  A    between atoms: C_11  and  C_12
REMARK    7  A    between atoms: C_16  and  C_18
REMARK                            x       y       z     vdW  Elec       q    Type
REMARK                         _______ _______ _______ _____ _____    ______ ____
ROOT
ATOM      1  C   UNL     1      45.299   5.820  12.405  0.00  0.00    +0.000 C 
ATOM      2  C   UNL     1      45.291   7.333  12.697  0.00  0.00    +0.000 C 
ATOM      3  C   UNL     1      46.693   7.944  12.683  0.00  0.00    +0.000 C 
ATOM      4  N   UNL     1      47.578   7.223  13.598  0.00  0.00    +0.000 N 
ATOM      5  C   UNL     1      48.225   7.954  14.606  0.00  0.00    +0.000 C 
ATOM      6  O   UNL     1      48.083   9.171  14.700  0.00  0.00    +0.000 OA
ATOM      7  C   UNL     1      47.655   5.778  13.356  0.00  0.00    +0.000 C 
ATOM      8  C   UNL     1      46.277   5.132  13.366  0.00  0.00    +0.000 C 
ENDROOT
BRANCH   5   9
ATOM      9  C   UNL     1      49.104   7.257  15.556  0.00  0.00    +0.000 A 
ATOM     10  C   UNL     1      48.652   6.405  16.549  0.00  0.00    +0.000 A 
ATOM     11  S   UNL     1      49.900   5.778  17.529  0.00  0.00    +0.000 S 
ATOM     12  C   UNL     1      51.096   6.459  16.526  0.00  0.00    +0.000 A 
ATOM     13  N   UNL     1      52.413   6.216  16.758  0.00  0.00    +0.000 NA
ATOM     14  C   UNL     1      53.205   6.724  15.873  0.00  0.00    +0.000 A 
ATOM     15  N   UNL     1      52.800   7.475  14.800  0.00  0.00    +0.000 N 
ATOM     16  C   UNL     1      51.486   7.838  14.588  0.00  0.00    +0.000 A 
ATOM     17  O   UNL     1      51.201   8.640  13.702  0.00  0.00    +0.000 OA
ATOM     18  C   UNL     1      50.549   7.220  15.510  0.00  0.00    +0.000 A 
ATOM     19  H   UNL     1      53.476   7.865  14.159  0.00  0.00    +0.000 HD
ENDBRANCH   5   9
BRANCH   1  20
ATOM     20  C   UNL     1      45.606   5.515  10.913  0.00  0.00    +0.000 C 
BRANCH  20  21
ATOM     21  N   UNL     1      44.967   4.279  10.387  0.00  0.00    +0.000 NA
BRANCH  21  23
ATOM     22  C   UNL     1      43.376   2.855  11.770  0.00  0.00    +0.000 C 
ATOM     23  C   UNL     1      43.608   4.125  10.957  0.00  0.00    +0.000 C 
ENDBRANCH  21  23
BRANCH  21  24
ATOM     24  C   UNL     1      44.896   4.336   8.902  0.00  0.00    +0.000 C 
BRANCH  24  25
ATOM     25  C   UNL     1      45.667   3.273   8.137  0.00  0.00    +0.000 A 
ATOM     26  C   UNL     1      46.430   3.605   7.016  0.00  0.00    +0.000 A 
ATOM     27  C   UNL     1      47.209   2.620   6.413  0.00  0.00    +0.000 A 
ATOM     28  C   UNL     1      47.210   1.334   6.940  0.00  0.00    +0.000 A 
ATOM     29  C   UNL     1      46.415   1.081   8.044  0.00  0.00    +0.000 A 
ATOM     30  N   UNL     1      45.647   2.014   8.646  0.00  0.00    +0.000 NA
ENDBRANCH  24  25
ENDBRANCH  21  24
ENDBRANCH  20  21
ENDBRANCH   1  20
TORSDOF 6
ENDMDL
MODEL 3
REMARK VINA RESULT:    -7.170      1.514      2.243
REMARK INTER + INTRA:         -10.998
REMARK INTER:                  -9.794
REMARK INTRA:                  -1.204
REMARK UNBOUND:                -1.313
REMARK  Name = 
REMARK  7 active torsions:
REMARK  status: ('A' for Active; 'I' for Inactive)
REMARK    1  A    between atoms: C_1  and  C_2
REMARK    2  A    between atoms: C_2  and  N_3
REMARK    3  A    between atoms: N_3  and  C_4
REMARK    4  A    between atoms: N_3  and  C_11
REMARK    5  A    between atoms: C_4  and  C_5
REMARK    6  A    between atoms: C_11  and  C_12
REMARK    7  A    between atoms: C_16  and  C_18
REMARK                            x       y       z     vdW  Elec       q    Type
REMARK                         _______ _______ _______ _____ _____    ______ ____
ROOT
ATOM      1  C   UNL     1      49.086   8.008  13.460  0.00  0.00    +0.000 C 
ATOM      2  C   UNL     1      48.058   9.067  13.020  0.00  0.00    +0.000 C 
ATOM      3  C   UNL     1      46.613   8.599  13.200  0.00  0.00    +0.000 C 
ATOM      4  N   UNL     1      46.397   7.322  12.519  0.00  0.00    +0.000 N 
ATOM      5  C   UNL     1      45.374   7.249  11.561  0.00  0.00    +0.000 C 
ATOM      6  O   UNL     1      44.654   8.216  11.322  0.00  0.00    +0.000 OA
ATOM      7  C   UNL     1      47.326   6.258  12.914  0.00  0.00    +0.000 C 
ATOM      8  C   UNL     1      48.777   6.686  12.745  0.00  0.00    +0.000 C 
ENDROOT
BRANCH   5   9
ATOM      9  C   UNL     1      45.145   5.988  10.841  0.00  0.00    +0.000 A 
ATOM     10  C   UNL     1      45.697   5.687   9.608  0.00  0.00    +0.000 A 
ATOM     11  S   UNL     1      45.215   4.169   8.998  0.00  0.00    +0.000 S 
ATOM     12  C   UNL     1      44.424   3.779  10.455  0.00  0.00    +0.000 A 
ATOM     13  N   UNL     1      43.867   2.552  10.633  0.00  0.00    +0.000 NA
ATOM     14  C   UNL     1      43.376   2.364  11.813  0.00  0.00    +0.000 A 
ATOM     15  N   UNL     1      43.366   3.300  12.814  0.00  0.00    +0.000 N 
ATOM     16  C   UNL     1      43.820   4.592  12.642  0.00  0.00    +0.000 A 
ATOM     17  O   UNL     1      43.644   5.431  13.521  0.00  0.00    +0.000 OA
ATOM     18  C   UNL     1      44.458   4.824  11.358  0.00  0.00    +0.000 A 
ATOM     19  H   UNL     1      42.941   3.096  13.706  0.00  0.00    +0.000 HD
ENDBRANCH   5   9
BRANCH   1  20
ATOM     20  C   UNL     1      49.144   7.857  15.005  0.00  0.00    +0.000 C 
BRANCH  20  21
ATOM     21  N   UNL     1      50.106   6.832  15.494  0.00  0.00    +0.000 NA
BRANCH  21  23
ATOM     22  C   UNL     1      52.485   6.704  16.384  0.00  0.00    +0.000 C 
ATOM     23  C   UNL     1      51.488   7.361  15.433  0.00  0.00    +0.000 C 
ENDBRANCH  21  23
BRANCH  21  24
ATOM     24  C   UNL     1      49.767   6.443  16.890  0.00  0.00    +0.000 C 
BRANCH  24  25
ATOM     25  C   UNL     1      49.016   5.135  17.074  0.00  0.00    +0.000 A 
ATOM     26  C   UNL     1      49.103   4.418  18.269  0.00  0.00    +0.000 A 
ATOM     27  C   UNL     1      48.312   3.284  18.436  0.00  0.00    +0.000 A 
ATOM     28  C   UNL     1      47.455   2.895  17.414  0.00  0.00    +0.000 A 
ATOM     29  C   UNL     1      47.437   3.650  16.254  0.00  0.00    +0.000 A 
ATOM     30  N   UNL     1      48.196   4.750  16.062  0.00  0.00    +0.000 NA
ENDBRANCH  24  25
ENDBRANCH  21  24
ENDBRANCH  20  21
ENDBRANCH   1  20
TORSDOF 6
ENDMDL
MODEL 4
REMARK VINA RESULT:    -6.650      3.496      8.138
REMARK INTER + INTRA:         -10.295
REMARK INTER:                  -9.591
REMARK INTRA:                  -0.705
REMARK UNBOUND:                -1.313
REMARK  Name = 
REMARK  7 active torsions:
REMARK  status: ('A' for Active; 'I' for Inactive)
REMARK    1  A    between atoms: C_1  and  C_2
REMARK    2  A    between atoms: C_2  and  N_3
REMARK    3  A    between atoms: N_3  and  C_4
REMARK    4  A    between atoms: N_3  and  C_11
REMARK    5  A    between atoms: C_4  and  C_5
REMARK    6  A    between atoms: C_11  and  C_12
REMARK    7  A    between atoms: C_16  and  C_18
REMARK                            x       y       z     vdW  Elec       q    Type
REMARK                         _______ _______ _______ _____ _____    ______ ____
ROOT
ATOM      1  C   UNL     1      47.424   5.707  12.949  0.00  0.00    +0.000 C 
ATOM      2  C   UNL     1      46.816   4.369  13.412  0.00  0.00    +0.000 C 
ATOM      3  C   UNL     1      46.425   4.378  14.890  0.00  0.00    +0.000 C 
ATOM      4  N   UNL     1      47.564   4.770  15.722  0.00  0.00    +0.000 N 
ATOM      5  C   UNL     1      47.971   3.894  16.741  0.00  0.00    +0.000 C 
ATOM      6  O   UNL     1      47.369   2.844  16.956  0.00  0.00    +0.000 OA
ATOM      7  C   UNL     1      48.174   6.052  15.352  0.00  0.00    +0.000 C 
ATOM      8  C   UNL     1      48.580   6.079  13.886  0.00  0.00    +0.000 C 
ENDROOT
BRANCH   5   9
ATOM      9  C   UNL     1      49.125   4.245  17.580  0.00  0.00    +0.000 A 
ATOM     10  C   UNL     1      49.133   5.286  18.493  0.00  0.00    +0.000 A 
ATOM     11  S   UNL     1      50.629   5.482  19.288  0.00  0.00    +0.000 S 
ATOM     12  C   UNL     1      51.243   4.055  18.592  0.00  0.00    +0.000 A 
ATOM     13  N   UNL     1      52.472   3.589  18.939  0.00  0.00    +0.000 NA
ATOM     14  C   UNL     1      52.776   2.455  18.400  0.00  0.00    +0.000 A 
ATOM     15  N   UNL     1      51.976   1.765  17.526  0.00  0.00    +0.000 N 
ATOM     16  C   UNL     1      50.772   2.253  17.062  0.00  0.00    +0.000 A 
ATOM     17  O   UNL     1      50.173   1.668  16.162  0.00  0.00    +0.000 OA
ATOM     18  C   UNL     1      50.350   3.485  17.704  0.00  0.00    +0.000 A 
ATOM     19  H   UNL     1      52.287   0.895  17.120  0.00  0.00    +0.000 HD
ENDBRANCH   5   9
BRANCH   1  20
ATOM     20  C   UNL     1      46.353   6.827  12.838  0.00  0.00    +0.000 C 
BRANCH  20  21
ATOM     21  N   UNL     1      45.306   6.587  11.809  0.00  0.00    +0.000 NA
BRANCH  21  23
ATOM     22  C   UNL     1      45.255   9.131  11.835  0.00  0.00    +0.000 C 
ATOM     23  C   UNL     1      44.512   7.819  11.594  0.00  0.00    +0.000 C 
ENDBRANCH  21  23
BRANCH  21  24
ATOM     24  C   UNL     1      45.937   6.155  10.533  0.00  0.00    +0.000 C 
BRANCH  24  25
ATOM     25  C   UNL     1      45.393   4.888   9.893  0.00  0.00    +0.000 A 
ATOM     26  C   UNL     1      45.721   4.549   8.579  0.00  0.00    +0.000 A 
ATOM     27  C   UNL     1      45.292   3.325   8.071  0.00  0.00    +0.000 A 
ATOM     28  C   UNL     1      44.553   2.472   8.880  0.00  0.00    +0.000 A 
ATOM     29  C   UNL     1      44.256   2.888  10.167  0.00  0.00    +0.000 A 
ATOM     30  N   UNL     1      44.654   4.069  10.685  0.00  0.00    +0.000 NA
ENDBRANCH  24  25
ENDBRANCH  21  24
ENDBRANCH  20  21
ENDBRANCH   1  20
TORSDOF 6
ENDMDL
MODEL 5
REMARK VINA RESULT:    -6.520      3.612      8.629
REMARK INTER + INTRA:         -10.120
REMARK INTER:                  -8.938
REMARK INTRA:                  -1.182
REMARK UNBOUND:                -1.313
REMARK  Name = 
REMARK  7 active torsions:
REMARK  status: ('A' for Active; 'I' for Inactive)
REMARK    1  A    between atoms: C_1  and  C_2
REMARK    2  A    between atoms: C_2  and  N_3
REMARK    3  A    between atoms: N_3  and  C_4
REMARK    4  A    between atoms: N_3  and  C_11
REMARK    5  A    between atoms: C_4  and  C_5
REMARK    6  A    between atoms: C_11  and  C_12
REMARK    7  A    between atoms: C_16  and  C_18
REMARK                            x       y       z     vdW  Elec       q    Type
REMARK                         _______ _______ _______ _____ _____    ______ ____
ROOT
ATOM      1  C   UNL     1      47.262   5.470  12.863  0.00  0.00    +0.000 C 
ATOM      2  C   UNL     1      47.144   4.021  13.376  0.00  0.00    +0.000 C 
ATOM      3  C   UNL     1      46.711   3.947  14.841  0.00  0.00    +0.000 C 
ATOM      4  N   UNL     1      47.603   4.747  15.682  0.00  0.00    +0.000 N 
ATOM      5  C   UNL     1      48.246   4.110  16.755  0.00  0.00    +0.000 C 
ATOM      6  O   UNL     1      48.043   2.924  17.006  0.00  0.00    +0.000 OA
ATOM      7  C   UNL     1      47.737   6.147  15.266  0.00  0.00    +0.000 C 
ATOM      8  C   UNL     1      48.171   6.261  13.812  0.00  0.00    +0.000 C 
ENDROOT
BRANCH   5   9
ATOM      9  C   UNL     1      49.166   4.878  17.607  0.00  0.00    +0.000 A 
ATOM     10  C   UNL     1      50.528   4.982  17.381  0.00  0.00    +0.000 A 
ATOM     11  S   UNL     1      51.345   5.901  18.562  0.00  0.00    +0.000 S 
ATOM     12  C   UNL     1      49.877   6.362  19.291  0.00  0.00    +0.000 A 
ATOM     13  N   UNL     1      49.865   7.243  20.326  0.00  0.00    +0.000 NA
ATOM     14  C   UNL     1      48.680   7.569  20.726  0.00  0.00    +0.000 A 
ATOM     15  N   UNL     1      47.515   7.069  20.205  0.00  0.00    +0.000 N 
ATOM     16  C   UNL     1      47.483   6.092  19.232  0.00  0.00    +0.000 A 
ATOM     17  O   UNL     1      46.417   5.569  18.915  0.00  0.00    +0.000 OA
ATOM     18  C   UNL     1      48.789   5.757  18.692  0.00  0.00    +0.000 A 
ATOM     19  H   UNL     1      46.621   7.346  20.584  0.00  0.00    +0.000 HD
ENDBRANCH   5   9
BRANCH   1  20
ATOM     20  C   UNL     1      45.872   6.134  12.667  0.00  0.00    +0.000 C 
BRANCH  20  21
ATOM     21  N   UNL     1      44.836   5.247  12.072  0.00  0.00    +0.000 NA
BRANCH  21  23
ATOM     22  C   UNL     1      42.318   5.499  11.811  0.00  0.00    +0.000 C 
ATOM     23  C   UNL     1      43.532   5.470  12.737  0.00  0.00    +0.000 C 
ENDBRANCH  21  23
BRANCH  21  24
ATOM     24  C   UNL     1      44.719   5.510  10.612  0.00  0.00    +0.000 C 
BRANCH  24  25
ATOM     25  C   UNL     1      45.221   4.423   9.676  0.00  0.00    +0.000 A 
ATOM     26  C   UNL     1      44.927   3.078   9.913  0.00  0.00    +0.000 A 
ATOM     27  C   UNL     1      45.311   2.127   8.970  0.00  0.00    +0.000 A 
ATOM     28  C   UNL     1      45.974   2.536   7.820  0.00  0.00    +0.000 A 
ATOM     29  C   UNL     1      46.241   3.886   7.666  0.00  0.00    +0.000 A 
ATOM     30  N   UNL     1      45.886   4.829   8.564  0.00  0.00    +0.000 NA
ENDBRANCH  24  25
ENDBRANCH  21  24
ENDBRANCH  20  21
ENDBRANCH   1  20
TORSDOF 6
ENDMDL
MODEL 6
REMARK VINA RESULT:    -5.712      2.011      2.676
REMARK INTER + INTRA:          -9.028
REMARK INTER:                  -8.051
REMARK INTRA:                  -0.978
REMARK UNBOUND:                -1.313
REMARK  Name = 
REMARK  7 active torsions:
REMARK  status: ('A' for Active; 'I' for Inactive)
REMARK    1  A    between atoms: C_1  and  C_2
REMARK    2  A    between atoms: C_2  and  N_3
REMARK    3  A    between atoms: N_3  and  C_4
REMARK    4  A    between atoms: N_3  and  C_11
REMARK    5  A    between atoms: C_4  and  C_5
REMARK    6  A    between atoms: C_11  and  C_12
REMARK    7  A    between atoms: C_16  and  C_18
REMARK                            x       y       z     vdW  Elec       q    Type
REMARK                         _______ _______ _______ _____ _____    ______ ____
ROOT
ATOM      1  C   UNL     1      48.637   7.841  12.834  0.00  0.00    +0.000 C 
ATOM      2  C   UNL     1      47.549   8.734  12.207  0.00  0.00    +0.000 C 
ATOM      3  C   UNL     1      46.146   8.403  12.717  0.00  0.00    +0.000 C 
ATOM      4  N   UNL     1      45.852   6.982  12.527  0.00  0.00    +0.000 N 
ATOM      5  C   UNL     1      44.710   6.637  11.787  0.00  0.00    +0.000 C 
ATOM      6  O   UNL     1      43.957   7.498  11.339  0.00  0.00    +0.000 OA
ATOM      7  C   UNL     1      46.835   6.073  13.126  0.00  0.00    +0.000 C 
ATOM      8  C   UNL     1      48.246   6.370  12.640  0.00  0.00    +0.000 C 
ENDROOT
BRANCH   5   9
ATOM      9  C   UNL     1      44.397   5.219  11.558  0.00  0.00    +0.000 A 
ATOM     10  C   UNL     1      43.540   4.475  12.350  0.00  0.00    +0.000 A 
ATOM     11  S   UNL     1      43.407   2.845  11.867  0.00  0.00    +0.000 S 
ATOM     12  C   UNL     1      44.325   3.135  10.462  0.00  0.00    +0.000 A 
ATOM     13  N   UNL     1      44.511   2.152   9.543  0.00  0.00    +0.000 NA
ATOM     14  C   UNL     1      45.153   2.533   8.488  0.00  0.00    +0.000 A 
ATOM     15  N   UNL     1      45.649   3.795   8.288  0.00  0.00    +0.000 N 
ATOM     16  C   UNL     1      45.579   4.791   9.241  0.00  0.00    +0.000 A 
ATOM     17  O   UNL     1      46.176   5.851   9.071  0.00  0.00    +0.000 OA
ATOM     18  C   UNL     1      44.793   4.434  10.408  0.00  0.00    +0.000 A 
ATOM     19  H   UNL     1      46.166   4.019   7.451  0.00  0.00    +0.000 HD
ENDBRANCH   5   9
BRANCH   1  20
ATOM     20  C   UNL     1      48.902   8.201  14.322  0.00  0.00    +0.000 C 
BRANCH  20  21
ATOM     21  N   UNL     1      50.293   8.641  14.616  0.00  0.00    +0.000 NA
BRANCH  21  23
ATOM     22  C   UNL     1      49.435  10.946  15.266  0.00  0.00    +0.000 C 
ATOM     23  C   UNL     1      50.410  10.108  14.443  0.00  0.00    +0.000 C 
ENDBRANCH  21  23
BRANCH  21  24
ATOM     24  C   UNL     1      50.664   8.258  16.005  0.00  0.00    +0.000 C 
BRANCH  24  25
ATOM     25  C   UNL     1      51.928   7.430  16.174  0.00  0.00    +0.000 A 
ATOM     26  C   UNL     1      51.960   6.335  17.040  0.00  0.00    +0.000 A 
ATOM     27  C   UNL     1      53.102   5.539  17.079  0.00  0.00    +0.000 A 
ATOM     28  C   UNL     1      54.178   5.850  16.258  0.00  0.00    +0.000 A 
ATOM     29  C   UNL     1      54.074   6.960  15.438  0.00  0.00    +0.000 A 
ATOM     30  N   UNL     1      52.983   7.753  15.382  0.00  0.00    +0.000 NA
ENDBRANCH  24  25
ENDBRANCH  21  24
ENDBRANCH  20  21
ENDBRANCH   1  20
TORSDOF 6
ENDMDL
MODEL 7
REMARK VINA RESULT:    -5.646      1.919      3.840
REMARK INTER + INTRA:          -8.939
REMARK INTER:                  -7.842
REMARK INTRA:                  -1.098
REMARK UNBOUND:                -1.313
REMARK  Name = 
REMARK  7 active torsions:
REMARK  status: ('A' for Active; 'I' for Inactive)
REMARK    1  A    between atoms: C_1  and  C_2
REMARK    2  A    between atoms: C_2  and  N_3
REMARK    3  A    between atoms: N_3  and  C_4
REMARK    4  A    between atoms: N_3  and  C_11
REMARK    5  A    between atoms: C_4  and  C_5
REMARK    6  A    between atoms: C_11  and  C_12
REMARK    7  A    between atoms: C_16  and  C_18
REMARK                            x       y       z     vdW  Elec       q    Type
REMARK                         _______ _______ _______ _____ _____    ______ ____
ROOT
ATOM      1  C   UNL     1      48.491   7.762  13.013  0.00  0.00    +0.000 C 
ATOM      2  C   UNL     1      47.437   8.656  12.331  0.00  0.00    +0.000 C 
ATOM      3  C   UNL     1      46.010   8.320  12.764  0.00  0.00    +0.000 C 
ATOM      4  N   UNL     1      45.729   6.899  12.555  0.00  0.00    +0.000 N 
ATOM      5  C   UNL     1      44.629   6.553  11.755  0.00  0.00    +0.000 C 
ATOM      6  O   UNL     1      43.899   7.415  11.269  0.00  0.00    +0.000 OA
ATOM      7  C   UNL     1      46.680   5.990  13.204  0.00  0.00    +0.000 C 
ATOM      8  C   UNL     1      48.114   6.291  12.794  0.00  0.00    +0.000 C 
ENDROOT
BRANCH   5   9
ATOM      9  C   UNL     1      44.332   5.135  11.506  0.00  0.00    +0.000 A 
ATOM     10  C   UNL     1      43.470   4.376  12.279  0.00  0.00    +0.000 A 
ATOM     11  S   UNL     1      43.359   2.749  11.776  0.00  0.00    +0.000 S 
ATOM     12  C   UNL     1      44.292   3.064  10.386  0.00  0.00    +0.000 A 
ATOM     13  N   UNL     1      44.499   2.093   9.458  0.00  0.00    +0.000 NA
ATOM     14  C   UNL     1      45.151   2.491   8.417  0.00  0.00    +0.000 A 
ATOM     15  N   UNL     1      45.639   3.759   8.238  0.00  0.00    +0.000 N 
ATOM     16  C   UNL     1      45.548   4.744   9.200  0.00  0.00    +0.000 A 
ATOM     17  O   UNL     1      46.137   5.812   9.050  0.00  0.00    +0.000 OA
ATOM     18  C   UNL     1      44.749   4.367  10.353  0.00  0.00    +0.000 A 
ATOM     19  H   UNL     1      46.165   3.997   7.410  0.00  0.00    +0.000 HD
ENDBRANCH   5   9
BRANCH   1  20
ATOM     20  C   UNL     1      48.677   8.120  14.513  0.00  0.00    +0.000 C 
BRANCH  20  21
ATOM     21  N   UNL     1      50.009   8.685  14.858  0.00  0.00    +0.000 NA
BRANCH  21  23
ATOM     22  C   UNL     1      50.667   6.652  16.239  0.00  0.00    +0.000 C 
ATOM     23  C   UNL     1      50.460   8.162  16.169  0.00  0.00    +0.000 C 
ENDBRANCH  21  23
BRANCH  21  24
ATOM     24  C   UNL     1      50.998   8.337  13.801  0.00  0.00    +0.000 C 
BRANCH  24  25
ATOM     25  C   UNL     1      52.335   9.057  13.849  0.00  0.00    +0.000 A 
ATOM     26  C   UNL     1      52.402  10.451  13.838  0.00  0.00    +0.000 A 
ATOM     27  C   UNL     1      53.640  11.069  13.996  0.00  0.00    +0.000 A 
ATOM     28  C   UNL     1      54.776  10.287  14.163  0.00  0.00    +0.000 A 
ATOM     29  C   UNL     1      54.628   8.910  14.148  0.00  0.00    +0.000 A 
ATOM     30  N   UNL     1      53.443   8.284  13.992  0.00  0.00    +0.000 NA
ENDBRANCH  24  25
ENDBRANCH  21  24
ENDBRANCH  20  21
ENDBRANCH   1  20
TORSDOF 6
ENDMDL
MODEL 8
REMARK VINA RESULT:    -5.540      3.572      8.678
REMARK INTER + INTRA:          -8.795
REMARK INTER:                  -8.326
REMARK INTRA:                  -0.469
REMARK UNBOUND:                -1.313
REMARK  Name = 
REMARK  7 active torsions:
REMARK  status: ('A' for Active; 'I' for Inactive)
REMARK    1  A    between atoms: C_1  and  C_2
REMARK    2  A    between atoms: C_2  and  N_3
REMARK    3  A    between atoms: N_3  and  C_4
REMARK    4  A    between atoms: N_3  and  C_11
REMARK    5  A    between atoms: C_4  and  C_5
REMARK    6  A    between atoms: C_11  and  C_12
REMARK    7  A    between atoms: C_16  and  C_18
REMARK                            x       y       z     vdW  Elec       q    Type
REMARK                         _______ _______ _______ _____ _____    ______ ____
ROOT
ATOM      1  C   UNL     1      46.979   4.631  12.848  0.00  0.00    +0.000 C 
ATOM      2  C   UNL     1      46.989   3.566  13.961  0.00  0.00    +0.000 C 
ATOM      3  C   UNL     1      46.707   4.155  15.344  0.00  0.00    +0.000 C 
ATOM      4  N   UNL     1      47.635   5.249  15.636  0.00  0.00    +0.000 N 
ATOM      5  C   UNL     1      48.414   5.162  16.801  0.00  0.00    +0.000 C 
ATOM      6  O   UNL     1      48.299   4.213  17.574  0.00  0.00    +0.000 OA
ATOM      7  C   UNL     1      47.655   6.314  14.628  0.00  0.00    +0.000 C 
ATOM      8  C   UNL     1      47.936   5.766  13.237  0.00  0.00    +0.000 C 
ENDROOT
BRANCH   5   9
ATOM      9  C   UNL     1      49.373   6.232  17.113  0.00  0.00    +0.000 A 
ATOM     10  C   UNL     1      49.016   7.548  17.348  0.00  0.00    +0.000 A 
ATOM     11  S   UNL     1      50.348   8.573  17.639  0.00  0.00    +0.000 S 
ATOM     12  C   UNL     1      51.421   7.251  17.669  0.00  0.00    +0.000 A 
ATOM     13  N   UNL     1      52.734   7.433  17.971  0.00  0.00    +0.000 NA
ATOM     14  C   UNL     1      53.414   6.337  18.041  0.00  0.00    +0.000 A 
ATOM     15  N   UNL     1      52.906   5.085  17.806  0.00  0.00    +0.000 N 
ATOM     16  C   UNL     1      51.609   4.865  17.390  0.00  0.00    +0.000 A 
ATOM     17  O   UNL     1      51.254   3.741  17.044  0.00  0.00    +0.000 OA
ATOM     18  C   UNL     1      50.784   6.060  17.379  0.00  0.00    +0.000 A 
ATOM     19  H   UNL     1      53.501   4.271  17.852  0.00  0.00    +0.000 HD
ENDBRANCH   5   9
BRANCH   1  20
ATOM     20  C   UNL     1      45.544   5.134  12.534  0.00  0.00    +0.000 C 
BRANCH  20  21
ATOM     21  N   UNL     1      44.753   4.242  11.644  0.00  0.00    +0.000 NA
BRANCH  21  23
ATOM     22  C   UNL     1      42.563   5.437  12.139  0.00  0.00    +0.000 C 
ATOM     23  C   UNL     1      43.361   4.136  12.137  0.00  0.00    +0.000 C 
ENDBRANCH  21  23
BRANCH  21  24
ATOM     24  C   UNL     1      44.765   4.771  10.253  0.00  0.00    +0.000 C 
BRANCH  24  25
ATOM     25  C   UNL     1      45.466   3.925   9.203  0.00  0.00    +0.000 A 
ATOM     26  C   UNL     1      45.430   2.531   9.261  0.00  0.00    +0.000 A 
ATOM     27  C   UNL     1      45.990   1.797   8.218  0.00  0.00    +0.000 A 
ATOM     28  C   UNL     1      46.567   2.466   7.147  0.00  0.00    +0.000 A 
ATOM     29  C   UNL     1      46.576   3.850   7.170  0.00  0.00    +0.000 A 
ATOM     30  N   UNL     1      46.046   4.587   8.168  0.00  0.00    +0.000 NA
ENDBRANCH  24  25
ENDBRANCH  21  24
ENDBRANCH  20  21
ENDBRANCH   1  20
TORSDOF 6
ENDMDL
MODEL 9
REMARK VINA RESULT:    -5.021      3.799      7.999
REMARK INTER + INTRA:          -8.095
REMARK INTER:                  -7.044
REMARK INTRA:                  -1.050
REMARK UNBOUND:                -1.313
REMARK  Name = 
REMARK  7 active torsions:
REMARK  status: ('A' for Active; 'I' for Inactive)
REMARK    1  A    between atoms: C_1  and  C_2
REMARK    2  A    between atoms: C_2  and  N_3
REMARK    3  A    between atoms: N_3  and  C_4
REMARK    4  A    between atoms: N_3  and  C_11
REMARK    5  A    between atoms: C_4  and  C_5
REMARK    6  A    between atoms: C_11  and  C_12
REMARK    7  A    between atoms: C_16  and  C_18
REMARK                            x       y       z     vdW  Elec       q    Type
REMARK                         _______ _______ _______ _____ _____    ______ ____
ROOT
ATOM      1  C   UNL     1      48.726   9.119  13.461  0.00  0.00    +0.000 C 
ATOM      2  C   UNL     1      50.259   9.085  13.613  0.00  0.00    +0.000 C 
ATOM      3  C   UNL     1      50.758   7.804  14.282  0.00  0.00    +0.000 C 
ATOM      4  N   UNL     1      50.085   7.597  15.565  0.00  0.00    +0.000 N 
ATOM      5  C   UNL     1      50.879   7.461  16.714  0.00  0.00    +0.000 C 
ATOM      6  O   UNL     1      52.106   7.479  16.645  0.00  0.00    +0.000 OA
ATOM      7  C   UNL     1      48.620   7.589  15.488  0.00  0.00    +0.000 C 
ATOM      8  C   UNL     1      48.085   8.852  14.829  0.00  0.00    +0.000 C 
ENDROOT
BRANCH   5   9
ATOM      9  C   UNL     1      50.235   7.275  18.022  0.00  0.00    +0.000 A 
ATOM     10  C   UNL     1      49.840   8.314  18.846  0.00  0.00    +0.000 A 
ATOM     11  S   UNL     1      49.162   7.793  20.323  0.00  0.00    +0.000 S 
ATOM     12  C   UNL     1      49.184   6.167  19.814  0.00  0.00    +0.000 A 
ATOM     13  N   UNL     1      48.644   5.192  20.592  0.00  0.00    +0.000 NA
ATOM     14  C   UNL     1      48.653   4.021  20.049  0.00  0.00    +0.000 A 
ATOM     15  N   UNL     1      49.179   3.735  18.816  0.00  0.00    +0.000 N 
ATOM     16  C   UNL     1      49.834   4.670  18.041  0.00  0.00    +0.000 A 
ATOM     17  O   UNL     1      50.421   4.324  17.019  0.00  0.00    +0.000 OA
ATOM     18  C   UNL     1      49.775   6.020  18.574  0.00  0.00    +0.000 A 
ATOM     19  H   UNL     1      49.177   2.790  18.461  0.00  0.00    +0.000 HD
ENDBRANCH   5   9
BRANCH   1  20
ATOM     20  C   UNL     1      48.226   8.143  12.361  0.00  0.00    +0.000 C 
BRANCH  20  21
ATOM     21  N   UNL     1      46.833   7.654  12.550  0.00  0.00    +0.000 NA
BRANCH  21  23
ATOM     22  C   UNL     1      45.158   9.567  12.487  0.00  0.00    +0.000 C 
ATOM     23  C   UNL     1      45.896   8.461  11.736  0.00  0.00    +0.000 C 
ENDBRANCH  21  23
BRANCH  21  24
ATOM     24  C   UNL     1      46.742   6.219  12.165  0.00  0.00    +0.000 C 
BRANCH  24  25
ATOM     25  C   UNL     1      45.348   5.656  11.942  0.00  0.00    +0.000 A 
ATOM     26  C   UNL     1      44.973   5.135  10.702  0.00  0.00    +0.000 A 
ATOM     27  C   UNL     1      43.726   4.528  10.574  0.00  0.00    +0.000 A 
ATOM     28  C   UNL     1      42.887   4.454  11.679  0.00  0.00    +0.000 A 
ATOM     29  C   UNL     1      43.326   5.008  12.869  0.00  0.00    +0.000 A 
ATOM     30  N   UNL     1      44.526   5.606  13.022  0.00  0.00    +0.000 NA
ENDBRANCH  24  25
ENDBRANCH  21  24
ENDBRANCH  20  21
ENDBRANCH   1  20
TORSDOF 6
ENDMDL
