MODEL 1
REMARK VINA RESULT:    -7.927      0.000      0.000
REMARK INTER + INTRA:         -11.294
REMARK INTER:                 -10.708
REMARK INTRA:                  -0.586
REMARK UNBOUND:                -0.586
REMARK  Name = 
REMARK  7 active torsions:
REMARK  status: ('A' for Active; 'I' for Inactive)
REMARK    1  A    between atoms: N_1  and  C_2
REMARK    2  A    between atoms: C_2  and  C_3
REMARK    3  A    between atoms: C_6  and  C_7
REMARK    4  A    between atoms: C_7  and  N_8
REMARK    5  A    between atoms: N_8  and  C_9
REMARK    6  A    between atoms: C_13  and  C_14
REMARK    7  A    between atoms: C_14  and  O_16
REMARK                            x       y       z     vdW  Elec       q    Type
REMARK                         _______ _______ _______ _____ _____    ______ ____
ROOT
ATOM      1  N   UNL     1      44.339   5.549  10.596  0.00  0.00    +0.000 N 
ATOM      2  H   UNL     1      44.340   6.142   9.769  0.00  0.00    +0.000 HD
ENDROOT
BRANCH   1   3
ATOM      3  C   UNL     1      45.402   5.808  11.463  0.00  0.00    +0.000 A 
ATOM      4  C   UNL     1      46.338   6.831  11.260  0.00  0.00    +0.000 A 
ATOM      5  C   UNL     1      47.436   7.000  12.109  0.00  0.00    +0.000 A 
ATOM      6  C   UNL     1      47.641   6.125  13.171  0.00  0.00    +0.000 A 
ATOM      7  C   UNL     1      46.736   5.081  13.383  0.00  0.00    +0.000 A 
ATOM      8  C   UNL     1      45.641   4.916  12.519  0.00  0.00    +0.000 A 
BRANCH   7   9
ATOM      9  C   UNL     1      46.925   4.095  14.473  0.00  0.00    +0.000 C 
ATOM     10  O   UNL     1      47.383   2.980  14.293  0.00  0.00    +0.000 OA
BRANCH   9  11
ATOM     11  O   UNL     1      46.501   4.529  15.680  0.00  0.00    +0.000 OA
ATOM     12  H   UNL     1      46.615   3.893  16.409  0.00  0.00    +0.000 HD
ENDBRANCH   9  11
ENDBRANCH   7   9
ENDBRANCH   1   3
BRANCH   1  13
ATOM     13  C   UNL     1      43.918   4.182  10.329  0.00  0.00    +0.000 C 
BRANCH  13  17
ATOM     14  C   UNL     1      46.613   2.326   7.480  0.00  0.00    +0.000 A 
ATOM     15  C   UNL     1      46.402   3.712   7.468  0.00  0.00    +0.000 A 
ATOM     16  C   UNL     1      45.517   4.310   8.373  0.00  0.00    +0.000 A 
ATOM     17  C   UNL     1      44.828   3.533   9.311  0.00  0.00    +0.000 A 
ATOM     18  C   UNL     1      45.008   2.143   9.299  0.00  0.00    +0.000 A 
ATOM     19  C   UNL     1      45.895   1.547   8.398  0.00  0.00    +0.000 A 
BRANCH  14  20
ATOM     20  C   UNL     1      47.575   1.685   6.512  0.00  0.00    +0.000 C 
BRANCH  20  21
ATOM     21  N   UNL     1      48.717   2.550   6.232  0.00  0.00    +0.000 NA
ATOM     22  H   UNL     1      49.571   1.997   6.272  0.00  0.00    +0.000 HD
ATOM     23  H   UNL     1      48.790   3.244   6.976  0.00  0.00    +0.000 HD
ENDBRANCH  20  21
ENDBRANCH  14  20
ENDBRANCH  13  17
ENDBRANCH   1  13
TORSDOF 7
ENDMDL
MODEL 2
REMARK VINA RESULT:    -7.672      1.761      2.241
REMARK INTER + INTRA:         -10.949
REMARK INTER:                 -10.220
REMARK INTRA:                  -0.729
REMARK UNBOUND:                -0.586
REMARK  Name = 
REMARK  7 active torsions:
REMARK  status: ('A' for Active; 'I' for Inactive)
REMARK    1  A    between atoms: N_1  and  C_2
REMARK    2  A    between atoms: C_2  and  C_3
REMARK    3  A    between atoms: C_6  and  C_7
REMARK    4  A    between atoms: C_7  and  N_8
REMARK    5  A    between atoms: N_8  and  C_9
REMARK    6  A    between atoms: C_13  and  C_14
REMARK    7  A    between atoms: C_14  and  O_16
REMARK                            x       y       z     vdW  Elec       q    Type
REMARK                         _______ _______ _______ _____ _____    ______ ____
ROOT
ATOM      1  N   UNL     1      44.458   5.766  10.691  0.00  0.00    +0.000 N 
ATOM      2  H   UNL     1      44.728   6.471  10.008  0.00  0.00    +0.000 HD
ENDROOT
BRANCH   1   3
ATOM      3  C   UNL     1      45.399   5.592  11.707  0.00  0.00    +0.000 A 
ATOM      4  C   UNL     1      45.167   4.829  12.859  0.00  0.00    +0.000 A 
ATOM      5  C   UNL     1      46.109   4.752  13.890  0.00  0.00    +0.000 A 
ATOM      6  C   UNL     1      47.300   5.465  13.805  0.00  0.00    +0.000 A 
ATOM      7  C   UNL     1      47.548   6.253  12.677  0.00  0.00    +0.000 A 
ATOM      8  C   UNL     1      46.591   6.329  11.651  0.00  0.00    +0.000 A 
BRANCH   7   9
ATOM      9  C   UNL     1      48.781   7.066  12.551  0.00  0.00    +0.000 C 
ATOM     10  O   UNL     1      48.982   7.835  11.627  0.00  0.00    +0.000 OA
BRANCH   9  11
ATOM     11  O   UNL     1      49.683   6.843  13.531  0.00  0.00    +0.000 OA
ATOM     12  H   UNL     1      50.607   6.769  13.230  0.00  0.00    +0.000 HD
ENDBRANCH   9  11
ENDBRANCH   7   9
ENDBRANCH   1   3
BRANCH   1  13
ATOM     13  C   UNL     1      43.781   4.620  10.104  0.00  0.00    +0.000 C 
BRANCH  13  17
ATOM     14  C   UNL     1      46.588   2.334   7.714  0.00  0.00    +0.000 A 
ATOM     15  C   UNL     1      46.490   3.725   7.568  0.00  0.00    +0.000 A 
ATOM     16  C   UNL     1      45.570   4.462   8.323  0.00  0.00    +0.000 A 
ATOM     17  C   UNL     1      44.732   3.821   9.244  0.00  0.00    +0.000 A 
ATOM     18  C   UNL     1      44.802   2.426   9.364  0.00  0.00    +0.000 A 
ATOM     19  C   UNL     1      45.725   1.692   8.612  0.00  0.00    +0.000 A 
BRANCH  14  20
ATOM     20  C   UNL     1      47.588   1.543   6.908  0.00  0.00    +0.000 C 
BRANCH  20  21
ATOM     21  N   UNL     1      48.593   2.407   6.296  0.00  0.00    +0.000 NA
ATOM     22  H   UNL     1      49.175   2.809   7.028  0.00  0.00    +0.000 HD
ATOM     23  H   UNL     1      48.119   3.188   5.844  0.00  0.00    +0.000 HD
ENDBRANCH  20  21
ENDBRANCH  14  20
ENDBRANCH  13  17
ENDBRANCH   1  13
TORSDOF 7
ENDMDL
MODEL 3
REMARK VINA RESULT:    -7.241      2.171      2.851
REMARK INTER + INTRA:         -10.367
REMARK INTER:                  -9.661
REMARK INTRA:                  -0.706
REMARK UNBOUND:                -0.586
REMARK  Name = 
REMARK  7 active torsions:
REMARK  status: ('A' for Active; 'I' for Inactive)
REMARK    1  A    between atoms: N_1  and  C_2
REMARK    2  A    between atoms: C_2  and  C_3
REMARK    3  A    between atoms: C_6  and  C_7
REMARK    4  A    between atoms: C_7  and  N_8
REMARK    5  A    between atoms: N_8  and  C_9
REMARK    6  A    between atoms: C_13  and  C_14
REMARK    7  A    between atoms: C_14  and  O_16
REMARK                            x       y       z     vdW  Elec       q    Type
REMARK                         _______ _______ _______ _____ _____    ______ ____
ROOT
ATOM      1  N   UNL     1      43.986   4.347  11.674  0.00  0.00    +0.000 N 
ATOM      2  H   UNL     1      43.175   4.329  12.289  0.00  0.00    +0.000 HD
ENDROOT
BRANCH   1   3
ATOM      3  C   UNL     1      45.069   5.046  12.210  0.00  0.00    +0.000 A 
ATOM      4  C   UNL     1      46.068   4.451  12.992  0.00  0.00    +0.000 A 
ATOM      5  C   UNL     1      47.089   5.206  13.578  0.00  0.00    +0.000 A 
ATOM      6  C   UNL     1      47.116   6.588  13.420  0.00  0.00    +0.000 A 
ATOM      7  C   UNL     1      46.119   7.211  12.664  0.00  0.00    +0.000 A 
ATOM      8  C   UNL     1      45.094   6.443  12.086  0.00  0.00    +0.000 A 
BRANCH   7   9
ATOM      9  C   UNL     1      46.075   8.683  12.495  0.00  0.00    +0.000 C 
ATOM     10  O   UNL     1      46.984   9.327  12.002  0.00  0.00    +0.000 OA
BRANCH   9  11
ATOM     11  O   UNL     1      44.950   9.253  12.981  0.00  0.00    +0.000 OA
ATOM     12  H   UNL     1      44.814  10.181  12.718  0.00  0.00    +0.000 HD
ENDBRANCH   9  11
ENDBRANCH   7   9
ENDBRANCH   1   3
BRANCH   1  13
ATOM     13  C   UNL     1      43.642   4.479  10.267  0.00  0.00    +0.000 C 
BRANCH  13  17
ATOM     14  C   UNL     1      46.460   2.403   7.703  0.00  0.00    +0.000 A 
ATOM     15  C   UNL     1      45.659   1.693   8.609  0.00  0.00    +0.000 A 
ATOM     16  C   UNL     1      44.764   2.363   9.452  0.00  0.00    +0.000 A 
ATOM     17  C   UNL     1      44.650   3.757   9.402  0.00  0.00    +0.000 A 
ATOM     18  C   UNL     1      45.478   4.472   8.524  0.00  0.00    +0.000 A 
ATOM     19  C   UNL     1      46.368   3.801   7.680  0.00  0.00    +0.000 A 
BRANCH  14  20
ATOM     20  C   UNL     1      47.415   1.678   6.788  0.00  0.00    +0.000 C 
BRANCH  20  21
ATOM     21  N   UNL     1      48.549   2.518   6.415  0.00  0.00    +0.000 NA
ATOM     22  H   UNL     1      49.342   1.923   6.184  0.00  0.00    +0.000 HD
ATOM     23  H   UNL     1      48.830   3.066   7.229  0.00  0.00    +0.000 HD
ENDBRANCH  20  21
ENDBRANCH  14  20
ENDBRANCH  13  17
ENDBRANCH   1  13
TORSDOF 7
ENDMDL
MODEL 4
REMARK VINA RESULT:    -7.230      3.462      6.544
REMARK INTER + INTRA:         -10.352
REMARK INTER:                  -9.721
REMARK INTRA:                  -0.632
REMARK UNBOUND:                -0.586
REMARK  Name = 
REMARK  7 active torsions:
REMARK  status: ('A' for Active; 'I' for Inactive)
REMARK    1  A    between atoms: N_1  and  C_2
REMARK    2  A    between atoms: C_2  and  C_3
REMARK    3  A    between atoms: C_6  and  C_7
REMARK    4  A    between atoms: C_7  and  N_8
REMARK    5  A    between atoms: N_8  and  C_9
REMARK    6  A    between atoms: C_13  and  C_14
REMARK    7  A    between atoms: C_14  and  O_16
REMARK                            x       y       z     vdW  Elec       q    Type
REMARK                         _______ _______ _______ _____ _____    ______ ____
ROOT
ATOM      1  N   UNL     1      44.328   4.542   8.863  0.00  0.00    +0.000 N 
ATOM      2  H   UNL     1      43.704   4.934   8.161  0.00  0.00    +0.000 HD
ENDROOT
BRANCH   1   3
ATOM      3  C   UNL     1      44.977   3.381   8.437  0.00  0.00    +0.000 A 
ATOM      4  C   UNL     1      44.906   2.158   9.117  0.00  0.00    +0.000 A 
ATOM      5  C   UNL     1      45.641   1.043   8.700  0.00  0.00    +0.000 A 
ATOM      6  C   UNL     1      46.494   1.136   7.605  0.00  0.00    +0.000 A 
ATOM      7  C   UNL     1      46.601   2.351   6.922  0.00  0.00    +0.000 A 
ATOM      8  C   UNL     1      45.865   3.466   7.355  0.00  0.00    +0.000 A 
BRANCH   7   9
ATOM      9  C   UNL     1      47.524   2.520   5.774  0.00  0.00    +0.000 C 
ATOM     10  O   UNL     1      47.279   3.240   4.821  0.00  0.00    +0.000 OA
BRANCH   9  11
ATOM     11  O   UNL     1      48.642   1.767   5.859  0.00  0.00    +0.000 OA
ATOM     12  H   UNL     1      48.513   0.883   6.248  0.00  0.00    +0.000 HD
ENDBRANCH   9  11
ENDBRANCH   7   9
ENDBRANCH   1   3
BRANCH   1  13
ATOM     13  C   UNL     1      43.814   4.647  10.220  0.00  0.00    +0.000 C 
BRANCH  13  17
ATOM     14  C   UNL     1      46.888   5.876  13.024  0.00  0.00    +0.000 A 
ATOM     15  C   UNL     1      46.638   6.622  11.863  0.00  0.00    +0.000 A 
ATOM     16  C   UNL     1      45.661   6.216  10.947  0.00  0.00    +0.000 A 
ATOM     17  C   UNL     1      44.911   5.056  11.176  0.00  0.00    +0.000 A 
ATOM     18  C   UNL     1      45.186   4.289  12.316  0.00  0.00    +0.000 A 
ATOM     19  C   UNL     1      46.160   4.698  13.233  0.00  0.00    +0.000 A 
BRANCH  14  20
ATOM     20  C   UNL     1      47.934   6.322  14.015  0.00  0.00    +0.000 C 
BRANCH  20  21
ATOM     21  N   UNL     1      47.889   5.530  15.241  0.00  0.00    +0.000 NA
ATOM     22  H   UNL     1      48.733   4.964  15.301  0.00  0.00    +0.000 HD
ATOM     23  H   UNL     1      47.109   4.876  15.178  0.00  0.00    +0.000 HD
ENDBRANCH  20  21
ENDBRANCH  14  20
ENDBRANCH  13  17
ENDBRANCH   1  13
TORSDOF 7
ENDMDL
MODEL 5
REMARK VINA RESULT:    -6.657      3.230      6.437
REMARK INTER + INTRA:          -9.578
REMARK INTER:                  -8.936
REMARK INTRA:                  -0.642
REMARK UNBOUND:                -0.586
REMARK  Name = 
REMARK  7 active torsions:
REMARK  status: ('A' for Active; 'I' for Inactive)
REMARK    1  A    between atoms: N_1  and  C_2
REMARK    2  A    between atoms: C_2  and  C_3
REMARK    3  A    between atoms: C_6  and  C_7
REMARK    4  A    between atoms: C_7  and  N_8
REMARK    5  A    between atoms: N_8  and  C_9
REMARK    6  A    between atoms: C_13  and  C_14
REMARK    7  A    between atoms: C_14  and  O_16
REMARK                            x       y       z     vdW  Elec       q    Type
REMARK                         _______ _______ _______ _____ _____    ______ ____
ROOT
ATOM      1  N   UNL     1      44.442   5.603  10.145  0.00  0.00    +0.000 N 
ATOM      2  H   UNL     1      43.894   6.210   9.539  0.00  0.00    +0.000 HD
ENDROOT
BRANCH   1   3
ATOM      3  C   UNL     1      44.747   4.372   9.562  0.00  0.00    +0.000 A 
ATOM      4  C   UNL     1      44.264   3.146  10.038  0.00  0.00    +0.000 A 
ATOM      5  C   UNL     1      44.664   1.930   9.474  0.00  0.00    +0.000 A 
ATOM      6  C   UNL     1      45.587   1.911   8.433  0.00  0.00    +0.000 A 
ATOM      7  C   UNL     1      46.102   3.119   7.953  0.00  0.00    +0.000 A 
ATOM      8  C   UNL     1      45.699   4.333   8.533  0.00  0.00    +0.000 A 
BRANCH   7   9
ATOM      9  C   UNL     1      47.118   3.158   6.873  0.00  0.00    +0.000 C 
ATOM     10  O   UNL     1      48.090   2.424   6.843  0.00  0.00    +0.000 OA
BRANCH   9  11
ATOM     11  O   UNL     1      46.891   4.117   5.948  0.00  0.00    +0.000 OA
ATOM     12  H   UNL     1      46.318   3.845   5.208  0.00  0.00    +0.000 HD
ENDBRANCH   9  11
ENDBRANCH   7   9
ENDBRANCH   1   3
BRANCH   1  13
ATOM     13  C   UNL     1      44.060   5.684  11.546  0.00  0.00    +0.000 C 
BRANCH  13  17
ATOM     14  C   UNL     1      47.601   6.362  13.959  0.00  0.00    +0.000 A 
ATOM     15  C   UNL     1      46.947   5.121  13.980  0.00  0.00    +0.000 A 
ATOM     16  C   UNL     1      45.792   4.908  13.218  0.00  0.00    +0.000 A 
ATOM     17  C   UNL     1      45.270   5.930  12.416  0.00  0.00    +0.000 A 
ATOM     18  C   UNL     1      45.901   7.182  12.424  0.00  0.00    +0.000 A 
ATOM     19  C   UNL     1      47.057   7.393  13.182  0.00  0.00    +0.000 A 
BRANCH  14  20
ATOM     20  C   UNL     1      48.851   6.587  14.772  0.00  0.00    +0.000 C 
BRANCH  20  21
ATOM     21  N   UNL     1      49.953   7.071  13.946  0.00  0.00    +0.000 NA
ATOM     22  H   UNL     1      49.940   8.089  13.938  0.00  0.00    +0.000 HD
ATOM     23  H   UNL     1      49.793   6.775  12.983  0.00  0.00    +0.000 HD
ENDBRANCH  20  21
ENDBRANCH  14  20
ENDBRANCH  13  17
ENDBRANCH   1  13
TORSDOF 7
ENDMDL
MODEL 6
REMARK VINA RESULT:    -6.556      1.565      2.252
REMARK INTER + INTRA:          -9.441
REMARK INTER:                  -8.949
REMARK INTRA:                  -0.492
REMARK UNBOUND:                -0.586
REMARK  Name = 
REMARK  7 active torsions:
REMARK  status: ('A' for Active; 'I' for Inactive)
REMARK    1  A    between atoms: N_1  and  C_2
REMARK    2  A    between atoms: C_2  and  C_3
REMARK    3  A    between atoms: C_6  and  C_7
REMARK    4  A    between atoms: C_7  and  N_8
REMARK    5  A    between atoms: N_8  and  C_9
REMARK    6  A    between atoms: C_13  and  C_14
REMARK    7  A    between atoms: C_14  and  O_16
REMARK                            x       y       z     vdW  Elec       q    Type
REMARK                         _______ _______ _______ _____ _____    ______ ____
ROOT
ATOM      1  N   UNL     1      43.934   5.991  10.804  0.00  0.00    +0.000 N 
ATOM      2  H   UNL     1      43.808   6.245   9.827  0.00  0.00    +0.000 HD
ENDROOT
BRANCH   1   3
ATOM      3  C   UNL     1      44.724   6.898  11.513  0.00  0.00    +0.000 A 
ATOM      4  C   UNL     1      44.606   8.289  11.395  0.00  0.00    +0.000 A 
ATOM      5  C   UNL     1      45.476   9.159  12.060  0.00  0.00    +0.000 A 
ATOM      6  C   UNL     1      46.511   8.653  12.840  0.00  0.00    +0.000 A 
ATOM      7  C   UNL     1      46.666   7.268  12.957  0.00  0.00    +0.000 A 
ATOM      8  C   UNL     1      45.791   6.404  12.278  0.00  0.00    +0.000 A 
BRANCH   7   9
ATOM      9  C   UNL     1      47.774   6.672  13.741  0.00  0.00    +0.000 C 
ATOM     10  O   UNL     1      48.269   7.212  14.716  0.00  0.00    +0.000 OA
BRANCH   9  11
ATOM     11  O   UNL     1      48.218   5.495  13.248  0.00  0.00    +0.000 OA
ATOM     12  H   UNL     1      48.008   5.338  12.310  0.00  0.00    +0.000 HD
ENDBRANCH   9  11
ENDBRANCH   7   9
ENDBRANCH   1   3
BRANCH   1  13
ATOM     13  C   UNL     1      44.080   4.559  11.016  0.00  0.00    +0.000 C 
BRANCH  13  17
ATOM     14  C   UNL     1      46.165   2.740   7.675  0.00  0.00    +0.000 A 
ATOM     15  C   UNL     1      45.601   1.947   8.684  0.00  0.00    +0.000 A 
ATOM     16  C   UNL     1      44.946   2.532   9.774  0.00  0.00    +0.000 A 
ATOM     17  C   UNL     1      44.838   3.924   9.874  0.00  0.00    +0.000 A 
ATOM     18  C   UNL     1      45.436   4.720   8.886  0.00  0.00    +0.000 A 
ATOM     19  C   UNL     1      46.086   4.134   7.795  0.00  0.00    +0.000 A 
BRANCH  14  20
ATOM     20  C   UNL     1      46.861   2.107   6.496  0.00  0.00    +0.000 C 
BRANCH  20  21
ATOM     21  N   UNL     1      48.088   1.425   6.895  0.00  0.00    +0.000 NA
ATOM     22  H   UNL     1      48.166   0.551   6.378  0.00  0.00    +0.000 HD
ATOM     23  H   UNL     1      48.014   1.169   7.880  0.00  0.00    +0.000 HD
ENDBRANCH  20  21
ENDBRANCH  14  20
ENDBRANCH  13  17
ENDBRANCH   1  13
TORSDOF 7
ENDMDL
MODEL 7
REMARK VINA RESULT:    -6.157      4.476      7.521
REMARK INTER + INTRA:          -8.902
REMARK INTER:                  -8.484
REMARK INTRA:                  -0.419
REMARK UNBOUND:                -0.586
REMARK  Name = 
REMARK  7 active torsions:
REMARK  status: ('A' for Active; 'I' for Inactive)
REMARK    1  A    between atoms: N_1  and  C_2
REMARK    2  A    between atoms: C_2  and  C_3
REMARK    3  A    between atoms: C_6  and  C_7
REMARK    4  A    between atoms: C_7  and  N_8
REMARK    5  A    between atoms: N_8  and  C_9
REMARK    6  A    between atoms: C_13  and  C_14
REMARK    7  A    between atoms: C_14  and  O_16
REMARK                            x       y       z     vdW  Elec       q    Type
REMARK                         _______ _______ _______ _____ _____    ______ ____
ROOT
ATOM      1  N   UNL     1      46.796   3.644  14.671  0.00  0.00    +0.000 N 
ATOM      2  H   UNL     1      47.435   2.874  14.486  0.00  0.00    +0.000 HD
ENDROOT
BRANCH   1   3
ATOM      3  C   UNL     1      46.471   4.378  13.529  0.00  0.00    +0.000 A 
ATOM      4  C   UNL     1      47.089   5.586  13.179  0.00  0.00    +0.000 A 
ATOM      5  C   UNL     1      46.673   6.330  12.070  0.00  0.00    +0.000 A 
ATOM      6  C   UNL     1      45.601   5.895  11.298  0.00  0.00    +0.000 A 
ATOM      7  C   UNL     1      44.951   4.704  11.637  0.00  0.00    +0.000 A 
ATOM      8  C   UNL     1      45.372   3.970  12.758  0.00  0.00    +0.000 A 
BRANCH   7   9
ATOM      9  C   UNL     1      43.778   4.213  10.876  0.00  0.00    +0.000 C 
ATOM     10  O   UNL     1      43.191   3.179  11.146  0.00  0.00    +0.000 OA
BRANCH   9  11
ATOM     11  O   UNL     1      43.446   4.993   9.824  0.00  0.00    +0.000 OA
ATOM     12  H   UNL     1      44.011   4.885   9.038  0.00  0.00    +0.000 HD
ENDBRANCH   9  11
ENDBRANCH   7   9
ENDBRANCH   1   3
BRANCH   1  13
ATOM     13  C   UNL     1      47.048   4.317  15.936  0.00  0.00    +0.000 C 
BRANCH  13  17
ATOM     14  C   UNL     1      50.851   3.001  17.558  0.00  0.00    +0.000 A 
ATOM     15  C   UNL     1      49.926   2.073  17.058  0.00  0.00    +0.000 A 
ATOM     16  C   UNL     1      48.690   2.494  16.554  0.00  0.00    +0.000 A 
ATOM     17  C   UNL     1      48.356   3.853  16.535  0.00  0.00    +0.000 A 
ATOM     18  C   UNL     1      49.264   4.779  17.069  0.00  0.00    +0.000 A 
ATOM     19  C   UNL     1      50.500   4.358  17.569  0.00  0.00    +0.000 A 
BRANCH  14  20
ATOM     20  C   UNL     1      52.187   2.547  18.090  0.00  0.00    +0.000 C 
BRANCH  20  21
ATOM     21  N   UNL     1      52.282   1.091  18.139  0.00  0.00    +0.000 NA
ATOM     22  H   UNL     1      51.344   0.696  18.126  0.00  0.00    +0.000 HD
ATOM     23  H   UNL     1      52.694   0.821  19.033  0.00  0.00    +0.000 HD
ENDBRANCH  20  21
ENDBRANCH  14  20
ENDBRANCH  13  17
ENDBRANCH   1  13
TORSDOF 7
ENDMDL
MODEL 8
REMARK VINA RESULT:    -5.919      1.438      2.110
REMARK INTER + INTRA:          -8.581
REMARK INTER:                  -8.069
REMARK INTRA:                  -0.512
REMARK UNBOUND:                -0.586
REMARK  Name = 
REMARK  7 active torsions:
REMARK  status: ('A' for Active; 'I' for Inactive)
REMARK    1  A    between atoms: N_1  and  C_2
REMARK    2  A    between atoms: C_2  and  C_3
REMARK    3  A    between atoms: C_6  and  C_7
REMARK    4  A    between atoms: C_7  and  N_8
REMARK    5  A    between atoms: N_8  and  C_9
REMARK    6  A    between atoms: C_13  and  C_14
REMARK    7  A    between atoms: C_14  and  O_16
REMARK                            x       y       z     vdW  Elec       q    Type
REMARK                         _______ _______ _______ _____ _____    ______ ____
ROOT
ATOM      1  N   UNL     1      45.148   4.077  12.529  0.00  0.00    +0.000 N 
ATOM      2  H   UNL     1      44.555   3.538  13.156  0.00  0.00    +0.000 HD
ENDROOT
BRANCH   1   3
ATOM      3  C   UNL     1      46.092   4.858  13.198  0.00  0.00    +0.000 A 
ATOM      4  C   UNL     1      46.738   5.960  12.623  0.00  0.00    +0.000 A 
ATOM      5  C   UNL     1      47.739   6.662  13.302  0.00  0.00    +0.000 A 
ATOM      6  C   UNL     1      48.141   6.255  14.570  0.00  0.00    +0.000 A 
ATOM      7  C   UNL     1      47.530   5.144  15.159  0.00  0.00    +0.000 A 
ATOM      8  C   UNL     1      46.531   4.442  14.464  0.00  0.00    +0.000 A 
BRANCH   7   9
ATOM      9  C   UNL     1      47.946   4.641  16.490  0.00  0.00    +0.000 C 
ATOM     10  O   UNL     1      47.158   4.396  17.388  0.00  0.00    +0.000 OA
BRANCH   9  11
ATOM     11  O   UNL     1      49.284   4.522  16.633  0.00  0.00    +0.000 OA
ATOM     12  H   UNL     1      49.570   4.024  17.420  0.00  0.00    +0.000 HD
ENDBRANCH   9  11
ENDBRANCH   7   9
ENDBRANCH   1   3
BRANCH   1  13
ATOM     13  C   UNL     1      44.442   4.600  11.369  0.00  0.00    +0.000 C 
BRANCH  13  17
ATOM     14  C   UNL     1      45.991   2.980   7.655  0.00  0.00    +0.000 A 
ATOM     15  C   UNL     1      45.431   2.137   8.626  0.00  0.00    +0.000 A 
ATOM     16  C   UNL     1      44.950   2.655   9.834  0.00  0.00    +0.000 A 
ATOM     17  C   UNL     1      45.015   4.029  10.093  0.00  0.00    +0.000 A 
ATOM     18  C   UNL     1      45.610   4.869   9.140  0.00  0.00    +0.000 A 
ATOM     19  C   UNL     1      46.086   4.350   7.932  0.00  0.00    +0.000 A 
BRANCH  14  20
ATOM     20  C   UNL     1      46.499   2.421   6.350  0.00  0.00    +0.000 C 
BRANCH  20  21
ATOM     21  N   UNL     1      47.611   3.204   5.822  0.00  0.00    +0.000 NA
ATOM     22  H   UNL     1      48.184   2.609   5.227  0.00  0.00    +0.000 HD
ATOM     23  H   UNL     1      48.206   3.489   6.600  0.00  0.00    +0.000 HD
ENDBRANCH  20  21
ENDBRANCH  14  20
ENDBRANCH  13  17
ENDBRANCH   1  13
TORSDOF 7
ENDMDL
MODEL 9
REMARK VINA RESULT:    -5.881      3.427      6.674
REMARK INTER + INTRA:          -8.530
REMARK INTER:                  -8.071
REMARK INTRA:                  -0.459
REMARK UNBOUND:                -0.586
REMARK  Name = 
REMARK  7 active torsions:
REMARK  status: ('A' for Active; 'I' for Inactive)
REMARK    1  A    between atoms: N_1  and  C_2
REMARK    2  A    between atoms: C_2  and  C_3
REMARK    3  A    between atoms: C_6  and  C_7
REMARK    4  A    between atoms: C_7  and  N_8
REMARK    5  A    between atoms: N_8  and  C_9
REMARK    6  A    between atoms: C_13  and  C_14
REMARK    7  A    between atoms: C_14  and  O_16
REMARK                            x       y       z     vdW  Elec       q    Type
REMARK                         _______ _______ _______ _____ _____    ______ ____
ROOT
ATOM      1  N   UNL     1      44.581   5.855  10.737  0.00  0.00    +0.000 N 
ATOM      2  H   UNL     1      43.678   6.314  10.634  0.00  0.00    +0.000 HD
ENDROOT
BRANCH   1   3
ATOM      3  C   UNL     1      44.656   4.631  10.069  0.00  0.00    +0.000 A 
ATOM      4  C   UNL     1      44.067   3.451  10.542  0.00  0.00    +0.000 A 
ATOM      5  C   UNL     1      44.240   2.229   9.883  0.00  0.00    +0.000 A 
ATOM      6  C   UNL     1      45.037   2.154   8.746  0.00  0.00    +0.000 A 
ATOM      7  C   UNL     1      45.656   3.311   8.265  0.00  0.00    +0.000 A 
ATOM      8  C   UNL     1      45.481   4.531   8.940  0.00  0.00    +0.000 A 
BRANCH   7   9
ATOM      9  C   UNL     1      46.548   3.284   7.082  0.00  0.00    +0.000 C 
ATOM     10  O   UNL     1      46.953   2.253   6.574  0.00  0.00    +0.000 OA
BRANCH   9  11
ATOM     11  O   UNL     1      46.911   4.510   6.645  0.00  0.00    +0.000 OA
ATOM     12  H   UNL     1      46.591   4.739   5.754  0.00  0.00    +0.000 HD
ENDBRANCH   9  11
ENDBRANCH   7   9
ENDBRANCH   1   3
BRANCH   1  13
ATOM     13  C   UNL     1      45.165   6.014  12.060  0.00  0.00    +0.000 C 
BRANCH  13  17
ATOM     14  C   UNL     1      47.835   9.434  12.039  0.00  0.00    +0.000 A 
ATOM     15  C   UNL     1      48.339   8.131  11.916  0.00  0.00    +0.000 A 
ATOM     16  C   UNL     1      47.481   7.025  11.944  0.00  0.00    +0.000 A 
ATOM     17  C   UNL     1      46.100   7.201  12.090  0.00  0.00    +0.000 A 
ATOM     18  C   UNL     1      45.598   8.500  12.252  0.00  0.00    +0.000 A 
ATOM     19  C   UNL     1      46.456   9.604  12.220  0.00  0.00    +0.000 A 
BRANCH  14  20
ATOM     20  C   UNL     1      48.760  10.624  11.998  0.00  0.00    +0.000 C 
BRANCH  20  21
ATOM     21  N   UNL     1      48.956  11.110  10.635  0.00  0.00    +0.000 NA
ATOM     22  H   UNL     1      49.861  11.571  10.574  0.00  0.00    +0.000 HD
ATOM     23  H   UNL     1      48.255  11.825  10.440  0.00  0.00    +0.000 HD
ENDBRANCH  20  21
ENDBRANCH  14  20
ENDBRANCH  13  17
ENDBRANCH   1  13
TORSDOF 7
ENDMDL
