MODEL 1
REMARK VINA RESULT:    -6.768      0.000      0.000
REMARK INTER + INTRA:          -9.668
REMARK INTER:                  -9.538
REMARK INTRA:                  -0.130
REMARK UNBOUND:                -0.130
REMARK  Name = 
REMARK  11 active torsions:
REMARK  status: ('A' for Active; 'I' for Inactive)
REMARK    1  A    between atoms: C_1  and  C_2
REMARK    2  A    between atoms: C_3  and  O_4
REMARK    3  A    between atoms: O_4  and  C_5
REMARK    4  A    between atoms: C_9  and  C_10
REMARK    5  A    between atoms: C_11  and  C_12
REMARK    6  A    between atoms: C_15  and  C_16
REMARK    7  A    between atoms: C_24  and  O_26
REMARK    8  A    between atoms: O_26  and  C_27
REMARK    9  A    between atoms: C_27  and  C_28
REMARK   10  A    between atoms: C_27  and  C_29
REMARK   11  A    between atoms: C_27  and  C_30
REMARK                            x       y       z     vdW  Elec       q    Type
REMARK                         _______ _______ _______ _____ _____    ______ ____
ROOT
ATOM      1  C   UNL     1      45.116   5.996  12.176  0.00  0.00    +0.000 A 
ATOM      2  C   UNL     1      45.377   5.147  13.250  0.00  0.00    +0.000 A 
ATOM      3  C   UNL     1      46.610   5.199  13.895  0.00  0.00    +0.000 A 
ATOM      4  C   UNL     1      47.603   6.063  13.433  0.00  0.00    +0.000 A 
ATOM      5  C   UNL     1      47.383   6.867  12.306  0.00  0.00    +0.000 A 
ATOM      6  C   UNL     1      46.124   6.829  11.687  0.00  0.00    +0.000 A 
ENDROOT
BRANCH   5   7
ATOM      7  C   UNL     1      48.466   7.643  11.677  0.00  0.00    +0.000 C 
ATOM      8  C   UNL     1      49.778   7.396  11.838  0.00  0.00    +0.000 C 
BRANCH   8   9
ATOM      9  C   UNL     1      50.859   8.096  11.131  0.00  0.00    +0.000 A 
ATOM     10  C   UNL     1      51.076   9.472  11.225  0.00  0.00    +0.000 A 
ATOM     11  C   UNL     1      52.142  10.059  10.543  0.00  0.00    +0.000 A 
ATOM     12  C   UNL     1      52.970   9.247   9.786  0.00  0.00    +0.000 A 
ATOM     13  N   UNL     1      52.808   7.899   9.667  0.00  0.00    +0.000 NA
ATOM     14  C   UNL     1      51.759   7.366  10.346  0.00  0.00    +0.000 A 
BRANCH  12  15
ATOM     15  C   UNL     1      54.129   9.854   9.048  0.00  0.00    +0.000 C 
ATOM     16  N   UNL     1      55.069   8.965   8.606  0.00  0.00    +0.000 N 
ATOM     17  O   UNL     1      54.237  11.058   8.857  0.00  0.00    +0.000 OA
ATOM     18  H   UNL     1      54.955   7.978   8.792  0.00  0.00    +0.000 HD
ATOM     19  H   UNL     1      55.886   9.310   8.114  0.00  0.00    +0.000 HD
ENDBRANCH  12  15
ENDBRANCH   8   9
ENDBRANCH   5   7
BRANCH   1  20
ATOM     20  O   UNL     1      43.853   5.913  11.644  0.00  0.00    +0.000 OA
BRANCH  20  23
ATOM     21  C   UNL     1      43.307   2.341  11.487  0.00  0.00    +0.000 C 
ATOM     22  C   UNL     1      44.220   3.444  10.990  0.00  0.00    +0.000 C 
ATOM     23  C   UNL     1      43.574   4.837  10.716  0.00  0.00    +0.000 C 
ATOM     24  C   UNL     1      44.419   4.855   9.417  0.00  0.00    +0.000 C 
ATOM     25  N   UNL     1      44.474   3.419   9.556  0.00  0.00    +0.000 N 
ATOM     26  C   UNL     1      44.783   2.415   8.692  0.00  0.00    +0.000 C 
ATOM     27  O   UNL     1      44.787   1.236   9.020  0.00  0.00    +0.000 OA
BRANCH  26  28
ATOM     28  O   UNL     1      45.084   2.884   7.444  0.00  0.00    +0.000 OA
BRANCH  28  29
ATOM     29  C   UNL     1      46.466   2.867   6.986  0.00  0.00    +0.000 C 
ATOM     30  C   UNL     1      47.191   1.610   7.480  0.00  0.00    +0.000 C 
ATOM     31  C   UNL     1      46.435   2.838   5.445  0.00  0.00    +0.000 C 
ATOM     32  C   UNL     1      47.202   4.147   7.403  0.00  0.00    +0.000 C 
ENDBRANCH  28  29
ENDBRANCH  26  28
ENDBRANCH  20  23
ENDBRANCH   1  20
TORSDOF 7
ENDMDL
MODEL 2
REMARK VINA RESULT:    -6.618      4.147      9.302
REMARK INTER + INTRA:          -9.456
REMARK INTER:                  -8.734
REMARK INTRA:                  -0.722
REMARK UNBOUND:                -0.130
REMARK  Name = 
REMARK  11 active torsions:
REMARK  status: ('A' for Active; 'I' for Inactive)
REMARK    1  A    between atoms: C_1  and  C_2
REMARK    2  A    between atoms: C_3  and  O_4
REMARK    3  A    between atoms: O_4  and  C_5
REMARK    4  A    between atoms: C_9  and  C_10
REMARK    5  A    between atoms: C_11  and  C_12
REMARK    6  A    between atoms: C_15  and  C_16
REMARK    7  A    between atoms: C_24  and  O_26
REMARK    8  A    between atoms: O_26  and  C_27
REMARK    9  A    between atoms: C_27  and  C_28
REMARK   10  A    between atoms: C_27  and  C_29
REMARK   11  A    between atoms: C_27  and  C_30
REMARK                            x       y       z     vdW  Elec       q    Type
REMARK                         _______ _______ _______ _____ _____    ______ ____
ROOT
ATOM      1  C   UNL     1      50.192   9.845  14.157  0.00  0.00    +0.000 A 
ATOM      2  C   UNL     1      50.978  10.567  13.259  0.00  0.00    +0.000 A 
ATOM      3  C   UNL     1      50.777  10.423  11.889  0.00  0.00    +0.000 A 
ATOM      4  C   UNL     1      49.828   9.518  11.413  0.00  0.00    +0.000 A 
ATOM      5  C   UNL     1      49.085   8.729  12.302  0.00  0.00    +0.000 A 
ATOM      6  C   UNL     1      49.273   8.909  13.681  0.00  0.00    +0.000 A 
ENDROOT
BRANCH   5   7
ATOM      7  C   UNL     1      48.218   7.632  11.835  0.00  0.00    +0.000 C 
ATOM      8  C   UNL     1      47.475   6.852  12.639  0.00  0.00    +0.000 C 
BRANCH   8   9
ATOM      9  C   UNL     1      46.527   5.828  12.174  0.00  0.00    +0.000 A 
ATOM     10  C   UNL     1      45.925   5.851  10.915  0.00  0.00    +0.000 A 
ATOM     11  C   UNL     1      45.056   4.827  10.539  0.00  0.00    +0.000 A 
ATOM     12  C   UNL     1      44.817   3.799  11.436  0.00  0.00    +0.000 A 
ATOM     13  N   UNL     1      45.384   3.724  12.672  0.00  0.00    +0.000 NA
ATOM     14  C   UNL     1      46.224   4.741  13.001  0.00  0.00    +0.000 A 
BRANCH  12  15
ATOM     15  C   UNL     1      43.891   2.681  11.051  0.00  0.00    +0.000 C 
ATOM     16  N   UNL     1      44.250   1.987   9.928  0.00  0.00    +0.000 N 
ATOM     17  O   UNL     1      42.882   2.405  11.686  0.00  0.00    +0.000 OA
ATOM     18  H   UNL     1      45.084   2.249   9.420  0.00  0.00    +0.000 HD
ATOM     19  H   UNL     1      43.660   1.230   9.602  0.00  0.00    +0.000 HD
ENDBRANCH  12  15
ENDBRANCH   8   9
ENDBRANCH   5   7
BRANCH   1  20
ATOM     20  O   UNL     1      50.423  10.099  15.487  0.00  0.00    +0.000 OA
BRANCH  20  23
ATOM     21  C   UNL     1      52.679   7.273  15.565  0.00  0.00    +0.000 C 
ATOM     22  C   UNL     1      51.212   7.646  15.636  0.00  0.00    +0.000 C 
ATOM     23  C   UNL     1      50.853   8.999  16.325  0.00  0.00    +0.000 C 
ATOM     24  C   UNL     1      49.708   8.218  17.021  0.00  0.00    +0.000 C 
ATOM     25  N   UNL     1      50.485   7.034  16.741  0.00  0.00    +0.000 N 
ATOM     26  C   UNL     1      50.458   5.768  17.236  0.00  0.00    +0.000 C 
ATOM     27  O   UNL     1      51.209   4.886  16.843  0.00  0.00    +0.000 OA
BRANCH  26  28
ATOM     28  O   UNL     1      49.503   5.614  18.202  0.00  0.00    +0.000 OA
BRANCH  28  29
ATOM     29  C   UNL     1      48.312   4.828  17.914  0.00  0.00    +0.000 C 
ATOM     30  C   UNL     1      48.473   3.388  18.414  0.00  0.00    +0.000 C 
ATOM     31  C   UNL     1      47.140   5.481  18.675  0.00  0.00    +0.000 C 
ATOM     32  C   UNL     1      47.968   4.875  16.420  0.00  0.00    +0.000 C 
ENDBRANCH  28  29
ENDBRANCH  26  28
ENDBRANCH  20  23
ENDBRANCH   1  20
TORSDOF 7
ENDMDL
MODEL 3
REMARK VINA RESULT:    -5.960      6.075      8.173
REMARK INTER + INTRA:          -8.528
REMARK INTER:                  -8.186
REMARK INTRA:                  -0.342
REMARK UNBOUND:                -0.130
REMARK  Name = 
REMARK  11 active torsions:
REMARK  status: ('A' for Active; 'I' for Inactive)
REMARK    1  A    between atoms: C_1  and  C_2
REMARK    2  A    between atoms: C_3  and  O_4
REMARK    3  A    between atoms: O_4  and  C_5
REMARK    4  A    between atoms: C_9  and  C_10
REMARK    5  A    between atoms: C_11  and  C_12
REMARK    6  A    between atoms: C_15  and  C_16
REMARK    7  A    between atoms: C_24  and  O_26
REMARK    8  A    between atoms: O_26  and  C_27
REMARK    9  A    between atoms: C_27  and  C_28
REMARK   10  A    between atoms: C_27  and  C_29
REMARK   11  A    between atoms: C_27  and  C_30
REMARK                            x       y       z     vdW  Elec       q    Type
REMARK                         _______ _______ _______ _____ _____    ______ ____
ROOT
ATOM      1  C   UNL     1      49.204   8.576  15.437  0.00  0.00    +0.000 A 
ATOM      2  C   UNL     1      48.277   8.960  16.405  0.00  0.00    +0.000 A 
ATOM      3  C   UNL     1      48.318   8.386  17.673  0.00  0.00    +0.000 A 
ATOM      4  C   UNL     1      49.251   7.389  17.959  0.00  0.00    +0.000 A 
ATOM      5  C   UNL     1      50.138   6.937  16.973  0.00  0.00    +0.000 A 
ATOM      6  C   UNL     1      50.110   7.548  15.710  0.00  0.00    +0.000 A 
ENDROOT
BRANCH   5   7
ATOM      7  C   UNL     1      51.002   5.761  17.178  0.00  0.00    +0.000 C 
ATOM      8  C   UNL     1      50.571   4.563  17.613  0.00  0.00    +0.000 C 
BRANCH   8   9
ATOM      9  C   UNL     1      51.405   3.357  17.718  0.00  0.00    +0.000 A 
ATOM     10  C   UNL     1      52.689   3.355  18.266  0.00  0.00    +0.000 A 
ATOM     11  C   UNL     1      53.408   2.162  18.354  0.00  0.00    +0.000 A 
ATOM     12  C   UNL     1      52.814   0.997  17.895  0.00  0.00    +0.000 A 
ATOM     13  N   UNL     1      51.563   0.944  17.360  0.00  0.00    +0.000 NA
ATOM     14  C   UNL     1      50.896   2.126  17.291  0.00  0.00    +0.000 A 
BRANCH  12  15
ATOM     15  C   UNL     1      53.565  -0.301  17.986  0.00  0.00    +0.000 C 
ATOM     16  N   UNL     1      53.023  -1.229  18.831  0.00  0.00    +0.000 N 
ATOM     17  O   UNL     1      54.592  -0.520  17.358  0.00  0.00    +0.000 OA
ATOM     18  H   UNL     1      52.179  -1.012  19.344  0.00  0.00    +0.000 HD
ATOM     19  H   UNL     1      53.488  -2.122  18.952  0.00  0.00    +0.000 HD
ENDBRANCH  12  15
ENDBRANCH   8   9
ENDBRANCH   5   7
BRANCH   1  20
ATOM     20  O   UNL     1      49.123   9.240  14.237  0.00  0.00    +0.000 OA
BRANCH  20  23
ATOM     21  C   UNL     1      46.801  10.152  11.619  0.00  0.00    +0.000 C 
ATOM     22  C   UNL     1      46.916   9.359  12.905  0.00  0.00    +0.000 C 
ATOM     23  C   UNL     1      48.286   8.673  13.201  0.00  0.00    +0.000 C 
ATOM     24  C   UNL     1      47.453   7.438  13.632  0.00  0.00    +0.000 C 
ATOM     25  N   UNL     1      46.394   8.001  12.828  0.00  0.00    +0.000 N 
ATOM     26  C   UNL     1      45.253   7.481  12.302  0.00  0.00    +0.000 C 
ATOM     27  O   UNL     1      44.461   8.147  11.648  0.00  0.00    +0.000 OA
BRANCH  26  28
ATOM     28  O   UNL     1      45.110   6.154  12.594  0.00  0.00    +0.000 OA
BRANCH  28  29
ATOM     29  C   UNL     1      44.843   5.208  11.520  0.00  0.00    +0.000 C 
ATOM     30  C   UNL     1      45.682   5.537  10.280  0.00  0.00    +0.000 C 
ATOM     31  C   UNL     1      45.251   3.812  12.029  0.00  0.00    +0.000 C 
ATOM     32  C   UNL     1      43.344   5.154  11.192  0.00  0.00    +0.000 C 
ENDBRANCH  28  29
ENDBRANCH  26  28
ENDBRANCH  20  23
ENDBRANCH   1  20
TORSDOF 7
ENDMDL
MODEL 4
REMARK VINA RESULT:    -5.926      4.532      5.566
REMARK INTER + INTRA:          -8.481
REMARK INTER:                  -8.475
REMARK INTRA:                  -0.006
REMARK UNBOUND:                -0.130
REMARK  Name = 
REMARK  11 active torsions:
REMARK  status: ('A' for Active; 'I' for Inactive)
REMARK    1  A    between atoms: C_1  and  C_2
REMARK    2  A    between atoms: C_3  and  O_4
REMARK    3  A    between atoms: O_4  and  C_5
REMARK    4  A    between atoms: C_9  and  C_10
REMARK    5  A    between atoms: C_11  and  C_12
REMARK    6  A    between atoms: C_15  and  C_16
REMARK    7  A    between atoms: C_24  and  O_26
REMARK    8  A    between atoms: O_26  and  C_27
REMARK    9  A    between atoms: C_27  and  C_28
REMARK   10  A    between atoms: C_27  and  C_29
REMARK   11  A    between atoms: C_27  and  C_30
REMARK                            x       y       z     vdW  Elec       q    Type
REMARK                         _______ _______ _______ _____ _____    ______ ____
ROOT
ATOM      1  C   UNL     1      46.353   8.176  12.772  0.00  0.00    +0.000 A 
ATOM      2  C   UNL     1      46.595   9.400  12.150  0.00  0.00    +0.000 A 
ATOM      3  C   UNL     1      47.894   9.895  12.069  0.00  0.00    +0.000 A 
ATOM      4  C   UNL     1      48.946   9.193  12.658  0.00  0.00    +0.000 A 
ATOM      5  C   UNL     1      48.708   8.000  13.354  0.00  0.00    +0.000 A 
ATOM      6  C   UNL     1      47.399   7.495  13.398  0.00  0.00    +0.000 A 
ENDROOT
BRANCH   5   7
ATOM      7  C   UNL     1      49.757   7.336  14.148  0.00  0.00    +0.000 C 
ATOM      8  C   UNL     1      49.750   7.230  15.488  0.00  0.00    +0.000 C 
BRANCH   8   9
ATOM      9  C   UNL     1      50.735   6.477  16.277  0.00  0.00    +0.000 A 
ATOM     10  C   UNL     1      52.098   6.782  16.300  0.00  0.00    +0.000 A 
ATOM     11  C   UNL     1      52.966   6.035  17.098  0.00  0.00    +0.000 A 
ATOM     12  C   UNL     1      52.443   5.003  17.859  0.00  0.00    +0.000 A 
ATOM     13  N   UNL     1      51.122   4.670  17.878  0.00  0.00    +0.000 NA
ATOM     14  C   UNL     1      50.309   5.420  17.089  0.00  0.00    +0.000 A 
BRANCH  12  15
ATOM     15  C   UNL     1      53.356   4.190  18.730  0.00  0.00    +0.000 C 
ATOM     16  N   UNL     1      54.655   4.122  18.310  0.00  0.00    +0.000 N 
ATOM     17  O   UNL     1      52.974   3.620  19.744  0.00  0.00    +0.000 OA
ATOM     18  H   UNL     1      54.935   4.595  17.461  0.00  0.00    +0.000 HD
ATOM     19  H   UNL     1      55.323   3.576  18.843  0.00  0.00    +0.000 HD
ENDBRANCH  12  15
ENDBRANCH   8   9
ENDBRANCH   5   7
BRANCH   1  20
ATOM     20  O   UNL     1      45.050   7.743  12.750  0.00  0.00    +0.000 OA
BRANCH  20  23
ATOM     21  C   UNL     1      42.396   5.494  11.762  0.00  0.00    +0.000 C 
ATOM     22  C   UNL     1      43.874   5.542  12.093  0.00  0.00    +0.000 C 
ATOM     23  C   UNL     1      44.653   6.834  11.696  0.00  0.00    +0.000 C 
ATOM     24  C   UNL     1      45.769   5.880  11.197  0.00  0.00    +0.000 C 
ATOM     25  N   UNL     1      44.734   4.876  11.124  0.00  0.00    +0.000 N 
ATOM     26  C   UNL     1      44.648   3.677  10.488  0.00  0.00    +0.000 C 
ATOM     27  O   UNL     1      43.666   2.952  10.569  0.00  0.00    +0.000 OA
BRANCH  26  28
ATOM     28  O   UNL     1      45.774   3.396   9.766  0.00  0.00    +0.000 OA
BRANCH  28  29
ATOM     29  C   UNL     1      45.647   2.932   8.392  0.00  0.00    +0.000 C 
ATOM     30  C   UNL     1      45.736   1.403   8.321  0.00  0.00    +0.000 C 
ATOM     31  C   UNL     1      44.254   3.364   7.891  0.00  0.00    +0.000 C 
ATOM     32  C   UNL     1      46.686   3.603   7.484  0.00  0.00    +0.000 C 
ENDBRANCH  28  29
ENDBRANCH  26  28
ENDBRANCH  20  23
ENDBRANCH   1  20
TORSDOF 7
ENDMDL
MODEL 5
REMARK VINA RESULT:    -5.087      5.649      7.984
REMARK INTER + INTRA:          -7.298
REMARK INTER:                  -6.853
REMARK INTRA:                  -0.445
REMARK UNBOUND:                -0.130
REMARK  Name = 
REMARK  11 active torsions:
REMARK  status: ('A' for Active; 'I' for Inactive)
REMARK    1  A    between atoms: C_1  and  C_2
REMARK    2  A    between atoms: C_3  and  O_4
REMARK    3  A    between atoms: O_4  and  C_5
REMARK    4  A    between atoms: C_9  and  C_10
REMARK    5  A    between atoms: C_11  and  C_12
REMARK    6  A    between atoms: C_15  and  C_16
REMARK    7  A    between atoms: C_24  and  O_26
REMARK    8  A    between atoms: O_26  and  C_27
REMARK    9  A    between atoms: C_27  and  C_28
REMARK   10  A    between atoms: C_27  and  C_29
REMARK   11  A    between atoms: C_27  and  C_30
REMARK                            x       y       z     vdW  Elec       q    Type
REMARK                         _______ _______ _______ _____ _____    ______ ____
ROOT
ATOM      1  C   UNL     1      50.742   9.346  14.092  0.00  0.00    +0.000 A 
ATOM      2  C   UNL     1      49.826  10.366  13.840  0.00  0.00    +0.000 A 
ATOM      3  C   UNL     1      49.191  10.442  12.603  0.00  0.00    +0.000 A 
ATOM      4  C   UNL     1      49.512   9.530  11.597  0.00  0.00    +0.000 A 
ATOM      5  C   UNL     1      50.487   8.547  11.809  0.00  0.00    +0.000 A 
ATOM      6  C   UNL     1      51.094   8.460  13.071  0.00  0.00    +0.000 A 
ENDROOT
BRANCH   5   7
ATOM      7  C   UNL     1      50.988   7.695  10.716  0.00  0.00    +0.000 C 
ATOM      8  C   UNL     1      52.224   7.772  10.191  0.00  0.00    +0.000 C 
BRANCH   8   9
ATOM      9  C   UNL     1      52.765   6.856   9.176  0.00  0.00    +0.000 A 
ATOM     10  C   UNL     1      53.689   5.849   9.463  0.00  0.00    +0.000 A 
ATOM     11  C   UNL     1      54.135   5.003   8.447  0.00  0.00    +0.000 A 
ATOM     12  C   UNL     1      53.636   5.185   7.168  0.00  0.00    +0.000 A 
ATOM     13  N   UNL     1      52.728   6.145   6.837  0.00  0.00    +0.000 NA
ATOM     14  C   UNL     1      52.319   6.949   7.854  0.00  0.00    +0.000 A 
BRANCH  12  15
ATOM     15  C   UNL     1      54.095   4.281   6.059  0.00  0.00    +0.000 C 
ATOM     16  N   UNL     1      54.520   3.043   6.455  0.00  0.00    +0.000 N 
ATOM     17  O   UNL     1      54.098   4.621   4.883  0.00  0.00    +0.000 OA
ATOM     18  H   UNL     1      54.516   2.799   7.436  0.00  0.00    +0.000 HD
ATOM     19  H   UNL     1      54.859   2.388   5.758  0.00  0.00    +0.000 HD
ENDBRANCH  12  15
ENDBRANCH   8   9
ENDBRANCH   5   7
BRANCH   1  20
ATOM     20  O   UNL     1      51.270   9.319  15.359  0.00  0.00    +0.000 OA
BRANCH  20  23
ATOM     21  C   UNL     1      51.901   7.783  18.572  0.00  0.00    +0.000 C 
ATOM     22  C   UNL     1      51.691   7.466  17.105  0.00  0.00    +0.000 C 
ATOM     23  C   UNL     1      50.710   8.383  16.310  0.00  0.00    +0.000 C 
ATOM     24  C   UNL     1      50.156   7.073  15.693  0.00  0.00    +0.000 C 
ATOM     25  N   UNL     1      50.718   6.412  16.847  0.00  0.00    +0.000 N 
ATOM     26  C   UNL     1      50.510   5.192  17.411  0.00  0.00    +0.000 C 
ATOM     27  O   UNL     1      51.116   4.808  18.402  0.00  0.00    +0.000 OA
BRANCH  26  28
ATOM     28  O   UNL     1      49.563   4.470  16.740  0.00  0.00    +0.000 OA
BRANCH  28  29
ATOM     29  C   UNL     1      48.247   4.287  17.335  0.00  0.00    +0.000 C 
ATOM     30  C   UNL     1      47.856   5.503  18.184  0.00  0.00    +0.000 C 
ATOM     31  C   UNL     1      47.237   4.155  16.178  0.00  0.00    +0.000 C 
ATOM     32  C   UNL     1      48.184   2.986  18.146  0.00  0.00    +0.000 C 
ENDBRANCH  28  29
ENDBRANCH  26  28
ENDBRANCH  20  23
ENDBRANCH   1  20
TORSDOF 7
ENDMDL
MODEL 6
REMARK VINA RESULT:    -5.055      4.666      7.875
REMARK INTER + INTRA:          -7.253
REMARK INTER:                  -7.392
REMARK INTRA:                   0.138
REMARK UNBOUND:                -0.130
REMARK  Name = 
REMARK  11 active torsions:
REMARK  status: ('A' for Active; 'I' for Inactive)
REMARK    1  A    between atoms: C_1  and  C_2
REMARK    2  A    between atoms: C_3  and  O_4
REMARK    3  A    between atoms: O_4  and  C_5
REMARK    4  A    between atoms: C_9  and  C_10
REMARK    5  A    between atoms: C_11  and  C_12
REMARK    6  A    between atoms: C_15  and  C_16
REMARK    7  A    between atoms: C_24  and  O_26
REMARK    8  A    between atoms: O_26  and  C_27
REMARK    9  A    between atoms: C_27  and  C_28
REMARK   10  A    between atoms: C_27  and  C_29
REMARK   11  A    between atoms: C_27  and  C_30
REMARK                            x       y       z     vdW  Elec       q    Type
REMARK                         _______ _______ _______ _____ _____    ______ ____
ROOT
ATOM      1  C   UNL     1      44.400   5.663  11.626  0.00  0.00    +0.000 A 
ATOM      2  C   UNL     1      44.102   4.633  10.735  0.00  0.00    +0.000 A 
ATOM      3  C   UNL     1      44.534   3.336  11.001  0.00  0.00    +0.000 A 
ATOM      4  C   UNL     1      45.311   3.078  12.131  0.00  0.00    +0.000 A 
ATOM      5  C   UNL     1      45.685   4.116  12.994  0.00  0.00    +0.000 A 
ATOM      6  C   UNL     1      45.213   5.412  12.733  0.00  0.00    +0.000 A 
ENDROOT
BRANCH   5   7
ATOM      7  C   UNL     1      46.658   3.916  14.083  0.00  0.00    +0.000 C 
ATOM      8  C   UNL     1      47.130   4.894  14.875  0.00  0.00    +0.000 C 
BRANCH   8   9
ATOM      9  C   UNL     1      48.017   4.687  16.030  0.00  0.00    +0.000 A 
ATOM     10  C   UNL     1      48.268   3.434  16.592  0.00  0.00    +0.000 A 
ATOM     11  C   UNL     1      49.145   3.318  17.671  0.00  0.00    +0.000 A 
ATOM     12  C   UNL     1      49.753   4.464  18.156  0.00  0.00    +0.000 A 
ATOM     13  N   UNL     1      49.548   5.708  17.640  0.00  0.00    +0.000 NA
ATOM     14  C   UNL     1      48.689   5.779  16.590  0.00  0.00    +0.000 A 
BRANCH  12  15
ATOM     15  C   UNL     1      50.706   4.363  19.313  0.00  0.00    +0.000 C 
ATOM     16  N   UNL     1      50.156   4.593  20.543  0.00  0.00    +0.000 N 
ATOM     17  O   UNL     1      51.893   4.099  19.174  0.00  0.00    +0.000 OA
ATOM     18  H   UNL     1      49.174   4.821  20.621  0.00  0.00    +0.000 HD
ATOM     19  H   UNL     1      50.747   4.557  21.366  0.00  0.00    +0.000 HD
ENDBRANCH  12  15
ENDBRANCH   8   9
ENDBRANCH   5   7
BRANCH   1  20
ATOM     20  O   UNL     1      43.880   6.894  11.308  0.00  0.00    +0.000 OA
BRANCH  20  23
ATOM     21  C   UNL     1      44.176  10.488  11.034  0.00  0.00    +0.000 C 
ATOM     22  C   UNL     1      44.993   9.215  11.124  0.00  0.00    +0.000 C 
ATOM     23  C   UNL     1      44.413   8.054  11.991  0.00  0.00    +0.000 C 
ATOM     24  C   UNL     1      45.853   7.888  12.542  0.00  0.00    +0.000 C 
ATOM     25  N   UNL     1      46.062   9.252  12.114  0.00  0.00    +0.000 N 
ATOM     26  C   UNL     1      47.000  10.186  12.422  0.00  0.00    +0.000 C 
ATOM     27  O   UNL     1      47.011  11.304  11.925  0.00  0.00    +0.000 OA
BRANCH  26  28
ATOM     28  O   UNL     1      47.907   9.724  13.335  0.00  0.00    +0.000 OA
BRANCH  28  29
ATOM     29  C   UNL     1      49.191   9.215  12.875  0.00  0.00    +0.000 C 
ATOM     30  C   UNL     1      49.324   9.360  11.355  0.00  0.00    +0.000 C 
ATOM     31  C   UNL     1      50.286  10.070  13.544  0.00  0.00    +0.000 C 
ATOM     32  C   UNL     1      49.404   7.765  13.328  0.00  0.00    +0.000 C 
ENDBRANCH  28  29
ENDBRANCH  26  28
ENDBRANCH  20  23
ENDBRANCH   1  20
TORSDOF 7
ENDMDL
MODEL 7
REMARK VINA RESULT:    -4.987     13.039     14.168
REMARK INTER + INTRA:          -7.157
REMARK INTER:                  -6.280
REMARK INTRA:                  -0.878
REMARK UNBOUND:                -0.130
REMARK  Name = 
REMARK  11 active torsions:
REMARK  status: ('A' for Active; 'I' for Inactive)
REMARK    1  A    between atoms: C_1  and  C_2
REMARK    2  A    between atoms: C_3  and  O_4
REMARK    3  A    between atoms: O_4  and  C_5
REMARK    4  A    between atoms: C_9  and  C_10
REMARK    5  A    between atoms: C_11  and  C_12
REMARK    6  A    between atoms: C_15  and  C_16
REMARK    7  A    between atoms: C_24  and  O_26
REMARK    8  A    between atoms: O_26  and  C_27
REMARK    9  A    between atoms: C_27  and  C_28
REMARK   10  A    between atoms: C_27  and  C_29
REMARK   11  A    between atoms: C_27  and  C_30
REMARK                            x       y       z     vdW  Elec       q    Type
REMARK                         _______ _______ _______ _____ _____    ______ ____
ROOT
ATOM      1  C   UNL     1      39.491  -2.712  12.273  0.00  0.00    +0.000 A 
ATOM      2  C   UNL     1      38.240  -2.229  12.653  0.00  0.00    +0.000 A 
ATOM      3  C   UNL     1      37.967  -1.980  13.995  0.00  0.00    +0.000 A 
ATOM      4  C   UNL     1      38.928  -2.265  14.966  0.00  0.00    +0.000 A 
ATOM      5  C   UNL     1      40.162  -2.824  14.608  0.00  0.00    +0.000 A 
ATOM      6  C   UNL     1      40.436  -3.037  13.248  0.00  0.00    +0.000 A 
ENDROOT
BRANCH   5   7
ATOM      7  C   UNL     1      41.119  -3.315  15.616  0.00  0.00    +0.000 C 
ATOM      8  C   UNL     1      41.607  -4.567  15.660  0.00  0.00    +0.000 C 
BRANCH   8   9
ATOM      9  C   UNL     1      42.642  -5.034  16.594  0.00  0.00    +0.000 A 
ATOM     10  C   UNL     1      43.120  -4.267  17.659  0.00  0.00    +0.000 A 
ATOM     11  C   UNL     1      44.086  -4.793  18.518  0.00  0.00    +0.000 A 
ATOM     12  C   UNL     1      44.542  -6.081  18.291  0.00  0.00    +0.000 A 
ATOM     13  N   UNL     1      44.103  -6.873  17.274  0.00  0.00    +0.000 NA
ATOM     14  C   UNL     1      43.164  -6.325  16.459  0.00  0.00    +0.000 A 
BRANCH  12  15
ATOM     15  C   UNL     1      45.576  -6.671  19.208  0.00  0.00    +0.000 C 
ATOM     16  N   UNL     1      46.872  -6.505  18.807  0.00  0.00    +0.000 N 
ATOM     17  O   UNL     1      45.288  -7.265  20.238  0.00  0.00    +0.000 OA
ATOM     18  H   UNL     1      47.075  -6.020  17.944  0.00  0.00    +0.000 HD
ATOM     19  H   UNL     1      47.620  -6.894  19.372  0.00  0.00    +0.000 HD
ENDBRANCH  12  15
ENDBRANCH   8   9
ENDBRANCH   5   7
BRANCH   1  20
ATOM     20  O   UNL     1      39.685  -2.869  10.923  0.00  0.00    +0.000 OA
BRANCH  20  23
ATOM     21  C   UNL     1      38.667  -6.300  11.447  0.00  0.00    +0.000 C 
ATOM     22  C   UNL     1      39.547  -5.423  10.580  0.00  0.00    +0.000 C 
ATOM     23  C   UNL     1      39.034  -3.983  10.266  0.00  0.00    +0.000 C 
ATOM     24  C   UNL     1      39.499  -4.250   8.811  0.00  0.00    +0.000 C 
ATOM     25  N   UNL     1      39.405  -5.651   9.148  0.00  0.00    +0.000 N 
ATOM     26  C   UNL     1      39.343  -6.783   8.397  0.00  0.00    +0.000 C 
ATOM     27  O   UNL     1      39.283  -7.902   8.888  0.00  0.00    +0.000 OA
BRANCH  26  28
ATOM     28  O   UNL     1      39.357  -6.513   7.057  0.00  0.00    +0.000 OA
BRANCH  28  29
ATOM     29  C   UNL     1      40.521  -6.883   6.264  0.00  0.00    +0.000 C 
ATOM     30  C   UNL     1      40.426  -8.341   5.801  0.00  0.00    +0.000 C 
ATOM     31  C   UNL     1      40.531  -5.975   5.018  0.00  0.00    +0.000 C 
ATOM     32  C   UNL     1      41.821  -6.616   7.034  0.00  0.00    +0.000 C 
ENDBRANCH  28  29
ENDBRANCH  26  28
ENDBRANCH  20  23
ENDBRANCH   1  20
TORSDOF 7
ENDMDL
MODEL 8
REMARK VINA RESULT:    -4.977     10.641     12.627
REMARK INTER + INTRA:          -7.143
REMARK INTER:                  -6.727
REMARK INTRA:                  -0.416
REMARK UNBOUND:                -0.130
REMARK  Name = 
REMARK  11 active torsions:
REMARK  status: ('A' for Active; 'I' for Inactive)
REMARK    1  A    between atoms: C_1  and  C_2
REMARK    2  A    between atoms: C_3  and  O_4
REMARK    3  A    between atoms: O_4  and  C_5
REMARK    4  A    between atoms: C_9  and  C_10
REMARK    5  A    between atoms: C_11  and  C_12
REMARK    6  A    between atoms: C_15  and  C_16
REMARK    7  A    between atoms: C_24  and  O_26
REMARK    8  A    between atoms: O_26  and  C_27
REMARK    9  A    between atoms: C_27  and  C_28
REMARK   10  A    between atoms: C_27  and  C_29
REMARK   11  A    between atoms: C_27  and  C_30
REMARK                            x       y       z     vdW  Elec       q    Type
REMARK                         _______ _______ _______ _____ _____    ______ ____
ROOT
ATOM      1  C   UNL     1      36.641  -1.853   6.367  0.00  0.00    +0.000 A 
ATOM      2  C   UNL     1      37.046  -3.043   5.766  0.00  0.00    +0.000 A 
ATOM      3  C   UNL     1      38.038  -3.027   4.789  0.00  0.00    +0.000 A 
ATOM      4  C   UNL     1      38.588  -1.813   4.373  0.00  0.00    +0.000 A 
ATOM      5  C   UNL     1      38.136  -0.602   4.913  0.00  0.00    +0.000 A 
ATOM      6  C   UNL     1      37.161  -0.636   5.922  0.00  0.00    +0.000 A 
ENDROOT
BRANCH   5   7
ATOM      7  C   UNL     1      38.553   0.701   4.366  0.00  0.00    +0.000 C 
ATOM      8  C   UNL     1      38.774   1.804   5.102  0.00  0.00    +0.000 C 
BRANCH   8   9
ATOM      9  C   UNL     1      39.292   3.076   4.577  0.00  0.00    +0.000 A 
ATOM     10  C   UNL     1      39.775   3.232   3.277  0.00  0.00    +0.000 A 
ATOM     11  C   UNL     1      40.226   4.481   2.846  0.00  0.00    +0.000 A 
ATOM     12  C   UNL     1      40.173   5.545   3.731  0.00  0.00    +0.000 A 
ATOM     13  N   UNL     1      39.704   5.448   5.006  0.00  0.00    +0.000 NA
ATOM     14  C   UNL     1      39.275   4.217   5.388  0.00  0.00    +0.000 A 
BRANCH  12  15
ATOM     15  C   UNL     1      40.645   6.900   3.287  0.00  0.00    +0.000 C 
ATOM     16  N   UNL     1      40.842   7.037   1.941  0.00  0.00    +0.000 N 
ATOM     17  O   UNL     1      40.848   7.821   4.067  0.00  0.00    +0.000 OA
ATOM     18  H   UNL     1      40.676   6.252   1.326  0.00  0.00    +0.000 HD
ATOM     19  H   UNL     1      41.176   7.921   1.575  0.00  0.00    +0.000 HD
ENDBRANCH  12  15
ENDBRANCH   8   9
ENDBRANCH   5   7
BRANCH   1  20
ATOM     20  O   UNL     1      35.701  -1.977   7.361  0.00  0.00    +0.000 OA
BRANCH  20  23
ATOM     21  C   UNL     1      35.526  -0.361  10.592  0.00  0.00    +0.000 C 
ATOM     22  C   UNL     1      36.495  -0.785   9.508  0.00  0.00    +0.000 C 
ATOM     23  C   UNL     1      36.166  -2.095   8.727  0.00  0.00    +0.000 C 
ATOM     24  C   UNL     1      37.671  -2.438   8.881  0.00  0.00    +0.000 C 
ATOM     25  N   UNL     1      37.662  -1.513   9.990  0.00  0.00    +0.000 N 
ATOM     26  C   UNL     1      38.509  -1.308  11.033  0.00  0.00    +0.000 C 
ATOM     27  O   UNL     1      38.326  -0.440  11.875  0.00  0.00    +0.000 OA
BRANCH  26  28
ATOM     28  O   UNL     1      39.567  -2.174  11.015  0.00  0.00    +0.000 OA
BRANCH  28  29
ATOM     29  C   UNL     1      39.575  -3.313  11.921  0.00  0.00    +0.000 C 
ATOM     30  C   UNL     1      39.615  -4.632  11.142  0.00  0.00    +0.000 C 
ATOM     31  C   UNL     1      40.858  -3.210  12.771  0.00  0.00    +0.000 C 
ATOM     32  C   UNL     1      38.383  -3.259  12.886  0.00  0.00    +0.000 C 
ENDBRANCH  28  29
ENDBRANCH  26  28
ENDBRANCH  20  23
ENDBRANCH   1  20
TORSDOF 7
ENDMDL
MODEL 9
REMARK VINA RESULT:    -4.887     12.608     14.460
REMARK INTER + INTRA:          -7.016
REMARK INTER:                  -6.634
REMARK INTRA:                  -0.382
REMARK UNBOUND:                -0.130
REMARK  Name = 
REMARK  11 active torsions:
REMARK  status: ('A' for Active; 'I' for Inactive)
REMARK    1  A    between atoms: C_1  and  C_2
REMARK    2  A    between atoms: C_3  and  O_4
REMARK    3  A    between atoms: O_4  and  C_5
REMARK    4  A    between atoms: C_9  and  C_10
REMARK    5  A    between atoms: C_11  and  C_12
REMARK    6  A    between atoms: C_15  and  C_16
REMARK    7  A    between atoms: C_24  and  O_26
REMARK    8  A    between atoms: O_26  and  C_27
REMARK    9  A    between atoms: C_27  and  C_28
REMARK   10  A    between atoms: C_27  and  C_29
REMARK   11  A    between atoms: C_27  and  C_30
REMARK                            x       y       z     vdW  Elec       q    Type
REMARK                         _______ _______ _______ _____ _____    ______ ____
ROOT
ATOM      1  C   UNL     1      38.393  -2.657  12.558  0.00  0.00    +0.000 A 
ATOM      2  C   UNL     1      38.993  -2.271  11.360  0.00  0.00    +0.000 A 
ATOM      3  C   UNL     1      40.370  -2.395  11.200  0.00  0.00    +0.000 A 
ATOM      4  C   UNL     1      41.157  -2.855  12.257  0.00  0.00    +0.000 A 
ATOM      5  C   UNL     1      40.578  -3.173  13.493  0.00  0.00    +0.000 A 
ATOM      6  C   UNL     1      39.184  -3.076  13.629  0.00  0.00    +0.000 A 
ENDROOT
BRANCH   5   7
ATOM      7  C   UNL     1      41.393  -3.475  14.683  0.00  0.00    +0.000 C 
ATOM      8  C   UNL     1      41.569  -4.705  15.197  0.00  0.00    +0.000 C 
BRANCH   8   9
ATOM      9  C   UNL     1      42.464  -5.029  16.317  0.00  0.00    +0.000 A 
ATOM     10  C   UNL     1      42.685  -4.172  17.397  0.00  0.00    +0.000 A 
ATOM     11  C   UNL     1      43.531  -4.564  18.436  0.00  0.00    +0.000 A 
ATOM     12  C   UNL     1      44.128  -5.812  18.367  0.00  0.00    +0.000 A 
ATOM     13  N   UNL     1      43.940  -6.688  17.341  0.00  0.00    +0.000 NA
ATOM     14  C   UNL     1      43.110  -6.269  16.350  0.00  0.00    +0.000 A 
BRANCH  12  15
ATOM     15  C   UNL     1      45.036  -6.259  19.477  0.00  0.00    +0.000 C 
ATOM     16  N   UNL     1      46.273  -6.688  19.082  0.00  0.00    +0.000 N 
ATOM     17  O   UNL     1      44.701  -6.250  20.654  0.00  0.00    +0.000 OA
ATOM     18  H   UNL     1      46.514  -6.693  18.100  0.00  0.00    +0.000 HD
ATOM     19  H   UNL     1      46.931  -7.019  19.779  0.00  0.00    +0.000 HD
ENDBRANCH  12  15
ENDBRANCH   8   9
ENDBRANCH   5   7
BRANCH   1  20
ATOM     20  O   UNL     1      37.024  -2.554  12.599  0.00  0.00    +0.000 OA
BRANCH  20  23
ATOM     21  C   UNL     1      36.707   1.026  12.192  0.00  0.00    +0.000 C 
ATOM     22  C   UNL     1      37.242  -0.037  13.129  0.00  0.00    +0.000 C 
ATOM     23  C   UNL     1      36.448  -1.378  13.216  0.00  0.00    +0.000 C 
ATOM     24  C   UNL     1      36.652  -1.275  14.750  0.00  0.00    +0.000 C 
ATOM     25  N   UNL     1      36.858   0.136  14.524  0.00  0.00    +0.000 N 
ATOM     26  C   UNL     1      36.835   1.220  15.344  0.00  0.00    +0.000 C 
ATOM     27  O   UNL     1      37.058   2.356  14.949  0.00  0.00    +0.000 OA
BRANCH  26  28
ATOM     28  O   UNL     1      36.540   0.882  16.636  0.00  0.00    +0.000 OA
BRANCH  28  29
ATOM     29  C   UNL     1      37.570   0.989  17.658  0.00  0.00    +0.000 C 
ATOM     30  C   UNL     1      38.110   2.421  17.743  0.00  0.00    +0.000 C 
ATOM     31  C   UNL     1      36.913   0.635  19.007  0.00  0.00    +0.000 C 
ATOM     32  C   UNL     1      38.694  -0.028  17.417  0.00  0.00    +0.000 C 
ENDBRANCH  28  29
ENDBRANCH  26  28
ENDBRANCH  20  23
ENDBRANCH   1  20
TORSDOF 7
ENDMDL
