MODEL 1
REMARK VINA RESULT:    -7.165      0.000      0.000
REMARK INTER + INTRA:         -10.045
REMARK INTER:                  -9.049
REMARK INTRA:                  -0.996
REMARK UNBOUND:                -0.996
REMARK  Name = 
REMARK  8 active torsions:
REMARK  status: ('A' for Active; 'I' for Inactive)
REMARK    1  A    between atoms: C_1  and  C_2
REMARK    2  A    between atoms: C_2  and  C_3
REMARK    3  A    between atoms: C_2  and  C_4
REMARK    4  A    between atoms: C_2  and  C_5
REMARK    5  A    between atoms: C_8  and  C_9
REMARK    6  A    between atoms: C_9  and  N_10
REMARK    7  A    between atoms: C_15  and  C_16
REMARK    8  A    between atoms: C_16  and  O_18
REMARK                            x       y       z     vdW  Elec       q    Type
REMARK                         _______ _______ _______ _____ _____    ______ ____
ROOT
ATOM      1  N   UNL     1      43.443   4.153  11.767  0.00  0.00    +0.000 N 
ATOM      2  C   UNL     1      43.549   2.922  12.419  0.00  0.00    +0.000 A 
ATOM      3  C   UNL     1      43.447   1.978  11.416  0.00  0.00    +0.000 A 
ATOM      4  C   UNL     1      44.180   2.594  10.368  0.00  0.00    +0.000 A 
ATOM      5  C   UNL     1      45.018   2.117   9.354  0.00  0.00    +0.000 A 
ATOM      6  C   UNL     1      45.557   3.053   8.472  0.00  0.00    +0.000 A 
ATOM      7  C   UNL     1      45.102   4.375   8.446  0.00  0.00    +0.000 A 
ATOM      8  C   UNL     1      44.246   4.856   9.443  0.00  0.00    +0.000 A 
ATOM      9  C   UNL     1      43.917   3.964  10.471  0.00  0.00    +0.000 A 
ENDROOT
BRANCH   6  10
ATOM     10  C   UNL     1      46.668   2.660   7.580  0.00  0.00    +0.000 C 
ATOM     11  O   UNL     1      47.055   1.498   7.480  0.00  0.00    +0.000 OA
BRANCH  10  12
ATOM     12  O   UNL     1      47.169   3.693   6.866  0.00  0.00    +0.000 OA
ATOM     13  H   UNL     1      47.780   4.275   7.355  0.00  0.00    +0.000 HD
ENDBRANCH  10  12
ENDBRANCH   6  10
BRANCH   1  14
ATOM     14  C   UNL     1      43.506   5.412  12.514  0.00  0.00    +0.000 C 
BRANCH  14  18
ATOM     15  C   UNL     1      47.478   7.202  12.596  0.00  0.00    +0.000 A 
ATOM     16  C   UNL     1      47.257   5.896  13.067  0.00  0.00    +0.000 A 
ATOM     17  C   UNL     1      45.982   5.314  13.050  0.00  0.00    +0.000 A 
ATOM     18  C   UNL     1      44.881   6.018  12.552  0.00  0.00    +0.000 A 
ATOM     19  C   UNL     1      45.100   7.290  12.015  0.00  0.00    +0.000 A 
ATOM     20  C   UNL     1      46.375   7.870  12.036  0.00  0.00    +0.000 A 
BRANCH  15  22
ATOM     21  C   UNL     1      49.769   7.663  11.514  0.00  0.00    +0.000 C 
ATOM     22  C   UNL     1      48.840   7.913  12.722  0.00  0.00    +0.000 C 
ATOM     23  C   UNL     1      49.576   7.390  13.977  0.00  0.00    +0.000 C 
ATOM     24  C   UNL     1      48.658   9.440  12.860  0.00  0.00    +0.000 C 
ENDBRANCH  15  22
ENDBRANCH  14  18
ENDBRANCH   1  14
TORSDOF 5
ENDMDL
MODEL 2
REMARK VINA RESULT:    -6.910      1.468      2.366
REMARK INTER + INTRA:          -9.723
REMARK INTER:                 -10.054
REMARK INTRA:                   0.331
REMARK UNBOUND:                -0.996
REMARK  Name = 
REMARK  8 active torsions:
REMARK  status: ('A' for Active; 'I' for Inactive)
REMARK    1  A    between atoms: C_1  and  C_2
REMARK    2  A    between atoms: C_2  and  C_3
REMARK    3  A    between atoms: C_2  and  C_4
REMARK    4  A    between atoms: C_2  and  C_5
REMARK    5  A    between atoms: C_8  and  C_9
REMARK    6  A    between atoms: C_9  and  N_10
REMARK    7  A    between atoms: C_15  and  C_16
REMARK    8  A    between atoms: C_16  and  O_18
REMARK                            x       y       z     vdW  Elec       q    Type
REMARK                         _______ _______ _______ _____ _____    ______ ____
ROOT
ATOM      1  N   UNL     1      44.783   5.005  10.490  0.00  0.00    +0.000 N 
ATOM      2  C   UNL     1      44.463   4.146  11.544  0.00  0.00    +0.000 A 
ATOM      3  C   UNL     1      43.986   3.000  10.937  0.00  0.00    +0.000 A 
ATOM      4  C   UNL     1      44.849   2.890   9.816  0.00  0.00    +0.000 A 
ATOM      5  C   UNL     1      45.416   1.814   9.125  0.00  0.00    +0.000 A 
ATOM      6  C   UNL     1      46.221   2.109   8.025  0.00  0.00    +0.000 A 
ATOM      7  C   UNL     1      46.274   3.398   7.486  0.00  0.00    +0.000 A 
ATOM      8  C   UNL     1      45.691   4.478   8.158  0.00  0.00    +0.000 A 
ATOM      9  C   UNL     1      45.104   4.201   9.398  0.00  0.00    +0.000 A 
ENDROOT
BRANCH   6  10
ATOM     10  C   UNL     1      47.078   1.053   7.444  0.00  0.00    +0.000 C 
ATOM     11  O   UNL     1      47.969   1.298   6.634  0.00  0.00    +0.000 OA
BRANCH  10  12
ATOM     12  O   UNL     1      46.809  -0.179   7.930  0.00  0.00    +0.000 OA
ATOM     13  H   UNL     1      47.030  -0.310   8.872  0.00  0.00    +0.000 HD
ENDBRANCH  10  12
ENDBRANCH   6  10
BRANCH   1  14
ATOM     14  C   UNL     1      45.326   6.342  10.742  0.00  0.00    +0.000 C 
BRANCH  14  18
ATOM     15  C   UNL     1      47.954   6.562  14.211  0.00  0.00    +0.000 A 
ATOM     16  C   UNL     1      47.130   5.444  13.991  0.00  0.00    +0.000 A 
ATOM     17  C   UNL     1      46.278   5.367  12.881  0.00  0.00    +0.000 A 
ATOM     18  C   UNL     1      46.225   6.406  11.946  0.00  0.00    +0.000 A 
ATOM     19  C   UNL     1      47.091   7.490  12.116  0.00  0.00    +0.000 A 
ATOM     20  C   UNL     1      47.940   7.565  13.227  0.00  0.00    +0.000 A 
BRANCH  15  22
ATOM     21  C   UNL     1      48.331   7.901  16.379  0.00  0.00    +0.000 C 
ATOM     22  C   UNL     1      48.802   6.731  15.488  0.00  0.00    +0.000 C 
ATOM     23  C   UNL     1      50.268   7.022  15.093  0.00  0.00    +0.000 C 
ATOM     24  C   UNL     1      48.771   5.450  16.348  0.00  0.00    +0.000 C 
ENDBRANCH  15  22
ENDBRANCH  14  18
ENDBRANCH   1  14
TORSDOF 5
ENDMDL
MODEL 3
REMARK VINA RESULT:    -6.529      1.459      2.174
REMARK INTER + INTRA:          -9.242
REMARK INTER:                  -8.785
REMARK INTRA:                  -0.457
REMARK UNBOUND:                -0.996
REMARK  Name = 
REMARK  8 active torsions:
REMARK  status: ('A' for Active; 'I' for Inactive)
REMARK    1  A    between atoms: C_1  and  C_2
REMARK    2  A    between atoms: C_2  and  C_3
REMARK    3  A    between atoms: C_2  and  C_4
REMARK    4  A    between atoms: C_2  and  C_5
REMARK    5  A    between atoms: C_8  and  C_9
REMARK    6  A    between atoms: C_9  and  N_10
REMARK    7  A    between atoms: C_15  and  C_16
REMARK    8  A    between atoms: C_16  and  O_18
REMARK                            x       y       z     vdW  Elec       q    Type
REMARK                         _______ _______ _______ _____ _____    ______ ____
ROOT
ATOM      1  N   UNL     1      44.763   4.783  12.275  0.00  0.00    +0.000 N 
ATOM      2  C   UNL     1      44.041   3.611  12.508  0.00  0.00    +0.000 A 
ATOM      3  C   UNL     1      43.345   3.382  11.337  0.00  0.00    +0.000 A 
ATOM      4  C   UNL     1      44.301   3.761  10.359  0.00  0.00    +0.000 A 
ATOM      5  C   UNL     1      44.623   3.295   9.079  0.00  0.00    +0.000 A 
ATOM      6  C   UNL     1      45.641   3.954   8.392  0.00  0.00    +0.000 A 
ATOM      7  C   UNL     1      46.160   5.170   8.850  0.00  0.00    +0.000 A 
ATOM      8  C   UNL     1      45.828   5.656  10.119  0.00  0.00    +0.000 A 
ATOM      9  C   UNL     1      44.997   4.846  10.903  0.00  0.00    +0.000 A 
ENDROOT
BRANCH   6  10
ATOM     10  C   UNL     1      46.225   3.337   7.183  0.00  0.00    +0.000 C 
ATOM     11  O   UNL     1      46.210   2.123   6.988  0.00  0.00    +0.000 OA
BRANCH  10  12
ATOM     12  O   UNL     1      46.724   4.241   6.311  0.00  0.00    +0.000 OA
ATOM     13  H   UNL     1      47.645   4.513   6.480  0.00  0.00    +0.000 HD
ENDBRANCH  10  12
ENDBRANCH   6  10
BRANCH   1  14
ATOM     14  C   UNL     1      45.633   5.353  13.306  0.00  0.00    +0.000 C 
BRANCH  14  18
ATOM     15  C   UNL     1      47.229   9.280  12.294  0.00  0.00    +0.000 A 
ATOM     16  C   UNL     1      45.858   9.092  12.541  0.00  0.00    +0.000 A 
ATOM     17  C   UNL     1      45.335   7.832  12.863  0.00  0.00    +0.000 A 
ATOM     18  C   UNL     1      46.170   6.713  12.954  0.00  0.00    +0.000 A 
ATOM     19  C   UNL     1      47.543   6.900  12.780  0.00  0.00    +0.000 A 
ATOM     20  C   UNL     1      48.063   8.160  12.458  0.00  0.00    +0.000 A 
BRANCH  15  22
ATOM     21  C   UNL     1      49.058  10.460  10.917  0.00  0.00    +0.000 C 
ATOM     22  C   UNL     1      47.811  10.624  11.813  0.00  0.00    +0.000 C 
ATOM     23  C   UNL     1      48.239  11.464  13.038  0.00  0.00    +0.000 C 
ATOM     24  C   UNL     1      46.764  11.426  11.011  0.00  0.00    +0.000 C 
ENDBRANCH  15  22
ENDBRANCH  14  18
ENDBRANCH   1  14
TORSDOF 5
ENDMDL
MODEL 4
REMARK VINA RESULT:    -5.719      3.794      5.960
REMARK INTER + INTRA:          -8.220
REMARK INTER:                  -7.384
REMARK INTRA:                  -0.836
REMARK UNBOUND:                -0.996
REMARK  Name = 
REMARK  8 active torsions:
REMARK  status: ('A' for Active; 'I' for Inactive)
REMARK    1  A    between atoms: C_1  and  C_2
REMARK    2  A    between atoms: C_2  and  C_3
REMARK    3  A    between atoms: C_2  and  C_4
REMARK    4  A    between atoms: C_2  and  C_5
REMARK    5  A    between atoms: C_8  and  C_9
REMARK    6  A    between atoms: C_9  and  N_10
REMARK    7  A    between atoms: C_15  and  C_16
REMARK    8  A    between atoms: C_16  and  O_18
REMARK                            x       y       z     vdW  Elec       q    Type
REMARK                         _______ _______ _______ _____ _____    ______ ____
ROOT
ATOM      1  N   UNL     1      47.994   7.097  13.589  0.00  0.00    +0.000 N 
ATOM      2  C   UNL     1      48.211   8.021  12.565  0.00  0.00    +0.000 A 
ATOM      3  C   UNL     1      48.056   7.301  11.396  0.00  0.00    +0.000 A 
ATOM      4  C   UNL     1      46.971   6.449  11.728  0.00  0.00    +0.000 A 
ATOM      5  C   UNL     1      45.888   5.926  11.013  0.00  0.00    +0.000 A 
ATOM      6  C   UNL     1      45.013   5.083  11.696  0.00  0.00    +0.000 A 
ATOM      7  C   UNL     1      45.322   4.587  12.966  0.00  0.00    +0.000 A 
ATOM      8  C   UNL     1      46.415   5.087  13.682  0.00  0.00    +0.000 A 
ATOM      9  C   UNL     1      47.137   6.124  13.079  0.00  0.00    +0.000 A 
ENDROOT
BRANCH   6  10
ATOM     10  C   UNL     1      43.706   4.743  11.093  0.00  0.00    +0.000 C 
ATOM     11  O   UNL     1      43.185   3.638  11.226  0.00  0.00    +0.000 OA
BRANCH  10  12
ATOM     12  O   UNL     1      43.140   5.777  10.432  0.00  0.00    +0.000 OA
ATOM     13  H   UNL     1      43.030   6.592  10.957  0.00  0.00    +0.000 HD
ENDBRANCH  10  12
ENDBRANCH   6  10
BRANCH   1  14
ATOM     14  C   UNL     1      48.077   7.495  14.997  0.00  0.00    +0.000 C 
BRANCH  14  18
ATOM     15  C   UNL     1      51.000   5.221  17.293  0.00  0.00    +0.000 A 
ATOM     16  C   UNL     1      51.388   6.317  16.502  0.00  0.00    +0.000 A 
ATOM     17  C   UNL     1      50.455   7.051  15.756  0.00  0.00    +0.000 A 
ATOM     18  C   UNL     1      49.097   6.717  15.781  0.00  0.00    +0.000 A 
ATOM     19  C   UNL     1      48.690   5.675  16.618  0.00  0.00    +0.000 A 
ATOM     20  C   UNL     1      49.624   4.942  17.361  0.00  0.00    +0.000 A 
BRANCH  15  22
ATOM     21  C   UNL     1      53.480   4.607  17.616  0.00  0.00    +0.000 C 
ATOM     22  C   UNL     1      52.018   4.318  18.019  0.00  0.00    +0.000 C 
ATOM     23  C   UNL     1      51.733   2.841  17.668  0.00  0.00    +0.000 C 
ATOM     24  C   UNL     1      51.915   4.487  19.550  0.00  0.00    +0.000 C 
ENDBRANCH  15  22
ENDBRANCH  14  18
ENDBRANCH   1  14
TORSDOF 5
ENDMDL
MODEL 5
REMARK VINA RESULT:    -5.710      4.429      6.285
REMARK INTER + INTRA:          -8.207
REMARK INTER:                  -7.695
REMARK INTRA:                  -0.512
REMARK UNBOUND:                -0.996
REMARK  Name = 
REMARK  8 active torsions:
REMARK  status: ('A' for Active; 'I' for Inactive)
REMARK    1  A    between atoms: C_1  and  C_2
REMARK    2  A    between atoms: C_2  and  C_3
REMARK    3  A    between atoms: C_2  and  C_4
REMARK    4  A    between atoms: C_2  and  C_5
REMARK    5  A    between atoms: C_8  and  C_9
REMARK    6  A    between atoms: C_9  and  N_10
REMARK    7  A    between atoms: C_15  and  C_16
REMARK    8  A    between atoms: C_16  and  O_18
REMARK                            x       y       z     vdW  Elec       q    Type
REMARK                         _______ _______ _______ _____ _____    ______ ____
ROOT
ATOM      1  N   UNL     1      47.542   5.158  14.590  0.00  0.00    +0.000 N 
ATOM      2  C   UNL     1      47.820   6.511  14.382  0.00  0.00    +0.000 A 
ATOM      3  C   UNL     1      47.854   6.662  13.010  0.00  0.00    +0.000 A 
ATOM      4  C   UNL     1      46.796   5.809  12.602  0.00  0.00    +0.000 A 
ATOM      5  C   UNL     1      45.845   5.858  11.577  0.00  0.00    +0.000 A 
ATOM      6  C   UNL     1      44.952   4.792  11.477  0.00  0.00    +0.000 A 
ATOM      7  C   UNL     1      45.138   3.615  12.210  0.00  0.00    +0.000 A 
ATOM      8  C   UNL     1      46.101   3.548  13.222  0.00  0.00    +0.000 A 
ATOM      9  C   UNL     1      46.820   4.721  13.482  0.00  0.00    +0.000 A 
ENDROOT
BRANCH   6  10
ATOM     10  C   UNL     1      43.753   4.921  10.621  0.00  0.00    +0.000 C 
ATOM     11  O   UNL     1      42.671   5.310  11.055  0.00  0.00    +0.000 OA
BRANCH  10  12
ATOM     12  O   UNL     1      43.988   4.615   9.326  0.00  0.00    +0.000 OA
ATOM     13  H   UNL     1      44.875   4.857   8.999  0.00  0.00    +0.000 HD
ENDBRANCH  10  12
ENDBRANCH   6  10
BRANCH   1  14
ATOM     14  C   UNL     1      47.428   4.609  15.943  0.00  0.00    +0.000 C 
BRANCH  14  18
ATOM     15  C   UNL     1      51.264   3.852  17.865  0.00  0.00    +0.000 A 
ATOM     16  C   UNL     1      50.804   5.162  17.649  0.00  0.00    +0.000 A 
ATOM     17  C   UNL     1      49.573   5.416  17.027  0.00  0.00    +0.000 A 
ATOM     18  C   UNL     1      48.756   4.362  16.604  0.00  0.00    +0.000 A 
ATOM     19  C   UNL     1      49.170   3.056  16.877  0.00  0.00    +0.000 A 
ATOM     20  C   UNL     1      50.401   2.806  17.497  0.00  0.00    +0.000 A 
BRANCH  15  22
ATOM     21  C   UNL     1      52.813   3.907  19.922  0.00  0.00    +0.000 C 
ATOM     22  C   UNL     1      52.667   3.545  18.428  0.00  0.00    +0.000 C 
ATOM     23  C   UNL     1      53.720   4.371  17.655  0.00  0.00    +0.000 C 
ATOM     24  C   UNL     1      53.011   2.048  18.277  0.00  0.00    +0.000 C 
ENDBRANCH  15  22
ENDBRANCH  14  18
ENDBRANCH   1  14
TORSDOF 5
ENDMDL
MODEL 6
REMARK VINA RESULT:    -5.640      1.986      3.430
REMARK INTER + INTRA:          -8.120
REMARK INTER:                  -7.254
REMARK INTRA:                  -0.865
REMARK UNBOUND:                -0.996
REMARK  Name = 
REMARK  8 active torsions:
REMARK  status: ('A' for Active; 'I' for Inactive)
REMARK    1  A    between atoms: C_1  and  C_2
REMARK    2  A    between atoms: C_2  and  C_3
REMARK    3  A    between atoms: C_2  and  C_4
REMARK    4  A    between atoms: C_2  and  C_5
REMARK    5  A    between atoms: C_8  and  C_9
REMARK    6  A    between atoms: C_9  and  N_10
REMARK    7  A    between atoms: C_15  and  C_16
REMARK    8  A    between atoms: C_16  and  O_18
REMARK                            x       y       z     vdW  Elec       q    Type
REMARK                         _______ _______ _______ _____ _____    ______ ____
ROOT
ATOM      1  N   UNL     1      46.094   6.171  13.338  0.00  0.00    +0.000 N 
ATOM      2  C   UNL     1      46.944   5.208  13.887  0.00  0.00    +0.000 A 
ATOM      3  C   UNL     1      46.243   4.021  13.797  0.00  0.00    +0.000 A 
ATOM      4  C   UNL     1      45.610   4.158  12.534  0.00  0.00    +0.000 A 
ATOM      5  C   UNL     1      45.281   3.267  11.507  0.00  0.00    +0.000 A 
ATOM      6  C   UNL     1      44.624   3.786  10.392  0.00  0.00    +0.000 A 
ATOM      7  C   UNL     1      44.103   5.084  10.391  0.00  0.00    +0.000 A 
ATOM      8  C   UNL     1      44.408   5.976  11.424  0.00  0.00    +0.000 A 
ATOM      9  C   UNL     1      45.285   5.514  12.413  0.00  0.00    +0.000 A 
ENDROOT
BRANCH   6  10
ATOM     10  C   UNL     1      44.518   2.970   9.163  0.00  0.00    +0.000 C 
ATOM     11  O   UNL     1      44.698   1.755   9.159  0.00  0.00    +0.000 OA
BRANCH  10  12
ATOM     12  O   UNL     1      44.161   3.690   8.075  0.00  0.00    +0.000 OA
ATOM     13  H   UNL     1      44.672   3.497   7.267  0.00  0.00    +0.000 HD
ENDBRANCH  10  12
ENDBRANCH   6  10
BRANCH   1  14
ATOM     14  C   UNL     1      46.495   7.578  13.259  0.00  0.00    +0.000 C 
BRANCH  14  18
ATOM     15  C   UNL     1      50.607   8.116  11.921  0.00  0.00    +0.000 A 
ATOM     16  C   UNL     1      50.255   8.272  13.273  0.00  0.00    +0.000 A 
ATOM     17  C   UNL     1      48.934   8.106  13.712  0.00  0.00    +0.000 A 
ATOM     18  C   UNL     1      47.918   7.771  12.811  0.00  0.00    +0.000 A 
ATOM     19  C   UNL     1      48.268   7.544  11.477  0.00  0.00    +0.000 A 
ATOM     20  C   UNL     1      49.588   7.712  11.041  0.00  0.00    +0.000 A 
BRANCH  15  22
ATOM     21  C   UNL     1      52.122   9.781  10.670  0.00  0.00    +0.000 C 
ATOM     22  C   UNL     1      52.023   8.419  11.391  0.00  0.00    +0.000 C 
ATOM     23  C   UNL     1      52.430   7.333  10.369  0.00  0.00    +0.000 C 
ATOM     24  C   UNL     1      53.056   8.424  12.538  0.00  0.00    +0.000 C 
ENDBRANCH  15  22
ENDBRANCH  14  18
ENDBRANCH   1  14
TORSDOF 5
ENDMDL
MODEL 7
REMARK VINA RESULT:    -5.571      4.181      6.437
REMARK INTER + INTRA:          -8.032
REMARK INTER:                  -7.094
REMARK INTRA:                  -0.938
REMARK UNBOUND:                -0.996
REMARK  Name = 
REMARK  8 active torsions:
REMARK  status: ('A' for Active; 'I' for Inactive)
REMARK    1  A    between atoms: C_1  and  C_2
REMARK    2  A    between atoms: C_2  and  C_3
REMARK    3  A    between atoms: C_2  and  C_4
REMARK    4  A    between atoms: C_2  and  C_5
REMARK    5  A    between atoms: C_8  and  C_9
REMARK    6  A    between atoms: C_9  and  N_10
REMARK    7  A    between atoms: C_15  and  C_16
REMARK    8  A    between atoms: C_16  and  O_18
REMARK                            x       y       z     vdW  Elec       q    Type
REMARK                         _______ _______ _______ _____ _____    ______ ____
ROOT
ATOM      1  N   UNL     1      48.165   7.945  13.208  0.00  0.00    +0.000 N 
ATOM      2  C   UNL     1      47.426   9.128  13.149  0.00  0.00    +0.000 A 
ATOM      3  C   UNL     1      46.421   8.876  12.236  0.00  0.00    +0.000 A 
ATOM      4  C   UNL     1      46.088   7.531  12.542  0.00  0.00    +0.000 A 
ATOM      5  C   UNL     1      44.895   6.799  12.543  0.00  0.00    +0.000 A 
ATOM      6  C   UNL     1      44.969   5.452  12.894  0.00  0.00    +0.000 A 
ATOM      7  C   UNL     1      46.199   4.795  13.010  0.00  0.00    +0.000 A 
ATOM      8  C   UNL     1      47.397   5.515  12.988  0.00  0.00    +0.000 A 
ATOM      9  C   UNL     1      47.291   6.908  12.891  0.00  0.00    +0.000 A 
ENDROOT
BRANCH   6  10
ATOM     10  C   UNL     1      43.728   4.709  13.202  0.00  0.00    +0.000 C 
ATOM     11  O   UNL     1      43.696   3.483  13.287  0.00  0.00    +0.000 OA
BRANCH  10  12
ATOM     12  O   UNL     1      42.665   5.515  13.421  0.00  0.00    +0.000 OA
ATOM     13  H   UNL     1      42.226   5.393  14.284  0.00  0.00    +0.000 HD
ENDBRANCH  10  12
ENDBRANCH   6  10
BRANCH   1  14
ATOM     14  C   UNL     1      49.334   7.826  14.083  0.00  0.00    +0.000 C 
BRANCH  14  18
ATOM     15  C   UNL     1      48.311   7.427  18.300  0.00  0.00    +0.000 A 
ATOM     16  C   UNL     1      48.249   8.672  17.649  0.00  0.00    +0.000 A 
ATOM     17  C   UNL     1      48.582   8.811  16.295  0.00  0.00    +0.000 A 
ATOM     18  C   UNL     1      48.982   7.704  15.540  0.00  0.00    +0.000 A 
ATOM     19  C   UNL     1      48.978   6.450  16.156  0.00  0.00    +0.000 A 
ATOM     20  C   UNL     1      48.647   6.314  17.510  0.00  0.00    +0.000 A 
BRANCH  15  22
ATOM     21  C   UNL     1      47.191   6.054  20.168  0.00  0.00    +0.000 C 
ATOM     22  C   UNL     1      48.077   7.268  19.815  0.00  0.00    +0.000 C 
ATOM     23  C   UNL     1      47.361   8.526  20.357  0.00  0.00    +0.000 C 
ATOM     24  C   UNL     1      49.414   7.102  20.568  0.00  0.00    +0.000 C 
ENDBRANCH  15  22
ENDBRANCH  14  18
ENDBRANCH   1  14
TORSDOF 5
ENDMDL
MODEL 8
REMARK VINA RESULT:    -5.391      5.119      8.565
REMARK INTER + INTRA:          -7.805
REMARK INTER:                  -7.058
REMARK INTRA:                  -0.747
REMARK UNBOUND:                -0.996
REMARK  Name = 
REMARK  8 active torsions:
REMARK  status: ('A' for Active; 'I' for Inactive)
REMARK    1  A    between atoms: C_1  and  C_2
REMARK    2  A    between atoms: C_2  and  C_3
REMARK    3  A    between atoms: C_2  and  C_4
REMARK    4  A    between atoms: C_2  and  C_5
REMARK    5  A    between atoms: C_8  and  C_9
REMARK    6  A    between atoms: C_9  and  N_10
REMARK    7  A    between atoms: C_15  and  C_16
REMARK    8  A    between atoms: C_16  and  O_18
REMARK                            x       y       z     vdW  Elec       q    Type
REMARK                         _______ _______ _______ _____ _____    ______ ____
ROOT
ATOM      1  N   UNL     1      48.521   7.267  15.073  0.00  0.00    +0.000 N 
ATOM      2  C   UNL     1      48.757   8.625  15.297  0.00  0.00    +0.000 A 
ATOM      3  C   UNL     1      48.399   8.837  16.614  0.00  0.00    +0.000 A 
ATOM      4  C   UNL     1      48.869   7.650  17.233  0.00  0.00    +0.000 A 
ATOM      5  C   UNL     1      49.430   7.357  18.481  0.00  0.00    +0.000 A 
ATOM      6  C   UNL     1      49.758   6.028  18.743  0.00  0.00    +0.000 A 
ATOM      7  C   UNL     1      49.335   4.994  17.901  0.00  0.00    +0.000 A 
ATOM      8  C   UNL     1      48.754   5.275  16.661  0.00  0.00    +0.000 A 
ATOM      9  C   UNL     1      48.665   6.625  16.301  0.00  0.00    +0.000 A 
ENDROOT
BRANCH   6  10
ATOM     10  C   UNL     1      50.614   5.702  19.904  0.00  0.00    +0.000 C 
ATOM     11  O   UNL     1      51.301   6.546  20.475  0.00  0.00    +0.000 OA
BRANCH  10  12
ATOM     12  O   UNL     1      50.523   4.410  20.287  0.00  0.00    +0.000 OA
ATOM     13  H   UNL     1      50.987   4.191  21.117  0.00  0.00    +0.000 HD
ENDBRANCH  10  12
ENDBRANCH   6  10
BRANCH   1  14
ATOM     14  C   UNL     1      48.785   6.658  13.767  0.00  0.00    +0.000 C 
BRANCH  14  18
ATOM     15  C   UNL     1      45.227   4.994  11.881  0.00  0.00    +0.000 A 
ATOM     16  C   UNL     1      45.868   6.128  11.353  0.00  0.00    +0.000 A 
ATOM     17  C   UNL     1      47.010   6.674  11.956  0.00  0.00    +0.000 A 
ATOM     18  C   UNL     1      47.555   6.097  13.108  0.00  0.00    +0.000 A 
ATOM     19  C   UNL     1      46.969   4.928  13.600  0.00  0.00    +0.000 A 
ATOM     20  C   UNL     1      45.827   4.386  12.997  0.00  0.00    +0.000 A 
BRANCH  15  22
ATOM     21  C   UNL     1      43.522   3.063  11.878  0.00  0.00    +0.000 C 
ATOM     22  C   UNL     1      43.899   4.451  11.316  0.00  0.00    +0.000 C 
ATOM     23  C   UNL     1      44.018   4.303   9.782  0.00  0.00    +0.000 C 
ATOM     24  C   UNL     1      42.730   5.411  11.626  0.00  0.00    +0.000 C 
ENDBRANCH  15  22
ENDBRANCH  14  18
ENDBRANCH   1  14
TORSDOF 5
ENDMDL
MODEL 9
REMARK VINA RESULT:    -4.780      5.433      8.692
REMARK INTER + INTRA:          -7.033
REMARK INTER:                  -6.881
REMARK INTRA:                  -0.151
REMARK UNBOUND:                -0.996
REMARK  Name = 
REMARK  8 active torsions:
REMARK  status: ('A' for Active; 'I' for Inactive)
REMARK    1  A    between atoms: C_1  and  C_2
REMARK    2  A    between atoms: C_2  and  C_3
REMARK    3  A    between atoms: C_2  and  C_4
REMARK    4  A    between atoms: C_2  and  C_5
REMARK    5  A    between atoms: C_8  and  C_9
REMARK    6  A    between atoms: C_9  and  N_10
REMARK    7  A    between atoms: C_15  and  C_16
REMARK    8  A    between atoms: C_16  and  O_18
REMARK                            x       y       z     vdW  Elec       q    Type
REMARK                         _______ _______ _______ _____ _____    ______ ____
ROOT
ATOM      1  N   UNL     1      48.691   6.502  15.571  0.00  0.00    +0.000 N 
ATOM      2  C   UNL     1      48.193   5.312  16.107  0.00  0.00    +0.000 A 
ATOM      3  C   UNL     1      48.533   5.354  17.445  0.00  0.00    +0.000 A 
ATOM      4  C   UNL     1      48.325   6.725  17.750  0.00  0.00    +0.000 A 
ATOM      5  C   UNL     1      47.865   7.413  18.878  0.00  0.00    +0.000 A 
ATOM      6  C   UNL     1      47.815   8.804  18.806  0.00  0.00    +0.000 A 
ATOM      7  C   UNL     1      48.416   9.501  17.752  0.00  0.00    +0.000 A 
ATOM      8  C   UNL     1      48.899   8.821  16.630  0.00  0.00    +0.000 A 
ATOM      9  C   UNL     1      48.707   7.434  16.606  0.00  0.00    +0.000 A 
ENDROOT
BRANCH   6  10
ATOM     10  C   UNL     1      47.070   9.562  19.833  0.00  0.00    +0.000 C 
ATOM     11  O   UNL     1      46.509  10.628  19.590  0.00  0.00    +0.000 OA
BRANCH  10  12
ATOM     12  O   UNL     1      47.035   8.941  21.033  0.00  0.00    +0.000 OA
ATOM     13  H   UNL     1      46.663   8.039  21.021  0.00  0.00    +0.000 HD
ENDBRANCH  10  12
ENDBRANCH   6  10
BRANCH   1  14
ATOM     14  C   UNL     1      48.523   6.820  14.151  0.00  0.00    +0.000 C 
BRANCH  14  18
ATOM     15  C   UNL     1      44.932   5.091  12.389  0.00  0.00    +0.000 A 
ATOM     16  C   UNL     1      45.950   4.277  12.916  0.00  0.00    +0.000 A 
ATOM     17  C   UNL     1      47.111   4.824  13.480  0.00  0.00    +0.000 A 
ATOM     18  C   UNL     1      47.291   6.210  13.542  0.00  0.00    +0.000 A 
ATOM     19  C   UNL     1      46.255   7.030  13.086  0.00  0.00    +0.000 A 
ATOM     20  C   UNL     1      45.098   6.480  12.522  0.00  0.00    +0.000 A 
BRANCH  15  22
ATOM     21  C   UNL     1      43.879   4.505  10.113  0.00  0.00    +0.000 C 
ATOM     22  C   UNL     1      43.708   4.517  11.648  0.00  0.00    +0.000 C 
ATOM     23  C   UNL     1      42.468   5.385  11.960  0.00  0.00    +0.000 C 
ATOM     24  C   UNL     1      43.418   3.068  12.094  0.00  0.00    +0.000 C 
ENDBRANCH  15  22
ENDBRANCH  14  18
ENDBRANCH   1  14
TORSDOF 5
ENDMDL
