MODEL 1
REMARK VINA RESULT:    -8.179      0.000      0.000
REMARK INTER + INTRA:         -10.767
REMARK INTER:                 -10.092
REMARK INTRA:                  -0.675
REMARK UNBOUND:                -0.675
REMARK  Name = 
REMARK  5 active torsions:
REMARK  status: ('A' for Active; 'I' for Inactive)
REMARK    1  A    between atoms: C_1  and  C_2
REMARK    2  A    between atoms: N_6  and  C_7
REMARK    3  A    between atoms: C_7  and  C_8
REMARK    4  A    between atoms: C_12  and  C_13
REMARK    5  A    between atoms: C_17  and  C_18
REMARK                            x       y       z     vdW  Elec       q    Type
REMARK                         _______ _______ _______ _____ _____    ______ ____
ROOT
ATOM      1  C   UNL     1      44.918   4.883  11.305  0.00  0.00    +0.000 A 
ATOM      2  C   UNL     1      45.177   3.943  12.308  0.00  0.00    +0.000 A 
ATOM      3  C   UNL     1      46.179   4.181  13.245  0.00  0.00    +0.000 A 
ATOM      4  C   UNL     1      46.930   5.358  13.187  0.00  0.00    +0.000 A 
ATOM      5  C   UNL     1      46.705   6.326  12.191  0.00  0.00    +0.000 A 
ATOM      6  C   UNL     1      45.669   6.074  11.273  0.00  0.00    +0.000 A 
ENDROOT
BRANCH   5   7
ATOM      7  C   UNL     1      47.560   7.528  12.083  0.00  0.00    +0.000 A 
ATOM      8  C   UNL     1      47.080   8.823  12.286  0.00  0.00    +0.000 A 
ATOM      9  N   UNL     1      47.819   9.956  12.166  0.00  0.00    +0.000 NA
ATOM     10  C   UNL     1      49.122   9.804  11.829  0.00  0.00    +0.000 A 
ATOM     11  C   UNL     1      49.723   8.575  11.608  0.00  0.00    +0.000 A 
ATOM     12  C   UNL     1      48.919   7.435  11.733  0.00  0.00    +0.000 A 
BRANCH  11  13
ATOM     13  C   UNL     1      51.152   8.401  11.251  0.00  0.00    +0.000 C 
ATOM     14  N   UNL     1      51.600   7.167  10.870  0.00  0.00    +0.000 N 
ATOM     15  O   UNL     1      51.934   9.343  11.285  0.00  0.00    +0.000 OA
ATOM     16  H   UNL     1      51.048   6.326  10.804  0.00  0.00    +0.000 HD
ATOM     17  H   UNL     1      52.582   7.099  10.632  0.00  0.00    +0.000 HD
ENDBRANCH  11  13
ENDBRANCH   5   7
BRANCH   1  18
ATOM     18  C   UNL     1      43.886   4.610  10.235  0.00  0.00    +0.000 C 
BRANCH  18  24
ATOM     19  C   UNL     1      47.916   2.193   6.033  0.00  0.00    +0.000 C 
ATOM     20  C   UNL     1      46.838   2.447   7.026  0.00  0.00    +0.000 A 
ATOM     21  C   UNL     1      46.436   1.532   7.974  0.00  0.00    +0.000 A 
ATOM     22  N   UNL     1      45.481   1.773   8.898  0.00  0.00    +0.000 NA
ATOM     23  C   UNL     1      44.890   2.973   8.862  0.00  0.00    +0.000 A 
ATOM     24  N   UNL     1      43.921   3.222   9.829  0.00  0.00    +0.000 N 
ATOM     25  N   UNL     1      45.204   3.927   7.972  0.00  0.00    +0.000 NA
ATOM     26  C   UNL     1      46.166   3.646   7.076  0.00  0.00    +0.000 A 
ATOM     27  H   UNL     1      44.076   2.554  10.574  0.00  0.00    +0.000 HD
ENDBRANCH  18  24
ENDBRANCH   1  18
TORSDOF 4
ENDMDL
MODEL 2
REMARK VINA RESULT:    -7.815      1.747      2.289
REMARK INTER + INTRA:         -10.318
REMARK INTER:                  -9.678
REMARK INTRA:                  -0.639
REMARK UNBOUND:                -0.675
REMARK  Name = 
REMARK  5 active torsions:
REMARK  status: ('A' for Active; 'I' for Inactive)
REMARK    1  A    between atoms: C_1  and  C_2
REMARK    2  A    between atoms: N_6  and  C_7
REMARK    3  A    between atoms: C_7  and  C_8
REMARK    4  A    between atoms: C_12  and  C_13
REMARK    5  A    between atoms: C_17  and  C_18
REMARK                            x       y       z     vdW  Elec       q    Type
REMARK                         _______ _______ _______ _____ _____    ______ ____
ROOT
ATOM      1  C   UNL     1      45.076   4.718  11.454  0.00  0.00    +0.000 A 
ATOM      2  C   UNL     1      45.298   3.644  12.323  0.00  0.00    +0.000 A 
ATOM      3  C   UNL     1      46.243   3.753  13.339  0.00  0.00    +0.000 A 
ATOM      4  C   UNL     1      46.976   4.933  13.492  0.00  0.00    +0.000 A 
ATOM      5  C   UNL     1      46.789   6.033  12.635  0.00  0.00    +0.000 A 
ATOM      6  C   UNL     1      45.808   5.908  11.635  0.00  0.00    +0.000 A 
ENDROOT
BRANCH   5   7
ATOM      7  C   UNL     1      47.627   7.246  12.750  0.00  0.00    +0.000 A 
ATOM      8  C   UNL     1      48.364   7.764  11.685  0.00  0.00    +0.000 A 
ATOM      9  N   UNL     1      49.172   8.853  11.752  0.00  0.00    +0.000 NA
ATOM     10  C   UNL     1      49.255   9.481  12.950  0.00  0.00    +0.000 A 
ATOM     11  C   UNL     1      48.569   9.073  14.082  0.00  0.00    +0.000 A 
ATOM     12  C   UNL     1      47.756   7.938  13.968  0.00  0.00    +0.000 A 
BRANCH  11  13
ATOM     13  C   UNL     1      48.645   9.763  15.394  0.00  0.00    +0.000 C 
ATOM     14  N   UNL     1      47.741   9.445  16.369  0.00  0.00    +0.000 N 
ATOM     15  O   UNL     1      49.506  10.605  15.619  0.00  0.00    +0.000 OA
ATOM     16  H   UNL     1      46.996   8.770  16.295  0.00  0.00    +0.000 HD
ATOM     17  H   UNL     1      47.836   9.940  17.248  0.00  0.00    +0.000 HD
ENDBRANCH  11  13
ENDBRANCH   5   7
BRANCH   1  18
ATOM     18  C   UNL     1      44.108   4.594  10.299  0.00  0.00    +0.000 C 
BRANCH  18  24
ATOM     19  C   UNL     1      47.979   2.187   5.944  0.00  0.00    +0.000 C 
ATOM     20  C   UNL     1      46.919   2.447   6.956  0.00  0.00    +0.000 A 
ATOM     21  C   UNL     1      46.465   1.505   7.852  0.00  0.00    +0.000 A 
ATOM     22  N   UNL     1      45.527   1.748   8.793  0.00  0.00    +0.000 NA
ATOM     23  C   UNL     1      45.009   2.981   8.829  0.00  0.00    +0.000 A 
ATOM     24  N   UNL     1      44.059   3.231   9.813  0.00  0.00    +0.000 N 
ATOM     25  N   UNL     1      45.379   3.965   7.994  0.00  0.00    +0.000 NA
ATOM     26  C   UNL     1      46.321   3.679   7.079  0.00  0.00    +0.000 A 
ATOM     27  H   UNL     1      44.174   2.513  10.518  0.00  0.00    +0.000 HD
ENDBRANCH  18  24
ENDBRANCH   1  18
TORSDOF 4
ENDMDL
MODEL 3
REMARK VINA RESULT:    -7.673      3.396      4.705
REMARK INTER + INTRA:         -10.143
REMARK INTER:                  -9.556
REMARK INTRA:                  -0.586
REMARK UNBOUND:                -0.675
REMARK  Name = 
REMARK  5 active torsions:
REMARK  status: ('A' for Active; 'I' for Inactive)
REMARK    1  A    between atoms: C_1  and  C_2
REMARK    2  A    between atoms: N_6  and  C_7
REMARK    3  A    between atoms: C_7  and  C_8
REMARK    4  A    between atoms: C_12  and  C_13
REMARK    5  A    between atoms: C_17  and  C_18
REMARK                            x       y       z     vdW  Elec       q    Type
REMARK                         _______ _______ _______ _____ _____    ______ ____
ROOT
ATOM      1  C   UNL     1      44.934   4.672  11.542  0.00  0.00    +0.000 A 
ATOM      2  C   UNL     1      45.400   5.879  11.011  0.00  0.00    +0.000 A 
ATOM      3  C   UNL     1      46.462   6.544  11.617  0.00  0.00    +0.000 A 
ATOM      4  C   UNL     1      47.065   6.010  12.759  0.00  0.00    +0.000 A 
ATOM      5  C   UNL     1      46.622   4.802  13.329  0.00  0.00    +0.000 A 
ATOM      6  C   UNL     1      45.566   4.136  12.681  0.00  0.00    +0.000 A 
ENDROOT
BRANCH   5   7
ATOM      7  C   UNL     1      47.207   4.287  14.586  0.00  0.00    +0.000 A 
ATOM      8  C   UNL     1      47.749   3.006  14.704  0.00  0.00    +0.000 A 
ATOM      9  N   UNL     1      48.266   2.480  15.844  0.00  0.00    +0.000 NA
ATOM     10  C   UNL     1      48.255   3.272  16.943  0.00  0.00    +0.000 A 
ATOM     11  C   UNL     1      47.754   4.564  16.958  0.00  0.00    +0.000 A 
ATOM     12  C   UNL     1      47.221   5.060  15.762  0.00  0.00    +0.000 A 
BRANCH  11  13
ATOM     13  C   UNL     1      47.751   5.440  18.155  0.00  0.00    +0.000 C 
ATOM     14  N   UNL     1      46.588   5.611  18.853  0.00  0.00    +0.000 N 
ATOM     15  O   UNL     1      48.770   6.006  18.530  0.00  0.00    +0.000 OA
ATOM     16  H   UNL     1      45.696   5.195  18.639  0.00  0.00    +0.000 HD
ATOM     17  H   UNL     1      46.637   6.216  19.665  0.00  0.00    +0.000 HD
ENDBRANCH  11  13
ENDBRANCH   5   7
BRANCH   1  18
ATOM     18  C   UNL     1      43.735   3.972  10.943  0.00  0.00    +0.000 C 
BRANCH  18  24
ATOM     19  C   UNL     1      47.093   2.735   5.753  0.00  0.00    +0.000 C 
ATOM     20  C   UNL     1      46.281   2.687   6.999  0.00  0.00    +0.000 A 
ATOM     21  C   UNL     1      46.437   1.734   7.980  0.00  0.00    +0.000 A 
ATOM     22  N   UNL     1      45.725   1.708   9.128  0.00  0.00    +0.000 NA
ATOM     23  C   UNL     1      44.805   2.666   9.293  0.00  0.00    +0.000 A 
ATOM     24  N   UNL     1      44.089   2.646  10.485  0.00  0.00    +0.000 N 
ATOM     25  N   UNL     1      44.572   3.633   8.392  0.00  0.00    +0.000 NA
ATOM     26  C   UNL     1      45.311   3.623   7.269  0.00  0.00    +0.000 A 
ATOM     27  H   UNL     1      44.627   2.089  11.138  0.00  0.00    +0.000 HD
ENDBRANCH  18  24
ENDBRANCH   1  18
TORSDOF 4
ENDMDL
MODEL 4
REMARK VINA RESULT:    -7.126      3.123      7.528
REMARK INTER + INTRA:          -9.468
REMARK INTER:                  -8.868
REMARK INTRA:                  -0.600
REMARK UNBOUND:                -0.675
REMARK  Name = 
REMARK  5 active torsions:
REMARK  status: ('A' for Active; 'I' for Inactive)
REMARK    1  A    between atoms: C_1  and  C_2
REMARK    2  A    between atoms: N_6  and  C_7
REMARK    3  A    between atoms: C_7  and  C_8
REMARK    4  A    between atoms: C_12  and  C_13
REMARK    5  A    between atoms: C_17  and  C_18
REMARK                            x       y       z     vdW  Elec       q    Type
REMARK                         _______ _______ _______ _____ _____    ______ ____
ROOT
ATOM      1  C   UNL     1      45.399   6.671  11.365  0.00  0.00    +0.000 A 
ATOM      2  C   UNL     1      44.044   6.838  11.674  0.00  0.00    +0.000 A 
ATOM      3  C   UNL     1      43.110   5.900  11.243  0.00  0.00    +0.000 A 
ATOM      4  C   UNL     1      43.521   4.791  10.498  0.00  0.00    +0.000 A 
ATOM      5  C   UNL     1      44.872   4.590  10.160  0.00  0.00    +0.000 A 
ATOM      6  C   UNL     1      45.799   5.537  10.632  0.00  0.00    +0.000 A 
ENDROOT
BRANCH   5   7
ATOM      7  C   UNL     1      45.288   3.462   9.299  0.00  0.00    +0.000 A 
ATOM      8  C   UNL     1      44.921   2.139   9.550  0.00  0.00    +0.000 A 
ATOM      9  N   UNL     1      45.306   1.069   8.807  0.00  0.00    +0.000 NA
ATOM     10  C   UNL     1      46.101   1.320   7.739  0.00  0.00    +0.000 A 
ATOM     11  C   UNL     1      46.529   2.586   7.377  0.00  0.00    +0.000 A 
ATOM     12  C   UNL     1      46.116   3.658   8.178  0.00  0.00    +0.000 A 
BRANCH  11  13
ATOM     13  C   UNL     1      47.389   2.869   6.201  0.00  0.00    +0.000 C 
ATOM     14  N   UNL     1      48.746   2.775   6.329  0.00  0.00    +0.000 N 
ATOM     15  O   UNL     1      46.903   3.177   5.119  0.00  0.00    +0.000 OA
ATOM     16  H   UNL     1      49.251   2.528   7.166  0.00  0.00    +0.000 HD
ATOM     17  H   UNL     1      49.291   2.973   5.498  0.00  0.00    +0.000 HD
ENDBRANCH  11  13
ENDBRANCH   5   7
BRANCH   1  18
ATOM     18  C   UNL     1      46.418   7.715  11.760  0.00  0.00    +0.000 C 
BRANCH  18  24
ATOM     19  C   UNL     1      49.115   8.363  17.422  0.00  0.00    +0.000 C 
ATOM     20  C   UNL     1      48.759   8.028  16.017  0.00  0.00    +0.000 A 
ATOM     21  C   UNL     1      49.047   6.821  15.418  0.00  0.00    +0.000 A 
ATOM     22  N   UNL     1      48.695   6.502  14.154  0.00  0.00    +0.000 NA
ATOM     23  C   UNL     1      48.041   7.436  13.452  0.00  0.00    +0.000 A 
ATOM     24  N   UNL     1      47.664   7.094  12.157  0.00  0.00    +0.000 N 
ATOM     25  N   UNL     1      47.723   8.643  13.942  0.00  0.00    +0.000 NA
ATOM     26  C   UNL     1      48.087   8.913  15.208  0.00  0.00    +0.000 A 
ATOM     27  H   UNL     1      47.681   6.082  12.107  0.00  0.00    +0.000 HD
ENDBRANCH  18  24
ENDBRANCH   1  18
TORSDOF 4
ENDMDL
MODEL 5
REMARK VINA RESULT:    -7.024      3.568      7.703
REMARK INTER + INTRA:          -9.341
REMARK INTER:                  -8.685
REMARK INTRA:                  -0.656
REMARK UNBOUND:                -0.675
REMARK  Name = 
REMARK  5 active torsions:
REMARK  status: ('A' for Active; 'I' for Inactive)
REMARK    1  A    between atoms: C_1  and  C_2
REMARK    2  A    between atoms: N_6  and  C_7
REMARK    3  A    between atoms: C_7  and  C_8
REMARK    4  A    between atoms: C_12  and  C_13
REMARK    5  A    between atoms: C_17  and  C_18
REMARK                            x       y       z     vdW  Elec       q    Type
REMARK                         _______ _______ _______ _____ _____    ______ ____
ROOT
ATOM      1  C   UNL     1      46.810   7.815  13.030  0.00  0.00    +0.000 A 
ATOM      2  C   UNL     1      46.037   8.964  12.830  0.00  0.00    +0.000 A 
ATOM      3  C   UNL     1      44.913   8.915  12.010  0.00  0.00    +0.000 A 
ATOM      4  C   UNL     1      44.555   7.720  11.381  0.00  0.00    +0.000 A 
ATOM      5  C   UNL     1      45.310   6.543  11.549  0.00  0.00    +0.000 A 
ATOM      6  C   UNL     1      46.424   6.613  12.405  0.00  0.00    +0.000 A 
ENDROOT
BRANCH   5   7
ATOM      7  C   UNL     1      44.975   5.305  10.813  0.00  0.00    +0.000 A 
ATOM      8  C   UNL     1      44.013   4.396  11.253  0.00  0.00    +0.000 A 
ATOM      9  N   UNL     1      43.697   3.233  10.628  0.00  0.00    +0.000 NA
ATOM     10  C   UNL     1      44.369   2.948   9.488  0.00  0.00    +0.000 A 
ATOM     11  C   UNL     1      45.342   3.769   8.941  0.00  0.00    +0.000 A 
ATOM     12  C   UNL     1      45.642   4.953   9.625  0.00  0.00    +0.000 A 
BRANCH  11  13
ATOM     13  C   UNL     1      46.073   3.469   7.685  0.00  0.00    +0.000 C 
ATOM     14  N   UNL     1      46.373   2.171   7.381  0.00  0.00    +0.000 N 
ATOM     15  O   UNL     1      46.405   4.362   6.915  0.00  0.00    +0.000 OA
ATOM     16  H   UNL     1      46.147   1.360   7.936  0.00  0.00    +0.000 HD
ATOM     17  H   UNL     1      46.869   2.016   6.511  0.00  0.00    +0.000 HD
ENDBRANCH  11  13
ENDBRANCH   5   7
BRANCH   1  18
ATOM     18  C   UNL     1      48.075   7.866  13.857  0.00  0.00    +0.000 C 
BRANCH  18  24
ATOM     19  C   UNL     1      48.284   5.365  19.640  0.00  0.00    +0.000 C 
ATOM     20  C   UNL     1      48.379   5.660  18.185  0.00  0.00    +0.000 A 
ATOM     21  C   UNL     1      48.197   4.717  17.197  0.00  0.00    +0.000 A 
ATOM     22  N   UNL     1      48.248   4.989  15.875  0.00  0.00    +0.000 NA
ATOM     23  C   UNL     1      48.511   6.254  15.526  0.00  0.00    +0.000 A 
ATOM     24  N   UNL     1      48.543   6.531  14.162  0.00  0.00    +0.000 N 
ATOM     25  N   UNL     1      48.712   7.241  16.411  0.00  0.00    +0.000 NA
ATOM     26  C   UNL     1      48.643   6.925  17.716  0.00  0.00    +0.000 A 
ATOM     27  H   UNL     1      48.046   5.778  13.701  0.00  0.00    +0.000 HD
ENDBRANCH  18  24
ENDBRANCH   1  18
TORSDOF 4
ENDMDL
MODEL 6
REMARK VINA RESULT:    -6.816      4.603      8.461
REMARK INTER + INTRA:          -9.085
REMARK INTER:                  -8.544
REMARK INTRA:                  -0.541
REMARK UNBOUND:                -0.675
REMARK  Name = 
REMARK  5 active torsions:
REMARK  status: ('A' for Active; 'I' for Inactive)
REMARK    1  A    between atoms: C_1  and  C_2
REMARK    2  A    between atoms: N_6  and  C_7
REMARK    3  A    between atoms: C_7  and  C_8
REMARK    4  A    between atoms: C_12  and  C_13
REMARK    5  A    between atoms: C_17  and  C_18
REMARK                            x       y       z     vdW  Elec       q    Type
REMARK                         _______ _______ _______ _____ _____    ______ ____
ROOT
ATOM      1  C   UNL     1      47.864   7.023  13.960  0.00  0.00    +0.000 A 
ATOM      2  C   UNL     1      47.858   8.193  13.193  0.00  0.00    +0.000 A 
ATOM      3  C   UNL     1      46.980   8.319  12.120  0.00  0.00    +0.000 A 
ATOM      4  C   UNL     1      46.105   7.277  11.803  0.00  0.00    +0.000 A 
ATOM      5  C   UNL     1      46.084   6.081  12.544  0.00  0.00    +0.000 A 
ATOM      6  C   UNL     1      46.960   5.991  13.640  0.00  0.00    +0.000 A 
ENDROOT
BRANCH   5   7
ATOM      7  C   UNL     1      45.216   4.951  12.151  0.00  0.00    +0.000 A 
ATOM      8  C   UNL     1      44.294   4.362  13.018  0.00  0.00    +0.000 A 
ATOM      9  N   UNL     1      43.502   3.303  12.712  0.00  0.00    +0.000 NA
ATOM     10  C   UNL     1      43.619   2.792  11.463  0.00  0.00    +0.000 A 
ATOM     11  C   UNL     1      44.489   3.288  10.505  0.00  0.00    +0.000 A 
ATOM     12  C   UNL     1      45.294   4.374  10.870  0.00  0.00    +0.000 A 
BRANCH  11  13
ATOM     13  C   UNL     1      44.613   2.741   9.132  0.00  0.00    +0.000 C 
ATOM     14  N   UNL     1      44.295   3.536   8.066  0.00  0.00    +0.000 N 
ATOM     15  O   UNL     1      45.000   1.596   8.937  0.00  0.00    +0.000 OA
ATOM     16  H   UNL     1      43.971   4.489   8.107  0.00  0.00    +0.000 HD
ATOM     17  H   UNL     1      44.400   3.120   7.148  0.00  0.00    +0.000 HD
ENDBRANCH  11  13
ENDBRANCH   5   7
BRANCH   1  18
ATOM     18  C   UNL     1      48.860   6.837  15.082  0.00  0.00    +0.000 C 
BRANCH  18  24
ATOM     19  C   UNL     1      52.120   4.526  19.958  0.00  0.00    +0.000 C 
ATOM     20  C   UNL     1      51.094   4.894  18.946  0.00  0.00    +0.000 A 
ATOM     21  C   UNL     1      49.768   5.119  19.243  0.00  0.00    +0.000 A 
ATOM     22  N   UNL     1      48.841   5.487  18.332  0.00  0.00    +0.000 NA
ATOM     23  C   UNL     1      49.255   5.618  17.066  0.00  0.00    +0.000 A 
ATOM     24  N   UNL     1      48.300   6.017  16.135  0.00  0.00    +0.000 N 
ATOM     25  N   UNL     1      50.521   5.413  16.674  0.00  0.00    +0.000 NA
ATOM     26  C   UNL     1      51.410   5.056  17.618  0.00  0.00    +0.000 A 
ATOM     27  H   UNL     1      47.541   6.438  16.659  0.00  0.00    +0.000 HD
ENDBRANCH  18  24
ENDBRANCH   1  18
TORSDOF 4
ENDMDL
MODEL 7
REMARK VINA RESULT:    -6.624      3.579      7.997
REMARK INTER + INTRA:          -8.848
REMARK INTER:                  -8.273
REMARK INTRA:                  -0.574
REMARK UNBOUND:                -0.675
REMARK  Name = 
REMARK  5 active torsions:
REMARK  status: ('A' for Active; 'I' for Inactive)
REMARK    1  A    between atoms: C_1  and  C_2
REMARK    2  A    between atoms: N_6  and  C_7
REMARK    3  A    between atoms: C_7  and  C_8
REMARK    4  A    between atoms: C_12  and  C_13
REMARK    5  A    between atoms: C_17  and  C_18
REMARK                            x       y       z     vdW  Elec       q    Type
REMARK                         _______ _______ _______ _____ _____    ______ ____
ROOT
ATOM      1  C   UNL     1      48.034   8.319  12.224  0.00  0.00    +0.000 A 
ATOM      2  C   UNL     1      47.281   9.496  12.147  0.00  0.00    +0.000 A 
ATOM      3  C   UNL     1      45.893   9.431  12.059  0.00  0.00    +0.000 A 
ATOM      4  C   UNL     1      45.247   8.192  12.044  0.00  0.00    +0.000 A 
ATOM      5  C   UNL     1      45.968   6.985  12.112  0.00  0.00    +0.000 A 
ATOM      6  C   UNL     1      47.366   7.079  12.229  0.00  0.00    +0.000 A 
ENDROOT
BRANCH   5   7
ATOM      7  C   UNL     1      45.285   5.677  12.009  0.00  0.00    +0.000 A 
ATOM      8  C   UNL     1      44.709   5.032  13.104  0.00  0.00    +0.000 A 
ATOM      9  N   UNL     1      44.102   3.818  13.063  0.00  0.00    +0.000 NA
ATOM     10  C   UNL     1      44.051   3.200  11.859  0.00  0.00    +0.000 A 
ATOM     11  C   UNL     1      44.577   3.735  10.695  0.00  0.00    +0.000 A 
ATOM     12  C   UNL     1      45.203   4.984  10.788  0.00  0.00    +0.000 A 
BRANCH  11  13
ATOM     13  C   UNL     1      44.514   3.069   9.371  0.00  0.00    +0.000 C 
ATOM     14  N   UNL     1      44.252   3.818   8.258  0.00  0.00    +0.000 N 
ATOM     15  O   UNL     1      44.700   1.863   9.258  0.00  0.00    +0.000 OA
ATOM     16  H   UNL     1      44.087   4.812   8.233  0.00  0.00    +0.000 HD
ATOM     17  H   UNL     1      44.223   3.319   7.377  0.00  0.00    +0.000 HD
ENDBRANCH  11  13
ENDBRANCH   5   7
BRANCH   1  18
ATOM     18  C   UNL     1      49.545   8.365  12.246  0.00  0.00    +0.000 C 
BRANCH  18  24
ATOM     19  C   UNL     1      49.502   8.381  18.550  0.00  0.00    +0.000 C 
ATOM     20  C   UNL     1      49.683   8.084  17.103  0.00  0.00    +0.000 A 
ATOM     21  C   UNL     1      49.637   6.816  16.568  0.00  0.00    +0.000 A 
ATOM     22  N   UNL     1      49.767   6.547  15.251  0.00  0.00    +0.000 NA
ATOM     23  C   UNL     1      49.967   7.590  14.436  0.00  0.00    +0.000 A 
ATOM     24  N   UNL     1      50.079   7.308  13.078  0.00  0.00    +0.000 N 
ATOM     25  N   UNL     1      50.036   8.860  14.861  0.00  0.00    +0.000 NA
ATOM     26  C   UNL     1      49.893   9.080  16.179  0.00  0.00    +0.000 A 
ATOM     27  H   UNL     1      49.670   6.393  12.936  0.00  0.00    +0.000 HD
ENDBRANCH  18  24
ENDBRANCH   1  18
TORSDOF 4
ENDMDL
MODEL 8
REMARK VINA RESULT:    -6.621      4.416      8.492
REMARK INTER + INTRA:          -8.844
REMARK INTER:                  -8.180
REMARK INTRA:                  -0.664
REMARK UNBOUND:                -0.675
REMARK  Name = 
REMARK  5 active torsions:
REMARK  status: ('A' for Active; 'I' for Inactive)
REMARK    1  A    between atoms: C_1  and  C_2
REMARK    2  A    between atoms: N_6  and  C_7
REMARK    3  A    between atoms: C_7  and  C_8
REMARK    4  A    between atoms: C_12  and  C_13
REMARK    5  A    between atoms: C_17  and  C_18
REMARK                            x       y       z     vdW  Elec       q    Type
REMARK                         _______ _______ _______ _____ _____    ______ ____
ROOT
ATOM      1  C   UNL     1      49.659   7.817  14.082  0.00  0.00    +0.000 A 
ATOM      2  C   UNL     1      50.058   8.518  12.938  0.00  0.00    +0.000 A 
ATOM      3  C   UNL     1      49.398   8.314  11.729  0.00  0.00    +0.000 A 
ATOM      4  C   UNL     1      48.337   7.407  11.653  0.00  0.00    +0.000 A 
ATOM      5  C   UNL     1      47.909   6.678  12.778  0.00  0.00    +0.000 A 
ATOM      6  C   UNL     1      48.574   6.924  13.993  0.00  0.00    +0.000 A 
ENDROOT
BRANCH   5   7
ATOM      7  C   UNL     1      46.843   5.659  12.671  0.00  0.00    +0.000 A 
ATOM      8  C   UNL     1      46.806   4.511  13.463  0.00  0.00    +0.000 A 
ATOM      9  N   UNL     1      45.867   3.533  13.377  0.00  0.00    +0.000 NA
ATOM     10  C   UNL     1      44.892   3.702  12.453  0.00  0.00    +0.000 A 
ATOM     11  C   UNL     1      44.809   4.799  11.610  0.00  0.00    +0.000 A 
ATOM     12  C   UNL     1      45.805   5.776  11.728  0.00  0.00    +0.000 A 
BRANCH  11  13
ATOM     13  C   UNL     1      43.737   4.995  10.604  0.00  0.00    +0.000 C 
ATOM     14  N   UNL     1      43.897   4.480   9.348  0.00  0.00    +0.000 N 
ATOM     15  O   UNL     1      42.710   5.603  10.881  0.00  0.00    +0.000 OA
ATOM     16  H   UNL     1      44.695   3.963   9.012  0.00  0.00    +0.000 HD
ATOM     17  H   UNL     1      43.136   4.636   8.698  0.00  0.00    +0.000 HD
ENDBRANCH  11  13
ENDBRANCH   5   7
BRANCH   1  18
ATOM     18  C   UNL     1      50.410   7.969  15.385  0.00  0.00    +0.000 C 
BRANCH  18  24
ATOM     19  C   UNL     1      48.849   4.497  20.410  0.00  0.00    +0.000 C 
ATOM     20  C   UNL     1      49.460   5.080  19.185  0.00  0.00    +0.000 A 
ATOM     21  C   UNL     1      49.968   4.328  18.148  0.00  0.00    +0.000 A 
ATOM     22  N   UNL     1      50.492   4.855  17.020  0.00  0.00    +0.000 NA
ATOM     23  C   UNL     1      50.525   6.190  16.932  0.00  0.00    +0.000 A 
ATOM     24  N   UNL     1      51.048   6.725  15.759  0.00  0.00    +0.000 N 
ATOM     25  N   UNL     1      50.065   7.007  17.891  0.00  0.00    +0.000 NA
ATOM     26  C   UNL     1      49.544   6.439  18.992  0.00  0.00    +0.000 A 
ATOM     27  H   UNL     1      51.012   5.991  15.063  0.00  0.00    +0.000 HD
ENDBRANCH  18  24
ENDBRANCH   1  18
TORSDOF 4
ENDMDL
MODEL 9
REMARK VINA RESULT:    -6.461      4.541      7.182
REMARK INTER + INTRA:          -8.647
REMARK INTER:                  -8.070
REMARK INTRA:                  -0.576
REMARK UNBOUND:                -0.675
REMARK  Name = 
REMARK  5 active torsions:
REMARK  status: ('A' for Active; 'I' for Inactive)
REMARK    1  A    between atoms: C_1  and  C_2
REMARK    2  A    between atoms: N_6  and  C_7
REMARK    3  A    between atoms: C_7  and  C_8
REMARK    4  A    between atoms: C_12  and  C_13
REMARK    5  A    between atoms: C_17  and  C_18
REMARK                            x       y       z     vdW  Elec       q    Type
REMARK                         _______ _______ _______ _____ _____    ______ ____
ROOT
ATOM      1  C   UNL     1      46.027   4.156  13.019  0.00  0.00    +0.000 A 
ATOM      2  C   UNL     1      45.348   3.313  12.133  0.00  0.00    +0.000 A 
ATOM      3  C   UNL     1      44.588   3.855  11.100  0.00  0.00    +0.000 A 
ATOM      4  C   UNL     1      44.498   5.241  10.946  0.00  0.00    +0.000 A 
ATOM      5  C   UNL     1      45.160   6.124  11.820  0.00  0.00    +0.000 A 
ATOM      6  C   UNL     1      45.944   5.551  12.838  0.00  0.00    +0.000 A 
ENDROOT
BRANCH   5   7
ATOM      7  C   UNL     1      44.992   7.588  11.704  0.00  0.00    +0.000 A 
ATOM      8  C   UNL     1      45.943   8.502  12.158  0.00  0.00    +0.000 A 
ATOM      9  N   UNL     1      45.817   9.852  12.103  0.00  0.00    +0.000 NA
ATOM     10  C   UNL     1      44.677  10.338  11.555  0.00  0.00    +0.000 A 
ATOM     11  C   UNL     1      43.659   9.540  11.059  0.00  0.00    +0.000 A 
ATOM     12  C   UNL     1      43.829   8.153  11.147  0.00  0.00    +0.000 A 
BRANCH  11  13
ATOM     13  C   UNL     1      42.415  10.065  10.446  0.00  0.00    +0.000 C 
ATOM     14  N   UNL     1      41.210   9.759  11.014  0.00  0.00    +0.000 N 
ATOM     15  O   UNL     1      42.449  10.773   9.446  0.00  0.00    +0.000 OA
ATOM     16  H   UNL     1      41.063   9.191  11.834  0.00  0.00    +0.000 HD
ATOM     17  H   UNL     1      40.389  10.144  10.562  0.00  0.00    +0.000 HD
ENDBRANCH  11  13
ENDBRANCH   5   7
BRANCH   1  18
ATOM     18  C   UNL     1      46.797   3.591  14.191  0.00  0.00    +0.000 C 
BRANCH  18  24
ATOM     19  C   UNL     1      51.241   3.941  18.649  0.00  0.00    +0.000 C 
ATOM     20  C   UNL     1      50.037   4.095  17.788  0.00  0.00    +0.000 A 
ATOM     21  C   UNL     1      49.396   5.294  17.572  0.00  0.00    +0.000 A 
ATOM     22  N   UNL     1      48.324   5.443  16.764  0.00  0.00    +0.000 NA
ATOM     23  C   UNL     1      47.863   4.341  16.160  0.00  0.00    +0.000 A 
ATOM     24  N   UNL     1      46.770   4.504  15.313  0.00  0.00    +0.000 N 
ATOM     25  N   UNL     1      48.411   3.127  16.313  0.00  0.00    +0.000 NA
ATOM     26  C   UNL     1      49.482   3.029  17.120  0.00  0.00    +0.000 A 
ATOM     27  H   UNL     1      46.733   5.488  15.074  0.00  0.00    +0.000 HD
ENDBRANCH  18  24
ENDBRANCH   1  18
TORSDOF 4
ENDMDL
