MODEL 1
REMARK VINA RESULT:    -8.179      0.000      0.000
REMARK INTER + INTRA:         -11.827
REMARK INTER:                 -11.048
REMARK INTRA:                  -0.779
REMARK UNBOUND:                -0.779
REMARK  Name = 
REMARK  7 active torsions:
REMARK  status: ('A' for Active; 'I' for Inactive)
REMARK    1  A    between atoms: N_1  and  C_2
REMARK    2  A    between atoms: C_2  and  C_3
REMARK    3  A    between atoms: C_3  and  C_4
REMARK    4  A    between atoms: C_7  and  C_8
REMARK    5  A    between atoms: C_8  and  N_9
REMARK    6  A    between atoms: C_15  and  C_16
REMARK    7  A    between atoms: C_16  and  O_18
REMARK                            x       y       z     vdW  Elec       q    Type
REMARK                         _______ _______ _______ _____ _____    ______ ____
ROOT
ATOM      1  N   UNL     1      44.096   6.334  11.564  0.00  0.00    +0.000 N 
ATOM      2  C   UNL     1      44.442   7.547  10.950  0.00  0.00    +0.000 A 
ATOM      3  C   UNL     1      44.985   8.299  11.980  0.00  0.00    +0.000 A 
ATOM      4  C   UNL     1      45.785   7.300  12.604  0.00  0.00    +0.000 A 
ATOM      5  C   UNL     1      47.085   7.244  13.122  0.00  0.00    +0.000 A 
ATOM      6  C   UNL     1      47.501   6.065  13.757  0.00  0.00    +0.000 A 
ATOM      7  C   UNL     1      46.604   5.011  13.991  0.00  0.00    +0.000 A 
ATOM      8  C   UNL     1      45.330   5.049  13.412  0.00  0.00    +0.000 A 
ATOM      9  F   UNL     1      44.464   4.039  13.579  0.00  0.00    +0.000 F 
ATOM     10  C   UNL     1      44.999   6.144  12.606  0.00  0.00    +0.000 A 
ENDROOT
BRANCH   7  11
ATOM     11  C   UNL     1      47.076   3.871  14.814  0.00  0.00    +0.000 C 
ATOM     12  O   UNL     1      47.617   2.873  14.321  0.00  0.00    +0.000 OA
BRANCH  11  13
ATOM     13  O   UNL     1      46.842   3.960  16.140  0.00  0.00    +0.000 OA
ATOM     14  H   UNL     1      46.051   4.489  16.375  0.00  0.00    +0.000 HD
ENDBRANCH  11  13
ENDBRANCH   7  11
BRANCH   1  15
ATOM     15  C   UNL     1      43.362   5.292  10.839  0.00  0.00    +0.000 C 
BRANCH  15  19
ATOM     16  C   UNL     1      45.855   2.726   8.376  0.00  0.00    +0.000 A 
ATOM     17  C   UNL     1      45.950   4.121   8.286  0.00  0.00    +0.000 A 
ATOM     18  C   UNL     1      45.176   4.942   9.109  0.00  0.00    +0.000 A 
ATOM     19  C   UNL     1      44.272   4.395  10.030  0.00  0.00    +0.000 A 
ATOM     20  C   UNL     1      44.210   2.998  10.145  0.00  0.00    +0.000 A 
ATOM     21  C   UNL     1      44.992   2.175   9.330  0.00  0.00    +0.000 A 
BRANCH  16  22
ATOM     22  C   UNL     1      46.644   1.835   7.445  0.00  0.00    +0.000 C 
BRANCH  22  23
ATOM     23  C   UNL     1      47.881   2.511   6.841  0.00  0.00    +0.000 C 
BRANCH  23  24
ATOM     24  N   UNL     1      48.398   1.744   5.705  0.00  0.00    +0.000 NA
ATOM     25  H   UNL     1      49.397   1.920   5.601  0.00  0.00    +0.000 HD
ATOM     26  H   UNL     1      47.963   2.068   4.841  0.00  0.00    +0.000 HD
ENDBRANCH  23  24
ENDBRANCH  22  23
ENDBRANCH  16  22
ENDBRANCH  15  19
ENDBRANCH   1  15
TORSDOF 7
ENDMDL
MODEL 2
REMARK VINA RESULT:    -7.333      1.519      2.360
REMARK INTER + INTRA:         -10.684
REMARK INTER:                 -10.246
REMARK INTRA:                  -0.438
REMARK UNBOUND:                -0.779
REMARK  Name = 
REMARK  7 active torsions:
REMARK  status: ('A' for Active; 'I' for Inactive)
REMARK    1  A    between atoms: N_1  and  C_2
REMARK    2  A    between atoms: C_2  and  C_3
REMARK    3  A    between atoms: C_3  and  C_4
REMARK    4  A    between atoms: C_7  and  C_8
REMARK    5  A    between atoms: C_8  and  N_9
REMARK    6  A    between atoms: C_15  and  C_16
REMARK    7  A    between atoms: C_16  and  O_18
REMARK                            x       y       z     vdW  Elec       q    Type
REMARK                         _______ _______ _______ _____ _____    ______ ____
ROOT
ATOM      1  N   UNL     1      43.980   4.135  11.887  0.00  0.00    +0.000 N 
ATOM      2  C   UNL     1      42.942   4.907  11.343  0.00  0.00    +0.000 A 
ATOM      3  C   UNL     1      42.800   5.954  12.240  0.00  0.00    +0.000 A 
ATOM      4  C   UNL     1      44.172   6.254  12.472  0.00  0.00    +0.000 A 
ATOM      5  C   UNL     1      44.936   7.425  12.561  0.00  0.00    +0.000 A 
ATOM      6  C   UNL     1      46.293   7.314  12.897  0.00  0.00    +0.000 A 
ATOM      7  C   UNL     1      46.850   6.080  13.269  0.00  0.00    +0.000 A 
ATOM      8  C   UNL     1      46.098   4.909  13.111  0.00  0.00    +0.000 A 
ATOM      9  F   UNL     1      46.616   3.710  13.415  0.00  0.00    +0.000 F 
ATOM     10  C   UNL     1      44.810   5.014  12.577  0.00  0.00    +0.000 A 
ENDROOT
BRANCH   7  11
ATOM     11  C   UNL     1      48.245   6.075  13.771  0.00  0.00    +0.000 C 
ATOM     12  O   UNL     1      48.522   5.886  14.963  0.00  0.00    +0.000 OA
BRANCH  11  13
ATOM     13  O   UNL     1      49.205   6.332  12.859  0.00  0.00    +0.000 OA
ATOM     14  H   UNL     1      48.950   6.991  12.181  0.00  0.00    +0.000 HD
ENDBRANCH  11  13
ENDBRANCH   7  11
BRANCH   1  15
ATOM     15  C   UNL     1      44.361   2.845  11.303  0.00  0.00    +0.000 C 
BRANCH  15  19
ATOM     16  C   UNL     1      46.015   3.188   7.302  0.00  0.00    +0.000 A 
ATOM     17  C   UNL     1      45.643   1.941   7.821  0.00  0.00    +0.000 A 
ATOM     18  C   UNL     1      45.073   1.841   9.092  0.00  0.00    +0.000 A 
ATOM     19  C   UNL     1      44.878   2.978   9.888  0.00  0.00    +0.000 A 
ATOM     20  C   UNL     1      45.215   4.228   9.349  0.00  0.00    +0.000 A 
ATOM     21  C   UNL     1      45.775   4.331   8.072  0.00  0.00    +0.000 A 
BRANCH  16  22
ATOM     22  C   UNL     1      46.689   3.295   5.953  0.00  0.00    +0.000 C 
BRANCH  22  23
ATOM     23  C   UNL     1      47.754   2.220   5.706  0.00  0.00    +0.000 C 
BRANCH  23  24
ATOM     24  N   UNL     1      48.963   2.487   6.490  0.00  0.00    +0.000 NA
ATOM     25  H   UNL     1      49.210   3.473   6.410  0.00  0.00    +0.000 HD
ATOM     26  H   UNL     1      49.749   1.966   6.101  0.00  0.00    +0.000 HD
ENDBRANCH  23  24
ENDBRANCH  22  23
ENDBRANCH  16  22
ENDBRANCH  15  19
ENDBRANCH   1  15
TORSDOF 7
ENDMDL
MODEL 3
REMARK VINA RESULT:    -6.811      3.384      6.804
REMARK INTER + INTRA:          -9.980
REMARK INTER:                 -10.135
REMARK INTRA:                   0.156
REMARK UNBOUND:                -0.779
REMARK  Name = 
REMARK  7 active torsions:
REMARK  status: ('A' for Active; 'I' for Inactive)
REMARK    1  A    between atoms: N_1  and  C_2
REMARK    2  A    between atoms: C_2  and  C_3
REMARK    3  A    between atoms: C_3  and  C_4
REMARK    4  A    between atoms: C_7  and  C_8
REMARK    5  A    between atoms: C_8  and  N_9
REMARK    6  A    between atoms: C_15  and  C_16
REMARK    7  A    between atoms: C_16  and  O_18
REMARK                            x       y       z     vdW  Elec       q    Type
REMARK                         _______ _______ _______ _____ _____    ______ ____
ROOT
ATOM      1  N   UNL     1      45.155   5.270  10.624  0.00  0.00    +0.000 N 
ATOM      2  C   UNL     1      44.208   4.703  11.489  0.00  0.00    +0.000 A 
ATOM      3  C   UNL     1      43.349   4.020  10.642  0.00  0.00    +0.000 A 
ATOM      4  C   UNL     1      44.305   3.421   9.772  0.00  0.00    +0.000 A 
ATOM      5  C   UNL     1      44.480   2.152   9.205  0.00  0.00    +0.000 A 
ATOM      6  C   UNL     1      45.533   1.965   8.299  0.00  0.00    +0.000 A 
ATOM      7  C   UNL     1      46.314   3.046   7.860  0.00  0.00    +0.000 A 
ATOM      8  C   UNL     1      46.176   4.293   8.481  0.00  0.00    +0.000 A 
ATOM      9  F   UNL     1      46.937   5.335   8.117  0.00  0.00    +0.000 F 
ATOM     10  C   UNL     1      45.260   4.413   9.532  0.00  0.00    +0.000 A 
ENDROOT
BRANCH   7  11
ATOM     11  C   UNL     1      47.296   2.796   6.777  0.00  0.00    +0.000 C 
ATOM     12  O   UNL     1      48.247   2.014   6.908  0.00  0.00    +0.000 OA
BRANCH  11  13
ATOM     13  O   UNL     1      47.121   3.505   5.643  0.00  0.00    +0.000 OA
ATOM     14  H   UNL     1      47.699   3.228   4.901  0.00  0.00    +0.000 HD
ENDBRANCH  11  13
ENDBRANCH   7  11
BRANCH   1  15
ATOM     15  C   UNL     1      46.182   6.195  11.114  0.00  0.00    +0.000 C 
BRANCH  15  19
ATOM     16  C   UNL     1      47.591   5.086  15.070  0.00  0.00    +0.000 A 
ATOM     17  C   UNL     1      46.883   4.173  14.277  0.00  0.00    +0.000 A 
ATOM     18  C   UNL     1      46.468   4.520  12.990  0.00  0.00    +0.000 A 
ATOM     19  C   UNL     1      46.729   5.793  12.466  0.00  0.00    +0.000 A 
ATOM     20  C   UNL     1      47.473   6.690  13.247  0.00  0.00    +0.000 A 
ATOM     21  C   UNL     1      47.899   6.340  14.531  0.00  0.00    +0.000 A 
BRANCH  16  22
ATOM     22  C   UNL     1      47.988   4.736  16.486  0.00  0.00    +0.000 C 
BRANCH  22  23
ATOM     23  C   UNL     1      47.860   3.244  16.814  0.00  0.00    +0.000 C 
BRANCH  23  24
ATOM     24  N   UNL     1      46.722   2.996  17.702  0.00  0.00    +0.000 NA
ATOM     25  H   UNL     1      46.729   2.022  18.002  0.00  0.00    +0.000 HD
ATOM     26  H   UNL     1      45.849   3.128  17.192  0.00  0.00    +0.000 HD
ENDBRANCH  23  24
ENDBRANCH  22  23
ENDBRANCH  16  22
ENDBRANCH  15  19
ENDBRANCH   1  15
TORSDOF 7
ENDMDL
MODEL 4
REMARK VINA RESULT:    -6.405      4.071      7.004
REMARK INTER + INTRA:          -9.430
REMARK INTER:                  -9.000
REMARK INTRA:                  -0.431
REMARK UNBOUND:                -0.779
REMARK  Name = 
REMARK  7 active torsions:
REMARK  status: ('A' for Active; 'I' for Inactive)
REMARK    1  A    between atoms: N_1  and  C_2
REMARK    2  A    between atoms: C_2  and  C_3
REMARK    3  A    between atoms: C_3  and  C_4
REMARK    4  A    between atoms: C_7  and  C_8
REMARK    5  A    between atoms: C_8  and  N_9
REMARK    6  A    between atoms: C_15  and  C_16
REMARK    7  A    between atoms: C_16  and  O_18
REMARK                            x       y       z     vdW  Elec       q    Type
REMARK                         _______ _______ _______ _____ _____    ______ ____
ROOT
ATOM      1  N   UNL     1      47.123   5.127  14.180  0.00  0.00    +0.000 N 
ATOM      2  C   UNL     1      47.632   6.434  14.141  0.00  0.00    +0.000 A 
ATOM      3  C   UNL     1      47.957   6.625  12.807  0.00  0.00    +0.000 A 
ATOM      4  C   UNL     1      46.807   6.046  12.199  0.00  0.00    +0.000 A 
ATOM      5  C   UNL     1      45.955   6.395  11.144  0.00  0.00    +0.000 A 
ATOM      6  C   UNL     1      44.945   5.494  10.774  0.00  0.00    +0.000 A 
ATOM      7  C   UNL     1      44.867   4.217  11.350  0.00  0.00    +0.000 A 
ATOM      8  C   UNL     1      45.678   3.904  12.447  0.00  0.00    +0.000 A 
ATOM      9  F   UNL     1      45.596   2.708  13.048  0.00  0.00    +0.000 F 
ATOM     10  C   UNL     1      46.540   4.891  12.938  0.00  0.00    +0.000 A 
ENDROOT
BRANCH   7  11
ATOM     11  C   UNL     1      43.878   3.264  10.788  0.00  0.00    +0.000 C 
ATOM     12  O   UNL     1      44.060   2.673   9.716  0.00  0.00    +0.000 OA
BRANCH  11  13
ATOM     13  O   UNL     1      42.739   3.107  11.493  0.00  0.00    +0.000 OA
ATOM     14  H   UNL     1      42.506   3.874  12.057  0.00  0.00    +0.000 HD
ENDBRANCH  11  13
ENDBRANCH   7  11
BRANCH   1  15
ATOM     15  C   UNL     1      46.778   4.479  15.449  0.00  0.00    +0.000 C 
BRANCH  15  19
ATOM     16  C   UNL     1      50.366   3.026  17.416  0.00  0.00    +0.000 A 
ATOM     17  C   UNL     1      50.003   4.376  17.492  0.00  0.00    +0.000 A 
ATOM     18  C   UNL     1      48.826   4.832  16.892  0.00  0.00    +0.000 A 
ATOM     19  C   UNL     1      47.991   3.956  16.184  0.00  0.00    +0.000 A 
ATOM     20  C   UNL     1      48.338   2.598  16.145  0.00  0.00    +0.000 A 
ATOM     21  C   UNL     1      49.510   2.139  16.755  0.00  0.00    +0.000 A 
BRANCH  16  22
ATOM     22  C   UNL     1      51.670   2.541  18.010  0.00  0.00    +0.000 C 
BRANCH  22  23
ATOM     23  C   UNL     1      52.167   1.219  17.414  0.00  0.00    +0.000 C 
BRANCH  23  24
ATOM     24  N   UNL     1      51.771   0.083  18.250  0.00  0.00    +0.000 NA
ATOM     25  H   UNL     1      51.663  -0.748  17.669  0.00  0.00    +0.000 HD
ATOM     26  H   UNL     1      50.855   0.259  18.664  0.00  0.00    +0.000 HD
ENDBRANCH  23  24
ENDBRANCH  22  23
ENDBRANCH  16  22
ENDBRANCH  15  19
ENDBRANCH   1  15
TORSDOF 7
ENDMDL
MODEL 5
REMARK VINA RESULT:    -6.310      4.369      7.407
REMARK INTER + INTRA:          -9.302
REMARK INTER:                  -8.496
REMARK INTRA:                  -0.806
REMARK UNBOUND:                -0.779
REMARK  Name = 
REMARK  7 active torsions:
REMARK  status: ('A' for Active; 'I' for Inactive)
REMARK    1  A    between atoms: N_1  and  C_2
REMARK    2  A    between atoms: C_2  and  C_3
REMARK    3  A    between atoms: C_3  and  C_4
REMARK    4  A    between atoms: C_7  and  C_8
REMARK    5  A    between atoms: C_8  and  N_9
REMARK    6  A    between atoms: C_15  and  C_16
REMARK    7  A    between atoms: C_16  and  O_18
REMARK                            x       y       z     vdW  Elec       q    Type
REMARK                         _______ _______ _______ _____ _____    ______ ____
ROOT
ATOM      1  N   UNL     1      48.725   6.623  14.831  0.00  0.00    +0.000 N 
ATOM      2  C   UNL     1      49.252   7.792  14.262  0.00  0.00    +0.000 A 
ATOM      3  C   UNL     1      49.351   7.491  12.913  0.00  0.00    +0.000 A 
ATOM      4  C   UNL     1      48.101   6.836  12.725  0.00  0.00    +0.000 A 
ATOM      5  C   UNL     1      47.091   6.873  11.756  0.00  0.00    +0.000 A 
ATOM      6  C   UNL     1      46.012   5.986  11.880  0.00  0.00    +0.000 A 
ATOM      7  C   UNL     1      46.001   4.991  12.871  0.00  0.00    +0.000 A 
ATOM      8  C   UNL     1      46.978   5.005  13.873  0.00  0.00    +0.000 A 
ATOM      9  F   UNL     1      46.970   4.097  14.859  0.00  0.00    +0.000 F 
ATOM     10  C   UNL     1      47.935   6.027  13.853  0.00  0.00    +0.000 A 
ENDROOT
BRANCH   7  11
ATOM     11  C   UNL     1      44.908   3.989  12.832  0.00  0.00    +0.000 C 
ATOM     12  O   UNL     1      43.738   4.269  13.121  0.00  0.00    +0.000 OA
BRANCH  11  13
ATOM     13  O   UNL     1      45.269   2.731  12.503  0.00  0.00    +0.000 OA
ATOM     14  H   UNL     1      45.614   2.637  11.590  0.00  0.00    +0.000 HD
ENDBRANCH  11  13
ENDBRANCH   7  11
BRANCH   1  15
ATOM     15  C   UNL     1      48.584   6.476  16.283  0.00  0.00    +0.000 C 
BRANCH  15  19
ATOM     16  C   UNL     1      51.431   3.558  17.781  0.00  0.00    +0.000 A 
ATOM     17  C   UNL     1      51.849   4.840  17.402  0.00  0.00    +0.000 A 
ATOM     18  C   UNL     1      50.924   5.789  16.960  0.00  0.00    +0.000 A 
ATOM     19  C   UNL     1      49.560   5.478  16.864  0.00  0.00    +0.000 A 
ATOM     20  C   UNL     1      49.141   4.207  17.283  0.00  0.00    +0.000 A 
ATOM     21  C   UNL     1      50.064   3.260  17.736  0.00  0.00    +0.000 A 
BRANCH  16  22
ATOM     22  C   UNL     1      52.435   2.509  18.201  0.00  0.00    +0.000 C 
BRANCH  22  23
ATOM     23  C   UNL     1      52.332   1.201  17.407  0.00  0.00    +0.000 C 
BRANCH  23  24
ATOM     24  N   UNL     1      51.675   0.157  18.196  0.00  0.00    +0.000 NA
ATOM     25  H   UNL     1      52.085  -0.749  17.972  0.00  0.00    +0.000 HD
ATOM     26  H   UNL     1      50.691   0.093  17.936  0.00  0.00    +0.000 HD
ENDBRANCH  23  24
ENDBRANCH  22  23
ENDBRANCH  16  22
ENDBRANCH  15  19
ENDBRANCH   1  15
TORSDOF 7
ENDMDL
MODEL 6
REMARK VINA RESULT:    -5.924      3.171      5.976
REMARK INTER + INTRA:          -8.781
REMARK INTER:                  -8.049
REMARK INTRA:                  -0.731
REMARK UNBOUND:                -0.779
REMARK  Name = 
REMARK  7 active torsions:
REMARK  status: ('A' for Active; 'I' for Inactive)
REMARK    1  A    between atoms: N_1  and  C_2
REMARK    2  A    between atoms: C_2  and  C_3
REMARK    3  A    between atoms: C_3  and  C_4
REMARK    4  A    between atoms: C_7  and  C_8
REMARK    5  A    between atoms: C_8  and  N_9
REMARK    6  A    between atoms: C_15  and  C_16
REMARK    7  A    between atoms: C_16  and  O_18
REMARK                            x       y       z     vdW  Elec       q    Type
REMARK                         _______ _______ _______ _____ _____    ______ ____
ROOT
ATOM      1  N   UNL     1      46.268   7.373  11.779  0.00  0.00    +0.000 N 
ATOM      2  C   UNL     1      45.571   8.399  12.436  0.00  0.00    +0.000 A 
ATOM      3  C   UNL     1      44.439   8.584  11.657  0.00  0.00    +0.000 A 
ATOM      4  C   UNL     1      44.097   7.224  11.412  0.00  0.00    +0.000 A 
ATOM      5  C   UNL     1      42.913   6.477  11.419  0.00  0.00    +0.000 A 
ATOM      6  C   UNL     1      42.969   5.131  11.028  0.00  0.00    +0.000 A 
ATOM      7  C   UNL     1      44.149   4.575  10.511  0.00  0.00    +0.000 A 
ATOM      8  C   UNL     1      45.341   5.307  10.571  0.00  0.00    +0.000 A 
ATOM      9  F   UNL     1      46.494   4.788  10.127  0.00  0.00    +0.000 F 
ATOM     10  C   UNL     1      45.310   6.578  11.157  0.00  0.00    +0.000 A 
ENDROOT
BRANCH   7  11
ATOM     11  C   UNL     1      44.083   3.198   9.964  0.00  0.00    +0.000 C 
ATOM     12  O   UNL     1      44.350   2.938   8.783  0.00  0.00    +0.000 OA
BRANCH  11  13
ATOM     13  O   UNL     1      43.669   2.239  10.818  0.00  0.00    +0.000 OA
ATOM     14  H   UNL     1      43.702   2.500  11.762  0.00  0.00    +0.000 HD
ENDBRANCH  11  13
ENDBRANCH   7  11
BRANCH   1  15
ATOM     15  C   UNL     1      47.606   6.958  12.213  0.00  0.00    +0.000 C 
BRANCH  15  19
ATOM     16  C   UNL     1      47.689   4.581  15.847  0.00  0.00    +0.000 A 
ATOM     17  C   UNL     1      48.356   5.811  15.778  0.00  0.00    +0.000 A 
ATOM     18  C   UNL     1      48.292   6.592  14.621  0.00  0.00    +0.000 A 
ATOM     19  C   UNL     1      47.579   6.157  13.495  0.00  0.00    +0.000 A 
ATOM     20  C   UNL     1      46.881   4.944  13.583  0.00  0.00    +0.000 A 
ATOM     21  C   UNL     1      46.934   4.168  14.744  0.00  0.00    +0.000 A 
BRANCH  16  22
ATOM     22  C   UNL     1      47.807   3.705  17.073  0.00  0.00    +0.000 C 
BRANCH  22  23
ATOM     23  C   UNL     1      49.155   2.984  17.192  0.00  0.00    +0.000 C 
BRANCH  23  24
ATOM     24  N   UNL     1      49.280   1.933  16.180  0.00  0.00    +0.000 NA
ATOM     25  H   UNL     1      49.743   1.121  16.587  0.00  0.00    +0.000 HD
ATOM     26  H   UNL     1      49.885   2.251  15.423  0.00  0.00    +0.000 HD
ENDBRANCH  23  24
ENDBRANCH  22  23
ENDBRANCH  16  22
ENDBRANCH  15  19
ENDBRANCH   1  15
TORSDOF 7
ENDMDL
MODEL 7
REMARK VINA RESULT:    -5.845      3.658      5.568
REMARK INTER + INTRA:          -8.673
REMARK INTER:                  -7.681
REMARK INTRA:                  -0.993
REMARK UNBOUND:                -0.779
REMARK  Name = 
REMARK  7 active torsions:
REMARK  status: ('A' for Active; 'I' for Inactive)
REMARK    1  A    between atoms: N_1  and  C_2
REMARK    2  A    between atoms: C_2  and  C_3
REMARK    3  A    between atoms: C_3  and  C_4
REMARK    4  A    between atoms: C_7  and  C_8
REMARK    5  A    between atoms: C_8  and  N_9
REMARK    6  A    between atoms: C_15  and  C_16
REMARK    7  A    between atoms: C_16  and  O_18
REMARK                            x       y       z     vdW  Elec       q    Type
REMARK                         _______ _______ _______ _____ _____    ______ ____
ROOT
ATOM      1  N   UNL     1      48.842   7.543  14.972  0.00  0.00    +0.000 N 
ATOM      2  C   UNL     1      49.619   8.551  15.564  0.00  0.00    +0.000 A 
ATOM      3  C   UNL     1      49.188   8.573  16.881  0.00  0.00    +0.000 A 
ATOM      4  C   UNL     1      49.118   7.173  17.130  0.00  0.00    +0.000 A 
ATOM      5  C   UNL     1      49.499   6.326  18.178  0.00  0.00    +0.000 A 
ATOM      6  C   UNL     1      49.175   4.965  18.089  0.00  0.00    +0.000 A 
ATOM      7  C   UNL     1      48.371   4.477  17.047  0.00  0.00    +0.000 A 
ATOM      8  C   UNL     1      48.053   5.315  15.971  0.00  0.00    +0.000 A 
ATOM      9  F   UNL     1      47.324   4.868  14.939  0.00  0.00    +0.000 F 
ATOM     10  C   UNL     1      48.559   6.619  15.974  0.00  0.00    +0.000 A 
ENDROOT
BRANCH   7  11
ATOM     11  C   UNL     1      47.934   3.061  17.115  0.00  0.00    +0.000 C 
ATOM     12  O   UNL     1      48.622   2.130  16.675  0.00  0.00    +0.000 OA
BRANCH  11  13
ATOM     13  O   UNL     1      46.715   2.842  17.650  0.00  0.00    +0.000 OA
ATOM     14  H   UNL     1      45.969   3.085  17.062  0.00  0.00    +0.000 HD
ENDBRANCH  11  13
ENDBRANCH   7  11
BRANCH   1  15
ATOM     15  C   UNL     1      48.896   7.283  13.530  0.00  0.00    +0.000 C 
BRANCH  15  19
ATOM     16  C   UNL     1      44.893   6.990  11.873  0.00  0.00    +0.000 A 
ATOM     17  C   UNL     1      45.250   8.061  12.702  0.00  0.00    +0.000 A 
ATOM     18  C   UNL     1      46.551   8.173  13.199  0.00  0.00    +0.000 A 
ATOM     19  C   UNL     1      47.524   7.210  12.900  0.00  0.00    +0.000 A 
ATOM     20  C   UNL     1      47.173   6.161  12.037  0.00  0.00    +0.000 A 
ATOM     21  C   UNL     1      45.875   6.054  11.530  0.00  0.00    +0.000 A 
BRANCH  16  22
ATOM     22  C   UNL     1      43.471   6.830  11.384  0.00  0.00    +0.000 C 
BRANCH  22  23
ATOM     23  C   UNL     1      42.817   5.509  11.803  0.00  0.00    +0.000 C 
BRANCH  23  24
ATOM     24  N   UNL     1      42.663   5.436  13.258  0.00  0.00    +0.000 NA
ATOM     25  H   UNL     1      41.671   5.412  13.496  0.00  0.00    +0.000 HD
ATOM     26  H   UNL     1      43.035   6.282  13.689  0.00  0.00    +0.000 HD
ENDBRANCH  23  24
ENDBRANCH  22  23
ENDBRANCH  16  22
ENDBRANCH  15  19
ENDBRANCH   1  15
TORSDOF 7
ENDMDL
MODEL 8
REMARK VINA RESULT:    -5.734      3.247      6.704
REMARK INTER + INTRA:          -8.524
REMARK INTER:                  -8.393
REMARK INTRA:                  -0.132
REMARK UNBOUND:                -0.779
REMARK  Name = 
REMARK  7 active torsions:
REMARK  status: ('A' for Active; 'I' for Inactive)
REMARK    1  A    between atoms: N_1  and  C_2
REMARK    2  A    between atoms: C_2  and  C_3
REMARK    3  A    between atoms: C_3  and  C_4
REMARK    4  A    between atoms: C_7  and  C_8
REMARK    5  A    between atoms: C_8  and  N_9
REMARK    6  A    between atoms: C_15  and  C_16
REMARK    7  A    between atoms: C_16  and  O_18
REMARK                            x       y       z     vdW  Elec       q    Type
REMARK                         _______ _______ _______ _____ _____    ______ ____
ROOT
ATOM      1  N   UNL     1      44.548   6.113  11.469  0.00  0.00    +0.000 N 
ATOM      2  C   UNL     1      43.755   5.954  12.616  0.00  0.00    +0.000 A 
ATOM      3  C   UNL     1      42.700   5.164  12.185  0.00  0.00    +0.000 A 
ATOM      4  C   UNL     1      43.419   4.217  11.401  0.00  0.00    +0.000 A 
ATOM      5  C   UNL     1      43.390   2.826  11.243  0.00  0.00    +0.000 A 
ATOM      6  C   UNL     1      44.226   2.246  10.279  0.00  0.00    +0.000 A 
ATOM      7  C   UNL     1      44.977   3.039   9.397  0.00  0.00    +0.000 A 
ATOM      8  C   UNL     1      45.051   4.422   9.606  0.00  0.00    +0.000 A 
ATOM      9  F   UNL     1      45.794   5.202   8.809  0.00  0.00    +0.000 F 
ATOM     10  C   UNL     1      44.373   4.964  10.703  0.00  0.00    +0.000 A 
ENDROOT
BRANCH   7  11
ATOM     11  C   UNL     1      45.703   2.355   8.299  0.00  0.00    +0.000 C 
ATOM     12  O   UNL     1      46.157   1.209   8.414  0.00  0.00    +0.000 OA
BRANCH  11  13
ATOM     13  O   UNL     1      45.884   3.072   7.171  0.00  0.00    +0.000 OA
ATOM     14  H   UNL     1      45.076   3.171   6.623  0.00  0.00    +0.000 HD
ENDBRANCH  11  13
ENDBRANCH   7  11
BRANCH   1  15
ATOM     15  C   UNL     1      45.713   7.003  11.463  0.00  0.00    +0.000 C 
BRANCH  15  19
ATOM     16  C   UNL     1      48.204   6.342  14.958  0.00  0.00    +0.000 A 
ATOM     17  C   UNL     1      47.537   5.277  14.340  0.00  0.00    +0.000 A 
ATOM     18  C   UNL     1      46.770   5.487  13.192  0.00  0.00    +0.000 A 
ATOM     19  C   UNL     1      46.631   6.768  12.641  0.00  0.00    +0.000 A 
ATOM     20  C   UNL     1      47.332   7.825  13.240  0.00  0.00    +0.000 A 
ATOM     21  C   UNL     1      48.110   7.614  14.383  0.00  0.00    +0.000 A 
BRANCH  16  22
ATOM     22  C   UNL     1      48.984   6.129  16.236  0.00  0.00    +0.000 C 
BRANCH  22  23
ATOM     23  C   UNL     1      48.943   7.327  17.192  0.00  0.00    +0.000 C 
BRANCH  23  24
ATOM     24  N   UNL     1      49.819   7.110  18.346  0.00  0.00    +0.000 NA
ATOM     25  H   UNL     1      49.398   7.524  19.177  0.00  0.00    +0.000 HD
ATOM     26  H   UNL     1      50.704   7.596  18.205  0.00  0.00    +0.000 HD
ENDBRANCH  23  24
ENDBRANCH  22  23
ENDBRANCH  16  22
ENDBRANCH  15  19
ENDBRANCH   1  15
TORSDOF 7
ENDMDL
MODEL 9
REMARK VINA RESULT:    -5.437      3.242      5.348
REMARK INTER + INTRA:          -8.123
REMARK INTER:                  -7.341
REMARK INTRA:                  -0.783
REMARK UNBOUND:                -0.779
REMARK  Name = 
REMARK  7 active torsions:
REMARK  status: ('A' for Active; 'I' for Inactive)
REMARK    1  A    between atoms: N_1  and  C_2
REMARK    2  A    between atoms: C_2  and  C_3
REMARK    3  A    between atoms: C_3  and  C_4
REMARK    4  A    between atoms: C_7  and  C_8
REMARK    5  A    between atoms: C_8  and  N_9
REMARK    6  A    between atoms: C_15  and  C_16
REMARK    7  A    between atoms: C_16  and  O_18
REMARK                            x       y       z     vdW  Elec       q    Type
REMARK                         _______ _______ _______ _____ _____    ______ ____
ROOT
ATOM      1  N   UNL     1      48.620   7.428  15.191  0.00  0.00    +0.000 N 
ATOM      2  C   UNL     1      49.050   8.722  15.520  0.00  0.00    +0.000 A 
ATOM      3  C   UNL     1      48.621   8.895  16.827  0.00  0.00    +0.000 A 
ATOM      4  C   UNL     1      48.975   7.623  17.361  0.00  0.00    +0.000 A 
ATOM      5  C   UNL     1      49.585   7.170  18.537  0.00  0.00    +0.000 A 
ATOM      6  C   UNL     1      49.687   5.787  18.747  0.00  0.00    +0.000 A 
ATOM      7  C   UNL     1      49.078   4.873  17.874  0.00  0.00    +0.000 A 
ATOM      8  C   UNL     1      48.530   5.331  16.669  0.00  0.00    +0.000 A 
ATOM      9  F   UNL     1      47.981   4.480  15.792  0.00  0.00    +0.000 F 
ATOM     10  C   UNL     1      48.620   6.696  16.376  0.00  0.00    +0.000 A 
ENDROOT
BRANCH   7  11
ATOM     11  C   UNL     1      49.088   3.440  18.255  0.00  0.00    +0.000 C 
ATOM     12  O   UNL     1      49.708   2.585  17.610  0.00  0.00    +0.000 OA
BRANCH  11  13
ATOM     13  O   UNL     1      48.342   3.107  19.328  0.00  0.00    +0.000 OA
ATOM     14  H   UNL     1      48.117   3.861  19.912  0.00  0.00    +0.000 HD
ENDBRANCH  11  13
ENDBRANCH   7  11
BRANCH   1  15
ATOM     15  C   UNL     1      48.763   6.896  13.832  0.00  0.00    +0.000 C 
BRANCH  15  19
ATOM     16  C   UNL     1      44.853   6.172  12.084  0.00  0.00    +0.000 A 
ATOM     17  C   UNL     1      45.367   7.471  12.181  0.00  0.00    +0.000 A 
ATOM     18  C   UNL     1      46.642   7.696  12.707  0.00  0.00    +0.000 A 
ATOM     19  C   UNL     1      47.430   6.633  13.168  0.00  0.00    +0.000 A 
ATOM     20  C   UNL     1      46.929   5.330  13.031  0.00  0.00    +0.000 A 
ATOM     21  C   UNL     1      45.658   5.103  12.495  0.00  0.00    +0.000 A 
BRANCH  16  22
ATOM     22  C   UNL     1      43.451   5.930  11.575  0.00  0.00    +0.000 C 
BRANCH  22  23
ATOM     23  C   UNL     1      43.282   4.597  10.837  0.00  0.00    +0.000 C 
BRANCH  23  24
ATOM     24  N   UNL     1      43.668   4.722   9.430  0.00  0.00    +0.000 NA
ATOM     25  H   UNL     1      43.033   4.173   8.851  0.00  0.00    +0.000 HD
ATOM     26  H   UNL     1      44.596   4.321   9.288  0.00  0.00    +0.000 HD
ENDBRANCH  23  24
ENDBRANCH  22  23
ENDBRANCH  16  22
ENDBRANCH  15  19
ENDBRANCH   1  15
TORSDOF 7
ENDMDL
