MODEL 1
REMARK VINA RESULT:    -9.099      0.000      0.000
REMARK INTER + INTRA:         -13.320
REMARK INTER:                 -12.290
REMARK INTRA:                  -1.030
REMARK UNBOUND:                -1.030
REMARK  Name = 
REMARK  6 active torsions:
REMARK  status: ('A' for Active; 'I' for Inactive)
REMARK    1  A    between atoms: C_7  and  C_8
REMARK    2  A    between atoms: N_10  and  C_11
REMARK    3  A    between atoms: C_11  and  C_12
REMARK    4  A    between atoms: C_15  and  O_16
REMARK    5  A    between atoms: O_16  and  C_17
REMARK    6  A    between atoms: C_17  and  C_18
REMARK                            x       y       z     vdW  Elec       q    Type
REMARK                         _______ _______ _______ _____ _____    ______ ____
ROOT
ATOM      1  C   UNL     1      48.447   6.676  14.219  0.00  0.00    +0.000 C 
ATOM      2  O   UNL     1      49.133   6.650  13.198  0.00  0.00    +0.000 OA
ATOM      3  N   UNL     1      47.137   7.085  14.198  0.00  0.00    +0.000 N 
ATOM      4  H   UNL     1      46.569   7.059  15.041  0.00  0.00    +0.000 HD
ENDROOT
BRANCH   1  11
ATOM      5  N   UNL     1      48.273   2.997  19.830  0.00  0.00    +0.000 N 
ATOM      6  C   UNL     1      48.441   3.783  18.738  0.00  0.00    +0.000 A 
ATOM      7  N   UNL     1      49.397   4.668  18.707  0.00  0.00    +0.000 NA
ATOM      8  C   UNL     1      49.433   5.389  17.563  0.00  0.00    +0.000 A 
ATOM      9  N   UNL     1      50.350   6.367  17.322  0.00  0.00    +0.000 N 
ATOM     10  C   UNL     1      50.097   6.918  16.092  0.00  0.00    +0.000 A 
ATOM     11  C   UNL     1      48.996   6.288  15.519  0.00  0.00    +0.000 A 
ATOM     12  C   UNL     1      48.603   5.296  16.468  0.00  0.00    +0.000 A 
ATOM     13  C   UNL     1      47.572   4.291  16.519  0.00  0.00    +0.000 A 
ATOM     14  O   UNL     1      46.794   4.057  15.601  0.00  0.00    +0.000 OA
ATOM     15  N   UNL     1      47.547   3.590  17.709  0.00  0.00    +0.000 N 
ATOM     16  H   UNL     1      48.805   3.335  20.627  0.00  0.00    +0.000 HD
ATOM     17  H   UNL     1      47.323   2.748  20.074  0.00  0.00    +0.000 HD
ATOM     18  H   UNL     1      51.085   6.635  17.962  0.00  0.00    +0.000 HD
ATOM     19  H   UNL     1      46.866   2.854  17.766  0.00  0.00    +0.000 HD
ENDBRANCH   1  11
BRANCH   3  20
ATOM     20  C   UNL     1      46.525   7.526  12.972  0.00  0.00    +0.000 C 
BRANCH  20  21
ATOM     21  C   UNL     1      45.971   6.375  12.177  0.00  0.00    +0.000 A 
ATOM     22  C   UNL     1      45.985   6.382  10.775  0.00  0.00    +0.000 A 
ATOM     23  C   UNL     1      45.488   5.290  10.056  0.00  0.00    +0.000 A 
ATOM     24  C   UNL     1      44.976   4.177  10.725  0.00  0.00    +0.000 A 
ATOM     25  C   UNL     1      44.902   4.194  12.119  0.00  0.00    +0.000 A 
ATOM     26  C   UNL     1      45.402   5.281  12.839  0.00  0.00    +0.000 A 
BRANCH  24  27
ATOM     27  O   UNL     1      44.581   3.128   9.934  0.00  0.00    +0.000 OA
BRANCH  27  28
ATOM     28  C   UNL     1      44.613   3.396   8.530  0.00  0.00    +0.000 C 
BRANCH  28  29
ATOM     29  C   UNL     1      45.798   2.714   7.898  0.00  0.00    +0.000 A 
ATOM     30  C   UNL     1      46.087   1.379   8.196  0.00  0.00    +0.000 A 
ATOM     31  C   UNL     1      47.163   0.773   7.568  0.00  0.00    +0.000 A 
ATOM     32  N   UNL     1      47.959   1.399   6.676  0.00  0.00    +0.000 NA
ATOM     33  C   UNL     1      47.668   2.691   6.408  0.00  0.00    +0.000 A 
ATOM     34  C   UNL     1      46.614   3.383   6.983  0.00  0.00    +0.000 A 
ENDBRANCH  28  29
ENDBRANCH  27  28
ENDBRANCH  24  27
ENDBRANCH  20  21
ENDBRANCH   3  20
TORSDOF 6
ENDMDL
MODEL 2
REMARK VINA RESULT:    -8.335      1.955      2.665
REMARK INTER + INTRA:         -12.288
REMARK INTER:                 -11.521
REMARK INTRA:                  -0.767
REMARK UNBOUND:                -1.030
REMARK  Name = 
REMARK  6 active torsions:
REMARK  status: ('A' for Active; 'I' for Inactive)
REMARK    1  A    between atoms: C_7  and  C_8
REMARK    2  A    between atoms: N_10  and  C_11
REMARK    3  A    between atoms: C_11  and  C_12
REMARK    4  A    between atoms: C_15  and  O_16
REMARK    5  A    between atoms: O_16  and  C_17
REMARK    6  A    between atoms: C_17  and  C_18
REMARK                            x       y       z     vdW  Elec       q    Type
REMARK                         _______ _______ _______ _____ _____    ______ ____
ROOT
ATOM      1  C   UNL     1      47.247   4.210  16.355  0.00  0.00    +0.000 C 
ATOM      2  O   UNL     1      46.439   3.581  17.036  0.00  0.00    +0.000 OA
ATOM      3  N   UNL     1      46.920   4.695  15.114  0.00  0.00    +0.000 N 
ATOM      4  H   UNL     1      47.583   5.253  14.581  0.00  0.00    +0.000 HD
ENDROOT
BRANCH   1  11
ATOM      5  N   UNL     1      53.370   2.092  18.111  0.00  0.00    +0.000 N 
ATOM      6  C   UNL     1      52.186   2.655  17.762  0.00  0.00    +0.000 A 
ATOM      7  N   UNL     1      51.995   3.934  17.922  0.00  0.00    +0.000 NA
ATOM      8  C   UNL     1      50.764   4.351  17.546  0.00  0.00    +0.000 A 
ATOM      9  N   UNL     1      50.353   5.647  17.631  0.00  0.00    +0.000 N 
ATOM     10  C   UNL     1      49.055   5.729  17.199  0.00  0.00    +0.000 A 
ATOM     11  C   UNL     1      48.609   4.464  16.825  0.00  0.00    +0.000 A 
ATOM     12  C   UNL     1      49.729   3.603  17.033  0.00  0.00    +0.000 A 
ATOM     13  C   UNL     1      49.977   2.196  16.841  0.00  0.00    +0.000 A 
ATOM     14  O   UNL     1      49.172   1.417  16.346  0.00  0.00    +0.000 OA
ATOM     15  N   UNL     1      51.233   1.799  17.257  0.00  0.00    +0.000 N 
ATOM     16  H   UNL     1      53.935   2.718  18.676  0.00  0.00    +0.000 HD
ATOM     17  H   UNL     1      53.338   1.153  18.484  0.00  0.00    +0.000 HD
ATOM     18  H   UNL     1      50.924   6.409  17.968  0.00  0.00    +0.000 HD
ATOM     19  H   UNL     1      51.458   0.832  17.103  0.00  0.00    +0.000 HD
ENDBRANCH   1  11
BRANCH   3  20
ATOM     20  C   UNL     1      45.616   4.457  14.551  0.00  0.00    +0.000 C 
BRANCH  20  21
ATOM     21  C   UNL     1      45.617   4.600  13.053  0.00  0.00    +0.000 A 
ATOM     22  C   UNL     1      45.008   3.644  12.230  0.00  0.00    +0.000 A 
ATOM     23  C   UNL     1      44.998   3.809  10.840  0.00  0.00    +0.000 A 
ATOM     24  C   UNL     1      45.591   4.930  10.258  0.00  0.00    +0.000 A 
ATOM     25  C   UNL     1      46.254   5.851  11.071  0.00  0.00    +0.000 A 
ATOM     26  C   UNL     1      46.260   5.691  12.459  0.00  0.00    +0.000 A 
BRANCH  24  27
ATOM     27  O   UNL     1      45.466   5.039   8.896  0.00  0.00    +0.000 OA
BRANCH  27  28
ATOM     28  C   UNL     1      44.873   3.903   8.260  0.00  0.00    +0.000 C 
BRANCH  28  29
ATOM     29  C   UNL     1      45.944   2.998   7.710  0.00  0.00    +0.000 A 
ATOM     30  C   UNL     1      46.033   1.669   8.135  0.00  0.00    +0.000 A 
ATOM     31  C   UNL     1      47.008   0.855   7.581  0.00  0.00    +0.000 A 
ATOM     32  N   UNL     1      47.887   1.270   6.646  0.00  0.00    +0.000 NA
ATOM     33  C   UNL     1      47.790   2.560   6.254  0.00  0.00    +0.000 A 
ATOM     34  C   UNL     1      46.850   3.451   6.748  0.00  0.00    +0.000 A 
ENDBRANCH  28  29
ENDBRANCH  27  28
ENDBRANCH  24  27
ENDBRANCH  20  21
ENDBRANCH   3  20
TORSDOF 6
ENDMDL
MODEL 3
REMARK VINA RESULT:    -8.094      2.109      3.173
REMARK INTER + INTRA:         -11.964
REMARK INTER:                 -11.139
REMARK INTRA:                  -0.825
REMARK UNBOUND:                -1.030
REMARK  Name = 
REMARK  6 active torsions:
REMARK  status: ('A' for Active; 'I' for Inactive)
REMARK    1  A    between atoms: C_7  and  C_8
REMARK    2  A    between atoms: N_10  and  C_11
REMARK    3  A    between atoms: C_11  and  C_12
REMARK    4  A    between atoms: C_15  and  O_16
REMARK    5  A    between atoms: O_16  and  C_17
REMARK    6  A    between atoms: C_17  and  C_18
REMARK                            x       y       z     vdW  Elec       q    Type
REMARK                         _______ _______ _______ _____ _____    ______ ____
ROOT
ATOM      1  C   UNL     1      47.494   3.831  16.482  0.00  0.00    +0.000 C 
ATOM      2  O   UNL     1      46.741   4.196  17.383  0.00  0.00    +0.000 OA
ATOM      3  N   UNL     1      47.178   4.013  15.159  0.00  0.00    +0.000 N 
ATOM      4  H   UNL     1      47.831   3.748  14.425  0.00  0.00    +0.000 HD
ENDROOT
BRANCH   1  11
ATOM      5  N   UNL     1      53.721   3.848  18.988  0.00  0.00    +0.000 N 
ATOM      6  C   UNL     1      52.478   3.701  18.467  0.00  0.00    +0.000 A 
ATOM      7  N   UNL     1      52.142   2.591  17.874  0.00  0.00    +0.000 NA
ATOM      8  C   UNL     1      50.879   2.593  17.390  0.00  0.00    +0.000 A 
ATOM      9  N   UNL     1      50.326   1.537  16.733  0.00  0.00    +0.000 N 
ATOM     10  C   UNL     1      49.051   1.869  16.353  0.00  0.00    +0.000 A 
ATOM     11  C   UNL     1      48.766   3.166  16.771  0.00  0.00    +0.000 A 
ATOM     12  C   UNL     1      49.942   3.600  17.454  0.00  0.00    +0.000 A 
ATOM     13  C   UNL     1      50.330   4.806  18.141  0.00  0.00    +0.000 A 
ATOM     14  O   UNL     1      49.588   5.764  18.322  0.00  0.00    +0.000 OA
ATOM     15  N   UNL     1      51.633   4.780  18.599  0.00  0.00    +0.000 N 
ATOM     16  H   UNL     1      54.356   3.124  18.666  0.00  0.00    +0.000 HD
ATOM     17  H   UNL     1      54.130   4.772  18.943  0.00  0.00    +0.000 HD
ATOM     18  H   UNL     1      50.797   0.661  16.555  0.00  0.00    +0.000 HD
ATOM     19  H   UNL     1      51.928   5.589  19.118  0.00  0.00    +0.000 HD
ENDBRANCH   1  11
BRANCH   3  20
ATOM     20  C   UNL     1      45.929   4.620  14.779  0.00  0.00    +0.000 C 
BRANCH  20  21
ATOM     21  C   UNL     1      45.773   4.691  13.284  0.00  0.00    +0.000 A 
ATOM     22  C   UNL     1      46.132   5.841  12.567  0.00  0.00    +0.000 A 
ATOM     23  C   UNL     1      46.002   5.877  11.174  0.00  0.00    +0.000 A 
ATOM     24  C   UNL     1      45.518   4.766  10.481  0.00  0.00    +0.000 A 
ATOM     25  C   UNL     1      45.101   3.644  11.198  0.00  0.00    +0.000 A 
ATOM     26  C   UNL     1      45.234   3.603  12.588  0.00  0.00    +0.000 A 
BRANCH  24  27
ATOM     27  O   UNL     1      45.498   4.872   9.114  0.00  0.00    +0.000 OA
BRANCH  27  28
ATOM     28  C   UNL     1      44.844   3.792   8.442  0.00  0.00    +0.000 C 
BRANCH  28  29
ATOM     29  C   UNL     1      45.862   2.896   7.787  0.00  0.00    +0.000 A 
ATOM     30  C   UNL     1      46.665   3.379   6.749  0.00  0.00    +0.000 A 
ATOM     31  C   UNL     1      47.616   2.538   6.194  0.00  0.00    +0.000 A 
ATOM     32  N   UNL     1      47.818   1.267   6.597  0.00  0.00    +0.000 NA
ATOM     33  C   UNL     1      47.027   0.816   7.596  0.00  0.00    +0.000 A 
ATOM     34  C   UNL     1      46.049   1.580   8.215  0.00  0.00    +0.000 A 
ENDBRANCH  28  29
ENDBRANCH  27  28
ENDBRANCH  24  27
ENDBRANCH  20  21
ENDBRANCH   3  20
TORSDOF 6
ENDMDL
MODEL 4
REMARK VINA RESULT:    -7.824      3.462      7.768
REMARK INTER + INTRA:         -11.598
REMARK INTER:                 -10.062
REMARK INTRA:                  -1.536
REMARK UNBOUND:                -1.030
REMARK  Name = 
REMARK  6 active torsions:
REMARK  status: ('A' for Active; 'I' for Inactive)
REMARK    1  A    between atoms: C_7  and  C_8
REMARK    2  A    between atoms: N_10  and  C_11
REMARK    3  A    between atoms: C_11  and  C_12
REMARK    4  A    between atoms: C_15  and  O_16
REMARK    5  A    between atoms: O_16  and  C_17
REMARK    6  A    between atoms: C_17  and  C_18
REMARK                            x       y       z     vdW  Elec       q    Type
REMARK                         _______ _______ _______ _____ _____    ______ ____
ROOT
ATOM      1  C   UNL     1      47.139   7.712  12.843  0.00  0.00    +0.000 C 
ATOM      2  O   UNL     1      48.189   7.618  12.211  0.00  0.00    +0.000 OA
ATOM      3  N   UNL     1      47.054   8.455  13.994  0.00  0.00    +0.000 N 
ATOM      4  H   UNL     1      46.167   8.562  14.482  0.00  0.00    +0.000 HD
ENDROOT
BRANCH   1  11
ATOM      5  N   UNL     1      43.499   2.133  12.018  0.00  0.00    +0.000 N 
ATOM      6  C   UNL     1      44.114   3.334  12.150  0.00  0.00    +0.000 A 
ATOM      7  N   UNL     1      43.555   4.413  11.681  0.00  0.00    +0.000 NA
ATOM      8  C   UNL     1      44.289   5.534  11.871  0.00  0.00    +0.000 A 
ATOM      9  N   UNL     1      43.893   6.769  11.458  0.00  0.00    +0.000 N 
ATOM     10  C   UNL     1      44.869   7.677  11.777  0.00  0.00    +0.000 A 
ATOM     11  C   UNL     1      45.922   7.023  12.411  0.00  0.00    +0.000 A 
ATOM     12  C   UNL     1      45.517   5.656  12.482  0.00  0.00    +0.000 A 
ATOM     13  C   UNL     1      46.100   4.451  13.016  0.00  0.00    +0.000 A 
ATOM     14  O   UNL     1      47.159   4.412  13.631  0.00  0.00    +0.000 OA
ATOM     15  N   UNL     1      45.337   3.323  12.783  0.00  0.00    +0.000 N 
ATOM     16  H   UNL     1      42.729   2.172  11.356  0.00  0.00    +0.000 HD
ATOM     17  H   UNL     1      44.093   1.327  11.876  0.00  0.00    +0.000 HD
ATOM     18  H   UNL     1      43.021   6.964  10.986  0.00  0.00    +0.000 HD
ATOM     19  H   UNL     1      45.692   2.469  13.175  0.00  0.00    +0.000 HD
ENDBRANCH   1  11
BRANCH   3  20
ATOM     20  C   UNL     1      48.210   9.133  14.518  0.00  0.00    +0.000 C 
BRANCH  20  21
ATOM     21  C   UNL     1      48.904   8.322  15.579  0.00  0.00    +0.000 A 
ATOM     22  C   UNL     1      48.442   8.306  16.902  0.00  0.00    +0.000 A 
ATOM     23  C   UNL     1      49.087   7.524  17.868  0.00  0.00    +0.000 A 
ATOM     24  C   UNL     1      50.194   6.747  17.523  0.00  0.00    +0.000 A 
ATOM     25  C   UNL     1      50.694   6.811  16.221  0.00  0.00    +0.000 A 
ATOM     26  C   UNL     1      50.049   7.586  15.254  0.00  0.00    +0.000 A 
BRANCH  24  27
ATOM     27  O   UNL     1      50.711   5.959  18.520  0.00  0.00    +0.000 OA
BRANCH  27  28
ATOM     28  C   UNL     1      49.800   4.989  19.044  0.00  0.00    +0.000 C 
BRANCH  28  29
ATOM     29  C   UNL     1      49.667   3.832  18.090  0.00  0.00    +0.000 A 
ATOM     30  C   UNL     1      48.442   3.563  17.471  0.00  0.00    +0.000 A 
ATOM     31  C   UNL     1      48.366   2.512  16.571  0.00  0.00    +0.000 A 
ATOM     32  N   UNL     1      49.413   1.724  16.250  0.00  0.00    +0.000 NA
ATOM     33  C   UNL     1      50.586   1.995  16.863  0.00  0.00    +0.000 A 
ATOM     34  C   UNL     1      50.762   3.023  17.778  0.00  0.00    +0.000 A 
ENDBRANCH  28  29
ENDBRANCH  27  28
ENDBRANCH  24  27
ENDBRANCH  20  21
ENDBRANCH   3  20
TORSDOF 6
ENDMDL
MODEL 5
REMARK VINA RESULT:    -7.609      1.904      3.771
REMARK INTER + INTRA:         -11.308
REMARK INTER:                 -10.212
REMARK INTRA:                  -1.096
REMARK UNBOUND:                -1.030
REMARK  Name = 
REMARK  6 active torsions:
REMARK  status: ('A' for Active; 'I' for Inactive)
REMARK    1  A    between atoms: C_7  and  C_8
REMARK    2  A    between atoms: N_10  and  C_11
REMARK    3  A    between atoms: C_11  and  C_12
REMARK    4  A    between atoms: C_15  and  O_16
REMARK    5  A    between atoms: O_16  and  C_17
REMARK    6  A    between atoms: C_17  and  C_18
REMARK                            x       y       z     vdW  Elec       q    Type
REMARK                         _______ _______ _______ _____ _____    ______ ____
ROOT
ATOM      1  C   UNL     1      48.277   5.406  15.958  0.00  0.00    +0.000 C 
ATOM      2  O   UNL     1      48.512   4.328  16.502  0.00  0.00    +0.000 OA
ATOM      3  N   UNL     1      47.273   5.543  15.032  0.00  0.00    +0.000 N 
ATOM      4  H   UNL     1      47.061   6.451  14.624  0.00  0.00    +0.000 HD
ENDROOT
BRANCH   1  11
ATOM      5  N   UNL     1      52.267  10.461  14.064  0.00  0.00    +0.000 N 
ATOM      6  C   UNL     1      51.451   9.506  14.576  0.00  0.00    +0.000 A 
ATOM      7  N   UNL     1      51.239   9.443  15.860  0.00  0.00    +0.000 NA
ATOM      8  C   UNL     1      50.418   8.432  16.226  0.00  0.00    +0.000 A 
ATOM      9  N   UNL     1      50.066   8.183  17.518  0.00  0.00    +0.000 N 
ATOM     10  C   UNL     1      49.251   7.080  17.550  0.00  0.00    +0.000 A 
ATOM     11  C   UNL     1      49.067   6.601  16.256  0.00  0.00    +0.000 A 
ATOM     12  C   UNL     1      49.804   7.497  15.423  0.00  0.00    +0.000 A 
ATOM     13  C   UNL     1      50.033   7.608  14.005  0.00  0.00    +0.000 A 
ATOM     14  O   UNL     1      49.514   6.882  13.165  0.00  0.00    +0.000 OA
ATOM     15  N   UNL     1      50.895   8.633  13.667  0.00  0.00    +0.000 N 
ATOM     16  H   UNL     1      52.814  10.919  14.787  0.00  0.00    +0.000 HD
ATOM     17  H   UNL     1      52.822  10.205  13.258  0.00  0.00    +0.000 HD
ATOM     18  H   UNL     1      50.372   8.728  18.312  0.00  0.00    +0.000 HD
ATOM     19  H   UNL     1      51.048   8.767  12.684  0.00  0.00    +0.000 HD
ENDBRANCH   1  11
BRANCH   3  20
ATOM     20  C   UNL     1      46.471   4.412  14.644  0.00  0.00    +0.000 C 
BRANCH  20  21
ATOM     21  C   UNL     1      46.084   4.472  13.191  0.00  0.00    +0.000 A 
ATOM     22  C   UNL     1      45.492   3.376  12.549  0.00  0.00    +0.000 A 
ATOM     23  C   UNL     1      45.116   3.461  11.203  0.00  0.00    +0.000 A 
ATOM     24  C   UNL     1      45.323   4.640  10.486  0.00  0.00    +0.000 A 
ATOM     25  C   UNL     1      45.970   5.711  11.105  0.00  0.00    +0.000 A 
ATOM     26  C   UNL     1      46.340   5.630  12.449  0.00  0.00    +0.000 A 
BRANCH  24  27
ATOM     27  O   UNL     1      44.854   4.650   9.197  0.00  0.00    +0.000 OA
BRANCH  27  28
ATOM     28  C   UNL     1      44.507   3.363   8.680  0.00  0.00    +0.000 C 
BRANCH  28  29
ATOM     29  C   UNL     1      45.697   2.736   8.003  0.00  0.00    +0.000 A 
ATOM     30  C   UNL     1      46.539   3.508   7.196  0.00  0.00    +0.000 A 
ATOM     31  C   UNL     1      47.645   2.906   6.618  0.00  0.00    +0.000 A 
ATOM     32  N   UNL     1      47.964   1.607   6.787  0.00  0.00    +0.000 NA
ATOM     33  C   UNL     1      47.134   0.876   7.563  0.00  0.00    +0.000 A 
ATOM     34  C   UNL     1      46.005   1.386   8.184  0.00  0.00    +0.000 A 
ENDBRANCH  28  29
ENDBRANCH  27  28
ENDBRANCH  24  27
ENDBRANCH  20  21
ENDBRANCH   3  20
TORSDOF 6
ENDMDL
MODEL 6
REMARK VINA RESULT:    -7.527      2.084      2.558
REMARK INTER + INTRA:         -11.197
REMARK INTER:                 -10.041
REMARK INTRA:                  -1.156
REMARK UNBOUND:                -1.030
REMARK  Name = 
REMARK  6 active torsions:
REMARK  status: ('A' for Active; 'I' for Inactive)
REMARK    1  A    between atoms: C_7  and  C_8
REMARK    2  A    between atoms: N_10  and  C_11
REMARK    3  A    between atoms: C_11  and  C_12
REMARK    4  A    between atoms: C_15  and  O_16
REMARK    5  A    between atoms: O_16  and  C_17
REMARK    6  A    between atoms: C_17  and  C_18
REMARK                            x       y       z     vdW  Elec       q    Type
REMARK                         _______ _______ _______ _____ _____    ______ ____
ROOT
ATOM      1  C   UNL     1      48.852   6.040  16.513  0.00  0.00    +0.000 C 
ATOM      2  O   UNL     1      48.280   6.868  17.221  0.00  0.00    +0.000 OA
ATOM      3  N   UNL     1      48.445   5.787  15.227  0.00  0.00    +0.000 N 
ATOM      4  H   UNL     1      48.955   5.133  14.638  0.00  0.00    +0.000 HD
ENDROOT
BRANCH   1  11
ATOM      5  N   UNL     1      51.797   0.206  18.044  0.00  0.00    +0.000 N 
ATOM      6  C   UNL     1      51.332   1.447  17.755  0.00  0.00    +0.000 A 
ATOM      7  N   UNL     1      52.042   2.499  18.048  0.00  0.00    +0.000 NA
ATOM      8  C   UNL     1      51.446   3.667  17.717  0.00  0.00    +0.000 A 
ATOM      9  N   UNL     1      52.011   4.886  17.938  0.00  0.00    +0.000 N 
ATOM     10  C   UNL     1      51.144   5.860  17.515  0.00  0.00    +0.000 A 
ATOM     11  C   UNL     1      49.991   5.266  17.009  0.00  0.00    +0.000 A 
ATOM     12  C   UNL     1      50.218   3.862  17.126  0.00  0.00    +0.000 A 
ATOM     13  C   UNL     1      49.466   2.680  16.787  0.00  0.00    +0.000 A 
ATOM     14  O   UNL     1      48.384   2.694  16.211  0.00  0.00    +0.000 OA
ATOM     15  N   UNL     1      50.091   1.506  17.161  0.00  0.00    +0.000 N 
ATOM     16  H   UNL     1      52.594   0.237  18.673  0.00  0.00    +0.000 HD
ATOM     17  H   UNL     1      51.113  -0.488  18.315  0.00  0.00    +0.000 HD
ATOM     18  H   UNL     1      52.921   5.031  18.354  0.00  0.00    +0.000 HD
ATOM     19  H   UNL     1      49.616   0.659  16.906  0.00  0.00    +0.000 HD
ENDBRANCH   1  11
BRANCH   3  20
ATOM     20  C   UNL     1      47.307   6.470  14.668  0.00  0.00    +0.000 C 
BRANCH  20  21
ATOM     21  C   UNL     1      46.615   5.641  13.620  0.00  0.00    +0.000 A 
ATOM     22  C   UNL     1      46.666   4.241  13.647  0.00  0.00    +0.000 A 
ATOM     23  C   UNL     1      45.994   3.489  12.676  0.00  0.00    +0.000 A 
ATOM     24  C   UNL     1      45.261   4.124  11.673  0.00  0.00    +0.000 A 
ATOM     25  C   UNL     1      45.261   5.519  11.607  0.00  0.00    +0.000 A 
ATOM     26  C   UNL     1      45.927   6.271  12.578  0.00  0.00    +0.000 A 
BRANCH  24  27
ATOM     27  O   UNL     1      44.578   3.301  10.814  0.00  0.00    +0.000 OA
BRANCH  27  28
ATOM     28  C   UNL     1      44.437   3.813   9.486  0.00  0.00    +0.000 C 
BRANCH  28  29
ATOM     29  C   UNL     1      45.363   3.085   8.548  0.00  0.00    +0.000 A 
ATOM     30  C   UNL     1      45.974   3.764   7.489  0.00  0.00    +0.000 A 
ATOM     31  C   UNL     1      46.848   3.071   6.668  0.00  0.00    +0.000 A 
ATOM     32  N   UNL     1      47.150   1.766   6.827  0.00  0.00    +0.000 NA
ATOM     33  C   UNL     1      46.544   1.125   7.851  0.00  0.00    +0.000 A 
ATOM     34  C   UNL     1      45.655   1.731   8.726  0.00  0.00    +0.000 A 
ENDBRANCH  28  29
ENDBRANCH  27  28
ENDBRANCH  24  27
ENDBRANCH  20  21
ENDBRANCH   3  20
TORSDOF 6
ENDMDL
MODEL 7
REMARK VINA RESULT:    -7.458      1.940      2.733
REMARK INTER + INTRA:         -11.104
REMARK INTER:                 -10.186
REMARK INTRA:                  -0.919
REMARK UNBOUND:                -1.030
REMARK  Name = 
REMARK  6 active torsions:
REMARK  status: ('A' for Active; 'I' for Inactive)
REMARK    1  A    between atoms: C_7  and  C_8
REMARK    2  A    between atoms: N_10  and  C_11
REMARK    3  A    between atoms: C_11  and  C_12
REMARK    4  A    between atoms: C_15  and  O_16
REMARK    5  A    between atoms: O_16  and  C_17
REMARK    6  A    between atoms: C_17  and  C_18
REMARK                            x       y       z     vdW  Elec       q    Type
REMARK                         _______ _______ _______ _____ _____    ______ ____
ROOT
ATOM      1  C   UNL     1      48.599   6.278  16.139  0.00  0.00    +0.000 C 
ATOM      2  O   UNL     1      48.398   7.450  16.450  0.00  0.00    +0.000 OA
ATOM      3  N   UNL     1      48.164   5.764  14.942  0.00  0.00    +0.000 N 
ATOM      4  H   UNL     1      48.378   4.805  14.678  0.00  0.00    +0.000 HD
ENDROOT
BRANCH   1  11
ATOM      5  N   UNL     1      54.243   3.636  18.635  0.00  0.00    +0.000 N 
ATOM      6  C   UNL     1      53.032   4.099  18.236  0.00  0.00    +0.000 A 
ATOM      7  N   UNL     1      51.938   3.554  18.690  0.00  0.00    +0.000 NA
ATOM      8  C   UNL     1      50.808   4.108  18.194  0.00  0.00    +0.000 A 
ATOM      9  N   UNL     1      49.557   3.690  18.532  0.00  0.00    +0.000 N 
ATOM     10  C   UNL     1      48.638   4.436  17.840  0.00  0.00    +0.000 A 
ATOM     11  C   UNL     1      49.301   5.358  17.035  0.00  0.00    +0.000 A 
ATOM     12  C   UNL     1      50.688   5.146  17.297  0.00  0.00    +0.000 A 
ATOM     13  C   UNL     1      51.913   5.748  16.833  0.00  0.00    +0.000 A 
ATOM     14  O   UNL     1      51.963   6.711  16.077  0.00  0.00    +0.000 OA
ATOM     15  N   UNL     1      53.047   5.143  17.339  0.00  0.00    +0.000 N 
ATOM     16  H   UNL     1      54.169   2.739  19.106  0.00  0.00    +0.000 HD
ATOM     17  H   UNL     1      54.988   3.656  17.952  0.00  0.00    +0.000 HD
ATOM     18  H   UNL     1      49.358   2.944  19.184  0.00  0.00    +0.000 HD
ATOM     19  H   UNL     1      53.920   5.560  17.069  0.00  0.00    +0.000 HD
ENDBRANCH   1  11
BRANCH   3  20
ATOM     20  C   UNL     1      47.427   6.583  14.015  0.00  0.00    +0.000 C 
BRANCH  20  21
ATOM     21  C   UNL     1      46.649   5.753  13.031  0.00  0.00    +0.000 A 
ATOM     22  C   UNL     1      46.278   6.264  11.780  0.00  0.00    +0.000 A 
ATOM     23  C   UNL     1      45.576   5.466  10.868  0.00  0.00    +0.000 A 
ATOM     24  C   UNL     1      45.242   4.151  11.193  0.00  0.00    +0.000 A 
ATOM     25  C   UNL     1      45.555   3.660  12.462  0.00  0.00    +0.000 A 
ATOM     26  C   UNL     1      46.260   4.453  13.371  0.00  0.00    +0.000 A 
BRANCH  24  27
ATOM     27  O   UNL     1      44.620   3.427  10.207  0.00  0.00    +0.000 OA
BRANCH  27  28
ATOM     28  C   UNL     1      44.849   3.910   8.880  0.00  0.00    +0.000 C 
BRANCH  28  29
ATOM     29  C   UNL     1      45.864   3.045   8.181  0.00  0.00    +0.000 A 
ATOM     30  C   UNL     1      45.915   1.670   8.431  0.00  0.00    +0.000 A 
ATOM     31  C   UNL     1      46.838   0.900   7.742  0.00  0.00    +0.000 A 
ATOM     32  N   UNL     1      47.701   1.400   6.834  0.00  0.00    +0.000 NA
ATOM     33  C   UNL     1      47.642   2.731   6.612  0.00  0.00    +0.000 A 
ATOM     34  C   UNL     1      46.755   3.585   7.250  0.00  0.00    +0.000 A 
ENDBRANCH  28  29
ENDBRANCH  27  28
ENDBRANCH  24  27
ENDBRANCH  20  21
ENDBRANCH   3  20
TORSDOF 6
ENDMDL
MODEL 8
REMARK VINA RESULT:    -7.180      2.811      4.661
REMARK INTER + INTRA:         -10.728
REMARK INTER:                  -9.839
REMARK INTRA:                  -0.888
REMARK UNBOUND:                -1.030
REMARK  Name = 
REMARK  6 active torsions:
REMARK  status: ('A' for Active; 'I' for Inactive)
REMARK    1  A    between atoms: C_7  and  C_8
REMARK    2  A    between atoms: N_10  and  C_11
REMARK    3  A    between atoms: C_11  and  C_12
REMARK    4  A    between atoms: C_15  and  O_16
REMARK    5  A    between atoms: O_16  and  C_17
REMARK    6  A    between atoms: C_17  and  C_18
REMARK                            x       y       z     vdW  Elec       q    Type
REMARK                         _______ _______ _______ _____ _____    ______ ____
ROOT
ATOM      1  C   UNL     1      47.585   7.640  13.614  0.00  0.00    +0.000 C 
ATOM      2  O   UNL     1      46.792   8.567  13.462  0.00  0.00    +0.000 OA
ATOM      3  N   UNL     1      47.164   6.336  13.695  0.00  0.00    +0.000 N 
ATOM      4  H   UNL     1      47.835   5.575  13.774  0.00  0.00    +0.000 HD
ENDROOT
BRANCH   1  11
ATOM      5  N   UNL     1      53.323  10.321  11.388  0.00  0.00    +0.000 N 
ATOM      6  C   UNL     1      52.235   9.746  11.959  0.00  0.00    +0.000 A 
ATOM      7  N   UNL     1      52.368   8.998  13.018  0.00  0.00    +0.000 NA
ATOM      8  C   UNL     1      51.203   8.479  13.468  0.00  0.00    +0.000 A 
ATOM      9  N   UNL     1      51.114   7.669  14.558  0.00  0.00    +0.000 N 
ATOM     10  C   UNL     1      49.805   7.297  14.729  0.00  0.00    +0.000 A 
ATOM     11  C   UNL     1      49.025   7.876  13.732  0.00  0.00    +0.000 A 
ATOM     12  C   UNL     1      49.937   8.648  12.951  0.00  0.00    +0.000 A 
ATOM     13  C   UNL     1      49.816   9.503  11.797  0.00  0.00    +0.000 A 
ATOM     14  O   UNL     1      48.751   9.788  11.261  0.00  0.00    +0.000 OA
ATOM     15  N   UNL     1      51.026   9.994  11.349  0.00  0.00    +0.000 N 
ATOM     16  H   UNL     1      54.189   9.923  11.738  0.00  0.00    +0.000 HD
ATOM     17  H   UNL     1      53.315  10.413  10.381  0.00  0.00    +0.000 HD
ATOM     18  H   UNL     1      51.898   7.390  15.132  0.00  0.00    +0.000 HD
ATOM     19  H   UNL     1      50.978  10.626  10.569  0.00  0.00    +0.000 HD
ENDBRANCH   1  11
BRANCH   3  20
ATOM     20  C   UNL     1      45.763   6.011  13.631  0.00  0.00    +0.000 C 
BRANCH  20  21
ATOM     21  C   UNL     1      45.425   5.226  12.392  0.00  0.00    +0.000 A 
ATOM     22  C   UNL     1      45.020   3.886  12.466  0.00  0.00    +0.000 A 
ATOM     23  C   UNL     1      44.686   3.182  11.303  0.00  0.00    +0.000 A 
ATOM     24  C   UNL     1      44.748   3.808  10.057  0.00  0.00    +0.000 A 
ATOM     25  C   UNL     1      45.212   5.121   9.975  0.00  0.00    +0.000 A 
ATOM     26  C   UNL     1      45.541   5.828  11.134  0.00  0.00    +0.000 A 
BRANCH  24  27
ATOM     27  O   UNL     1      44.331   3.058   8.986  0.00  0.00    +0.000 OA
BRANCH  27  28
ATOM     28  C   UNL     1      44.714   3.578   7.710  0.00  0.00    +0.000 C 
BRANCH  28  29
ATOM     29  C   UNL     1      45.931   2.853   7.198  0.00  0.00    +0.000 A 
ATOM     30  C   UNL     1      46.393   1.703   7.845  0.00  0.00    +0.000 A 
ATOM     31  C   UNL     1      47.494   1.042   7.323  0.00  0.00    +0.000 A 
ATOM     32  N   UNL     1      48.155   1.443   6.219  0.00  0.00    +0.000 NA
ATOM     33  C   UNL     1      47.697   2.561   5.612  0.00  0.00    +0.000 A 
ATOM     34  C   UNL     1      46.606   3.291   6.056  0.00  0.00    +0.000 A 
ENDBRANCH  28  29
ENDBRANCH  27  28
ENDBRANCH  24  27
ENDBRANCH  20  21
ENDBRANCH   3  20
TORSDOF 6
ENDMDL
MODEL 9
REMARK VINA RESULT:    -7.160      3.618      8.391
REMARK INTER + INTRA:         -10.701
REMARK INTER:                  -9.544
REMARK INTRA:                  -1.157
REMARK UNBOUND:                -1.030
REMARK  Name = 
REMARK  6 active torsions:
REMARK  status: ('A' for Active; 'I' for Inactive)
REMARK    1  A    between atoms: C_7  and  C_8
REMARK    2  A    between atoms: N_10  and  C_11
REMARK    3  A    between atoms: C_11  and  C_12
REMARK    4  A    between atoms: C_15  and  O_16
REMARK    5  A    between atoms: O_16  and  C_17
REMARK    6  A    between atoms: C_17  and  C_18
REMARK                            x       y       z     vdW  Elec       q    Type
REMARK                         _______ _______ _______ _____ _____    ______ ____
ROOT
ATOM      1  C   UNL     1      47.429   7.131  12.885  0.00  0.00    +0.000 C 
ATOM      2  O   UNL     1      48.334   7.588  12.189  0.00  0.00    +0.000 OA
ATOM      3  N   UNL     1      47.511   7.114  14.255  0.00  0.00    +0.000 N 
ATOM      4  H   UNL     1      46.735   6.775  14.820  0.00  0.00    +0.000 HD
ENDROOT
BRANCH   1  11
ATOM      5  N   UNL     1      43.338   1.957  11.641  0.00  0.00    +0.000 N 
ATOM      6  C   UNL     1      44.060   3.088  11.838  0.00  0.00    +0.000 A 
ATOM      7  N   UNL     1      43.702   4.203  11.267  0.00  0.00    +0.000 NA
ATOM      8  C   UNL     1      44.524   5.243  11.541  0.00  0.00    +0.000 A 
ATOM      9  N   UNL     1      44.337   6.497  11.046  0.00  0.00    +0.000 N 
ATOM     10  C   UNL     1      45.353   7.305  11.489  0.00  0.00    +0.000 A 
ATOM     11  C   UNL     1      46.219   6.564  12.289  0.00  0.00    +0.000 A 
ATOM     12  C   UNL     1      45.654   5.253  12.328  0.00  0.00    +0.000 A 
ATOM     13  C   UNL     1      46.010   4.013  12.970  0.00  0.00    +0.000 A 
ATOM     14  O   UNL     1      46.956   3.882  13.739  0.00  0.00    +0.000 OA
ATOM     15  N   UNL     1      45.166   2.967  12.649  0.00  0.00    +0.000 N 
ATOM     16  H   UNL     1      42.684   2.055  10.870  0.00  0.00    +0.000 HD
ATOM     17  H   UNL     1      43.851   1.086  11.608  0.00  0.00    +0.000 HD
ATOM     18  H   UNL     1      43.573   6.768  10.443  0.00  0.00    +0.000 HD
ATOM     19  H   UNL     1      45.359   2.095  13.109  0.00  0.00    +0.000 HD
ENDBRANCH   1  11
BRANCH   3  20
ATOM     20  C   UNL     1      48.682   7.612  14.928  0.00  0.00    +0.000 C 
BRANCH  20  21
ATOM     21  C   UNL     1      49.272   6.588  15.859  0.00  0.00    +0.000 A 
ATOM     22  C   UNL     1      48.482   5.579  16.427  0.00  0.00    +0.000 A 
ATOM     23  C   UNL     1      49.056   4.621  17.271  0.00  0.00    +0.000 A 
ATOM     24  C   UNL     1      50.422   4.657  17.553  0.00  0.00    +0.000 A 
ATOM     25  C   UNL     1      51.198   5.697  17.040  0.00  0.00    +0.000 A 
ATOM     26  C   UNL     1      50.629   6.651  16.193  0.00  0.00    +0.000 A 
BRANCH  24  27
ATOM     27  O   UNL     1      50.903   3.633  18.330  0.00  0.00    +0.000 OA
BRANCH  27  28
ATOM     28  C   UNL     1      52.263   3.789  18.745  0.00  0.00    +0.000 C 
BRANCH  28  29
ATOM     29  C   UNL     1      53.128   2.742  18.093  0.00  0.00    +0.000 A 
ATOM     30  C   UNL     1      52.642   1.446  17.896  0.00  0.00    +0.000 A 
ATOM     31  C   UNL     1      53.453   0.519  17.261  0.00  0.00    +0.000 A 
ATOM     32  N   UNL     1      54.696   0.793  16.815  0.00  0.00    +0.000 NA
ATOM     33  C   UNL     1      55.151   2.048  17.021  0.00  0.00    +0.000 A 
ATOM     34  C   UNL     1      54.416   3.045  17.646  0.00  0.00    +0.000 A 
ENDBRANCH  28  29
ENDBRANCH  27  28
ENDBRANCH  24  27
ENDBRANCH  20  21
ENDBRANCH   3  20
TORSDOF 6
ENDMDL
