MODEL 1
REMARK VINA RESULT:    -8.273      0.000      0.000
REMARK INTER + INTRA:         -12.067
REMARK INTER:                 -11.175
REMARK INTRA:                  -0.892
REMARK UNBOUND:                -0.892
REMARK  Name = 
REMARK  6 active torsions:
REMARK  status: ('A' for Active; 'I' for Inactive)
REMARK    1  A    between atoms: C_2  and  C_3
REMARK    2  A    between atoms: C_6  and  O_7
REMARK    3  A    between atoms: O_7  and  C_8
REMARK    4  A    between atoms: C_11  and  C_12
REMARK    5  A    between atoms: C_12  and  N_13
REMARK    6  A    between atoms: C_14  and  C_16
REMARK                            x       y       z     vdW  Elec       q    Type
REMARK                         _______ _______ _______ _____ _____    ______ ____
ROOT
ATOM      1  C   UNL     1      47.226   8.253  13.640  0.00  0.00    +0.000 C 
ENDROOT
BRANCH   1   5
ATOM      2  C   UNL     1      44.954   5.411  11.328  0.00  0.00    +0.000 A 
ATOM      3  C   UNL     1      44.553   6.747  11.354  0.00  0.00    +0.000 A 
ATOM      4  C   UNL     1      45.273   7.676  12.118  0.00  0.00    +0.000 A 
ATOM      5  C   UNL     1      46.402   7.273  12.846  0.00  0.00    +0.000 A 
ATOM      6  C   UNL     1      46.736   5.913  12.883  0.00  0.00    +0.000 A 
ATOM      7  C   UNL     1      45.998   4.984  12.153  0.00  0.00    +0.000 A 
BRANCH   2   8
ATOM      8  O   UNL     1      44.294   4.553  10.470  0.00  0.00    +0.000 OA
BRANCH   8  12
ATOM      9  C   UNL     1      46.623   2.687   7.537  0.00  0.00    +0.000 A 
ATOM     10  C   UNL     1      45.879   1.936   8.456  0.00  0.00    +0.000 A 
ATOM     11  C   UNL     1      45.089   2.579   9.416  0.00  0.00    +0.000 A 
ATOM     12  C   UNL     1      45.042   3.974   9.460  0.00  0.00    +0.000 A 
ATOM     13  C   UNL     1      45.731   4.720   8.495  0.00  0.00    +0.000 A 
ATOM     14  C   UNL     1      46.547   4.082   7.560  0.00  0.00    +0.000 A 
BRANCH   9  16
ATOM     15  N   UNL     1      48.142   1.536   5.778  0.00  0.00    +0.000 NA
ATOM     16  C   UNL     1      47.456   2.041   6.565  0.00  0.00    +0.000 C 
ENDBRANCH   9  16
ENDBRANCH   8  12
ENDBRANCH   2   8
ENDBRANCH   1   5
BRANCH   1  17
ATOM     17  N   UNL     1      47.707   7.634  14.846  0.00  0.00    +0.000 N 
ATOM     18  C   UNL     1      48.997   7.194  14.972  0.00  0.00    +0.000 C 
ATOM     19  O   UNL     1      49.830   7.340  14.083  0.00  0.00    +0.000 OA
ATOM     20  H   UNL     1      47.000   7.266  15.472  0.00  0.00    +0.000 HD
BRANCH  18  21
ATOM     21  C   UNL     1      49.345   6.604  16.271  0.00  0.00    +0.000 A 
ATOM     22  C   UNL     1      50.215   7.268  17.123  0.00  0.00    +0.000 A 
ATOM     23  S   UNL     1      50.417   6.494  18.631  0.00  0.00    +0.000 S 
ATOM     24  C   UNL     1      49.397   5.211  18.173  0.00  0.00    +0.000 A 
ATOM     25  N   UNL     1      49.138   4.179  19.021  0.00  0.00    +0.000 NA
ATOM     26  C   UNL     1      48.367   3.266  18.531  0.00  0.00    +0.000 A 
ATOM     27  N   UNL     1      47.839   3.285  17.267  0.00  0.00    +0.000 N 
ATOM     28  C   UNL     1      48.062   4.309  16.382  0.00  0.00    +0.000 A 
ATOM     29  O   UNL     1      47.562   4.302  15.260  0.00  0.00    +0.000 OA
ATOM     30  C   UNL     1      48.910   5.373  16.889  0.00  0.00    +0.000 A 
ATOM     31  H   UNL     1      47.250   2.533  16.940  0.00  0.00    +0.000 HD
ENDBRANCH  18  21
ENDBRANCH   1  17
TORSDOF 6
ENDMDL
MODEL 2
REMARK VINA RESULT:    -7.647      1.827      2.291
REMARK INTER + INTRA:         -11.221
REMARK INTER:                 -10.157
REMARK INTRA:                  -1.064
REMARK UNBOUND:                -0.892
REMARK  Name = 
REMARK  6 active torsions:
REMARK  status: ('A' for Active; 'I' for Inactive)
REMARK    1  A    between atoms: C_2  and  C_3
REMARK    2  A    between atoms: C_6  and  O_7
REMARK    3  A    between atoms: O_7  and  C_8
REMARK    4  A    between atoms: C_11  and  C_12
REMARK    5  A    between atoms: C_12  and  N_13
REMARK    6  A    between atoms: C_14  and  C_16
REMARK                            x       y       z     vdW  Elec       q    Type
REMARK                         _______ _______ _______ _____ _____    ______ ____
ROOT
ATOM      1  C   UNL     1      47.700   8.237  13.738  0.00  0.00    +0.000 C 
ENDROOT
BRANCH   1   5
ATOM      2  C   UNL     1      44.923   5.921  11.391  0.00  0.00    +0.000 A 
ATOM      3  C   UNL     1      44.796   7.310  11.426  0.00  0.00    +0.000 A 
ATOM      4  C   UNL     1      45.681   8.071  12.202  0.00  0.00    +0.000 A 
ATOM      5  C   UNL     1      46.703   7.446  12.932  0.00  0.00    +0.000 A 
ATOM      6  C   UNL     1      46.758   6.046  12.959  0.00  0.00    +0.000 A 
ATOM      7  C   UNL     1      45.856   5.289  12.217  0.00  0.00    +0.000 A 
BRANCH   2   8
ATOM      8  O   UNL     1      44.112   5.218  10.522  0.00  0.00    +0.000 OA
BRANCH   8  12
ATOM      9  C   UNL     1      46.019   2.410   8.074  0.00  0.00    +0.000 A 
ATOM     10  C   UNL     1      45.100   2.011   9.052  0.00  0.00    +0.000 A 
ATOM     11  C   UNL     1      44.455   2.967   9.847  0.00  0.00    +0.000 A 
ATOM     12  C   UNL     1      44.730   4.324   9.666  0.00  0.00    +0.000 A 
ATOM     13  C   UNL     1      45.597   4.723   8.640  0.00  0.00    +0.000 A 
ATOM     14  C   UNL     1      46.266   3.771   7.871  0.00  0.00    +0.000 A 
BRANCH   9  16
ATOM     15  N   UNL     1      47.271   0.652   6.637  0.00  0.00    +0.000 NA
ATOM     16  C   UNL     1      46.704   1.440   7.271  0.00  0.00    +0.000 C 
ENDBRANCH   9  16
ENDBRANCH   8  12
ENDBRANCH   2   8
ENDBRANCH   1   5
BRANCH   1  17
ATOM     17  N   UNL     1      47.816   7.685  15.061  0.00  0.00    +0.000 N 
ATOM     18  C   UNL     1      48.949   7.041  15.483  0.00  0.00    +0.000 C 
ATOM     19  O   UNL     1      49.945   6.934  14.775  0.00  0.00    +0.000 OA
ATOM     20  H   UNL     1      46.947   7.522  15.556  0.00  0.00    +0.000 HD
BRANCH  18  21
ATOM     21  C   UNL     1      48.925   6.552  16.868  0.00  0.00    +0.000 A 
ATOM     22  C   UNL     1      49.318   5.252  17.151  0.00  0.00    +0.000 A 
ATOM     23  S   UNL     1      49.335   4.893  18.819  0.00  0.00    +0.000 S 
ATOM     24  C   UNL     1      48.757   6.443  19.217  0.00  0.00    +0.000 A 
ATOM     25  N   UNL     1      48.539   6.803  20.511  0.00  0.00    +0.000 NA
ATOM     26  C   UNL     1      48.078   8.000  20.661  0.00  0.00    +0.000 A 
ATOM     27  N   UNL     1      47.805   8.868  19.636  0.00  0.00    +0.000 N 
ATOM     28  C   UNL     1      48.020   8.553  18.318  0.00  0.00    +0.000 A 
ATOM     29  O   UNL     1      47.778   9.358  17.423  0.00  0.00    +0.000 OA
ATOM     30  C   UNL     1      48.555   7.222  18.093  0.00  0.00    +0.000 A 
ATOM     31  H   UNL     1      47.435   9.788  19.820  0.00  0.00    +0.000 HD
ENDBRANCH  18  21
ENDBRANCH   1  17
TORSDOF 6
ENDMDL
MODEL 3
REMARK VINA RESULT:    -7.296      1.623      2.029
REMARK INTER + INTRA:         -10.747
REMARK INTER:                  -9.608
REMARK INTRA:                  -1.139
REMARK UNBOUND:                -0.892
REMARK  Name = 
REMARK  6 active torsions:
REMARK  status: ('A' for Active; 'I' for Inactive)
REMARK    1  A    between atoms: C_2  and  C_3
REMARK    2  A    between atoms: C_6  and  O_7
REMARK    3  A    between atoms: O_7  and  C_8
REMARK    4  A    between atoms: C_11  and  C_12
REMARK    5  A    between atoms: C_12  and  N_13
REMARK    6  A    between atoms: C_14  and  C_16
REMARK                            x       y       z     vdW  Elec       q    Type
REMARK                         _______ _______ _______ _____ _____    ______ ____
ROOT
ATOM      1  C   UNL     1      47.601   8.449  13.909  0.00  0.00    +0.000 C 
ENDROOT
BRANCH   1   5
ATOM      2  C   UNL     1      44.910   6.027  11.568  0.00  0.00    +0.000 A 
ATOM      3  C   UNL     1      44.837   7.417  11.473  0.00  0.00    +0.000 A 
ATOM      4  C   UNL     1      45.693   8.215  12.245  0.00  0.00    +0.000 A 
ATOM      5  C   UNL     1      46.634   7.623  13.101  0.00  0.00    +0.000 A 
ATOM      6  C   UNL     1      46.631   6.231  13.254  0.00  0.00    +0.000 A 
ATOM      7  C   UNL     1      45.755   5.441  12.515  0.00  0.00    +0.000 A 
BRANCH   2   8
ATOM      8  O   UNL     1      44.136   5.277  10.705  0.00  0.00    +0.000 OA
BRANCH   8  12
ATOM      9  C   UNL     1      46.083   2.619   8.125  0.00  0.00    +0.000 A 
ATOM     10  C   UNL     1      46.269   4.002   8.013  0.00  0.00    +0.000 A 
ATOM     11  C   UNL     1      45.626   4.875   8.900  0.00  0.00    +0.000 A 
ATOM     12  C   UNL     1      44.795   4.365   9.899  0.00  0.00    +0.000 A 
ATOM     13  C   UNL     1      44.667   2.978  10.052  0.00  0.00    +0.000 A 
ATOM     14  C   UNL     1      45.279   2.110   9.148  0.00  0.00    +0.000 A 
BRANCH   9  16
ATOM     15  N   UNL     1      47.246   0.998   6.468  0.00  0.00    +0.000 NA
ATOM     16  C   UNL     1      46.716   1.717   7.209  0.00  0.00    +0.000 C 
ENDBRANCH   9  16
ENDBRANCH   8  12
ENDBRANCH   2   8
ENDBRANCH   1   5
BRANCH   1  17
ATOM     17  N   UNL     1      47.915   7.779  15.142  0.00  0.00    +0.000 N 
ATOM     18  C   UNL     1      48.298   8.463  16.265  0.00  0.00    +0.000 C 
ATOM     19  O   UNL     1      48.354   9.688  16.299  0.00  0.00    +0.000 OA
ATOM     20  H   UNL     1      48.135   6.792  15.071  0.00  0.00    +0.000 HD
BRANCH  18  21
ATOM     21  C   UNL     1      48.563   7.641  17.453  0.00  0.00    +0.000 A 
ATOM     22  C   UNL     1      47.820   7.833  18.609  0.00  0.00    +0.000 A 
ATOM     23  S   UNL     1      48.186   6.718  19.847  0.00  0.00    +0.000 S 
ATOM     24  C   UNL     1      49.394   5.979  18.904  0.00  0.00    +0.000 A 
ATOM     25  N   UNL     1      50.119   4.931  19.382  0.00  0.00    +0.000 NA
ATOM     26  C   UNL     1      51.016   4.487  18.566  0.00  0.00    +0.000 A 
ATOM     27  N   UNL     1      51.262   5.000  17.320  0.00  0.00    +0.000 N 
ATOM     28  C   UNL     1      50.550   6.048  16.792  0.00  0.00    +0.000 A 
ATOM     29  O   UNL     1      50.787   6.476  15.666  0.00  0.00    +0.000 OA
ATOM     30  C   UNL     1      49.515   6.575  17.663  0.00  0.00    +0.000 A 
ATOM     31  H   UNL     1      51.987   4.614  16.733  0.00  0.00    +0.000 HD
ENDBRANCH  18  21
ENDBRANCH   1  17
TORSDOF 6
ENDMDL
MODEL 4
REMARK VINA RESULT:    -7.176      1.755      2.040
REMARK INTER + INTRA:         -10.584
REMARK INTER:                  -9.361
REMARK INTRA:                  -1.224
REMARK UNBOUND:                -0.892
REMARK  Name = 
REMARK  6 active torsions:
REMARK  status: ('A' for Active; 'I' for Inactive)
REMARK    1  A    between atoms: C_2  and  C_3
REMARK    2  A    between atoms: C_6  and  O_7
REMARK    3  A    between atoms: O_7  and  C_8
REMARK    4  A    between atoms: C_11  and  C_12
REMARK    5  A    between atoms: C_12  and  N_13
REMARK    6  A    between atoms: C_14  and  C_16
REMARK                            x       y       z     vdW  Elec       q    Type
REMARK                         _______ _______ _______ _____ _____    ______ ____
ROOT
ATOM      1  C   UNL     1      47.364   9.016  13.177  0.00  0.00    +0.000 C 
ENDROOT
BRANCH   1   5
ATOM      2  C   UNL     1      44.899   5.952  11.408  0.00  0.00    +0.000 A 
ATOM      3  C   UNL     1      44.466   7.278  11.382  0.00  0.00    +0.000 A 
ATOM      4  C   UNL     1      45.250   8.280  11.971  0.00  0.00    +0.000 A 
ATOM      5  C   UNL     1      46.474   7.959  12.575  0.00  0.00    +0.000 A 
ATOM      6  C   UNL     1      46.850   6.613  12.675  0.00  0.00    +0.000 A 
ATOM      7  C   UNL     1      46.053   5.614  12.121  0.00  0.00    +0.000 A 
BRANCH   2   8
ATOM      8  O   UNL     1      44.162   5.015  10.713  0.00  0.00    +0.000 OA
BRANCH   8  12
ATOM      9  C   UNL     1      46.253   2.606   8.004  0.00  0.00    +0.000 A 
ATOM     10  C   UNL     1      45.449   2.042   9.003  0.00  0.00    +0.000 A 
ATOM     11  C   UNL     1      44.739   2.865   9.886  0.00  0.00    +0.000 A 
ATOM     12  C   UNL     1      44.834   4.254   9.773  0.00  0.00    +0.000 A 
ATOM     13  C   UNL     1      45.583   4.814   8.730  0.00  0.00    +0.000 A 
ATOM     14  C   UNL     1      46.319   3.996   7.872  0.00  0.00    +0.000 A 
BRANCH   9  16
ATOM     15  N   UNL     1      47.599   1.087   6.390  0.00  0.00    +0.000 NA
ATOM     16  C   UNL     1      47.005   1.775   7.110  0.00  0.00    +0.000 C 
ENDBRANCH   9  16
ENDBRANCH   8  12
ENDBRANCH   2   8
ENDBRANCH   1   5
BRANCH   1  17
ATOM     17  N   UNL     1      48.544   8.412  13.734  0.00  0.00    +0.000 N 
ATOM     18  C   UNL     1      49.333   9.064  14.644  0.00  0.00    +0.000 C 
ATOM     19  O   UNL     1      49.059  10.181  15.069  0.00  0.00    +0.000 OA
ATOM     20  H   UNL     1      48.932   7.631  13.219  0.00  0.00    +0.000 HD
BRANCH  18  21
ATOM     21  C   UNL     1      50.491   8.308  15.140  0.00  0.00    +0.000 A 
ATOM     22  C   UNL     1      51.776   8.768  14.895  0.00  0.00    +0.000 A 
ATOM     23  S   UNL     1      52.990   7.828  15.640  0.00  0.00    +0.000 S 
ATOM     24  C   UNL     1      51.843   6.737  16.263  0.00  0.00    +0.000 A 
ATOM     25  N   UNL     1      52.224   5.666  17.011  0.00  0.00    +0.000 NA
ATOM     26  C   UNL     1      51.249   4.911  17.396  0.00  0.00    +0.000 A 
ATOM     27  N   UNL     1      49.930   5.122  17.094  0.00  0.00    +0.000 N 
ATOM     28  C   UNL     1      49.498   6.194  16.353  0.00  0.00    +0.000 A 
ATOM     29  O   UNL     1      48.306   6.362  16.110  0.00  0.00    +0.000 OA
ATOM     30  C   UNL     1      50.554   7.086  15.908  0.00  0.00    +0.000 A 
ATOM     31  H   UNL     1      49.215   4.487  17.417  0.00  0.00    +0.000 HD
ENDBRANCH  18  21
ENDBRANCH   1  17
TORSDOF 6
ENDMDL
MODEL 5
REMARK VINA RESULT:    -6.794      4.924      7.559
REMARK INTER + INTRA:         -10.069
REMARK INTER:                  -9.108
REMARK INTRA:                  -0.961
REMARK UNBOUND:                -0.892
REMARK  Name = 
REMARK  6 active torsions:
REMARK  status: ('A' for Active; 'I' for Inactive)
REMARK    1  A    between atoms: C_2  and  C_3
REMARK    2  A    between atoms: C_6  and  O_7
REMARK    3  A    between atoms: O_7  and  C_8
REMARK    4  A    between atoms: C_11  and  C_12
REMARK    5  A    between atoms: C_12  and  N_13
REMARK    6  A    between atoms: C_14  and  C_16
REMARK                            x       y       z     vdW  Elec       q    Type
REMARK                         _______ _______ _______ _____ _____    ______ ____
ROOT
ATOM      1  C   UNL     1      46.485   8.369  12.720  0.00  0.00    +0.000 C 
ENDROOT
BRANCH   1   5
ATOM      2  C   UNL     1      50.592   8.746  11.464  0.00  0.00    +0.000 A 
ATOM      3  C   UNL     1      49.746   9.852  11.378  0.00  0.00    +0.000 A 
ATOM      4  C   UNL     1      48.404   9.735  11.764  0.00  0.00    +0.000 A 
ATOM      5  C   UNL     1      47.910   8.516  12.251  0.00  0.00    +0.000 A 
ATOM      6  C   UNL     1      48.747   7.393  12.245  0.00  0.00    +0.000 A 
ATOM      7  C   UNL     1      50.070   7.500  11.826  0.00  0.00    +0.000 A 
BRANCH   2   8
ATOM      8  O   UNL     1      51.933   8.931  11.190  0.00  0.00    +0.000 OA
BRANCH   8  12
ATOM      9  C   UNL     1      53.138   8.084   7.273  0.00  0.00    +0.000 A 
ATOM     10  C   UNL     1      53.087   9.402   7.745  0.00  0.00    +0.000 A 
ATOM     11  C   UNL     1      52.702   9.664   9.066  0.00  0.00    +0.000 A 
ATOM     12  C   UNL     1      52.366   8.608   9.916  0.00  0.00    +0.000 A 
ATOM     13  C   UNL     1      52.486   7.289   9.462  0.00  0.00    +0.000 A 
ATOM     14  C   UNL     1      52.836   7.028   8.137  0.00  0.00    +0.000 A 
BRANCH   9  16
ATOM     15  N   UNL     1      53.821   7.568   4.826  0.00  0.00    +0.000 NA
ATOM     16  C   UNL     1      53.507   7.805   5.916  0.00  0.00    +0.000 C 
ENDBRANCH   9  16
ENDBRANCH   8  12
ENDBRANCH   2   8
ENDBRANCH   1   5
BRANCH   1  17
ATOM     17  N   UNL     1      46.026   7.024  12.493  0.00  0.00    +0.000 N 
ATOM     18  C   UNL     1      44.950   6.749  11.693  0.00  0.00    +0.000 C 
ATOM     19  O   UNL     1      44.340   7.626  11.089  0.00  0.00    +0.000 OA
ATOM     20  H   UNL     1      46.326   6.330  13.167  0.00  0.00    +0.000 HD
BRANCH  18  21
ATOM     21  C   UNL     1      44.617   5.327  11.540  0.00  0.00    +0.000 A 
ATOM     22  C   UNL     1      43.951   4.657  12.556  0.00  0.00    +0.000 A 
ATOM     23  S   UNL     1      43.547   3.047  12.161  0.00  0.00    +0.000 S 
ATOM     24  C   UNL     1      44.305   3.169  10.642  0.00  0.00    +0.000 A 
ATOM     25  N   UNL     1      44.329   2.116   9.780  0.00  0.00    +0.000 NA
ATOM     26  C   UNL     1      44.959   2.346   8.676  0.00  0.00    +0.000 A 
ATOM     27  N   UNL     1      45.575   3.527   8.358  0.00  0.00    +0.000 N 
ATOM     28  C   UNL     1      45.567   4.619   9.190  0.00  0.00    +0.000 A 
ATOM     29  O   UNL     1      46.118   5.668   8.870  0.00  0.00    +0.000 OA
ATOM     30  C   UNL     1      44.856   4.421  10.441  0.00  0.00    +0.000 A 
ATOM     31  H   UNL     1      46.061   3.639   7.481  0.00  0.00    +0.000 HD
ENDBRANCH  18  21
ENDBRANCH   1  17
TORSDOF 6
ENDMDL
MODEL 6
REMARK VINA RESULT:    -5.966      2.749      3.806
REMARK INTER + INTRA:          -8.950
REMARK INTER:                  -7.761
REMARK INTRA:                  -1.189
REMARK UNBOUND:                -0.892
REMARK  Name = 
REMARK  6 active torsions:
REMARK  status: ('A' for Active; 'I' for Inactive)
REMARK    1  A    between atoms: C_2  and  C_3
REMARK    2  A    between atoms: C_6  and  O_7
REMARK    3  A    between atoms: O_7  and  C_8
REMARK    4  A    between atoms: C_11  and  C_12
REMARK    5  A    between atoms: C_12  and  N_13
REMARK    6  A    between atoms: C_14  and  C_16
REMARK                            x       y       z     vdW  Elec       q    Type
REMARK                         _______ _______ _______ _____ _____    ______ ____
ROOT
ATOM      1  C   UNL     1      51.000   8.269  14.586  0.00  0.00    +0.000 C 
ENDROOT
BRANCH   1   5
ATOM      2  C   UNL     1      47.309   8.191  12.359  0.00  0.00    +0.000 A 
ATOM      3  C   UNL     1      48.502   7.860  11.717  0.00  0.00    +0.000 A 
ATOM      4  C   UNL     1      49.710   7.901  12.426  0.00  0.00    +0.000 A 
ATOM      5  C   UNL     1      49.725   8.260  13.782  0.00  0.00    +0.000 A 
ATOM      6  C   UNL     1      48.533   8.679  14.386  0.00  0.00    +0.000 A 
ATOM      7  C   UNL     1      47.339   8.673  13.671  0.00  0.00    +0.000 A 
BRANCH   2   8
ATOM      8  O   UNL     1      46.129   8.022  11.663  0.00  0.00    +0.000 OA
BRANCH   8  12
ATOM      9  C   UNL     1      44.257   4.279  11.693  0.00  0.00    +0.000 A 
ATOM     10  C   UNL     1      44.982   4.716  10.577  0.00  0.00    +0.000 A 
ATOM     11  C   UNL     1      45.620   5.963  10.594  0.00  0.00    +0.000 A 
ATOM     12  C   UNL     1      45.532   6.775  11.727  0.00  0.00    +0.000 A 
ATOM     13  C   UNL     1      44.867   6.304  12.866  0.00  0.00    +0.000 A 
ATOM     14  C   UNL     1      44.201   5.078  12.838  0.00  0.00    +0.000 A 
BRANCH   9  16
ATOM     15  N   UNL     1      43.015   2.003  11.677  0.00  0.00    +0.000 NA
ATOM     16  C   UNL     1      43.580   3.016  11.679  0.00  0.00    +0.000 C 
ENDBRANCH   9  16
ENDBRANCH   8  12
ENDBRANCH   2   8
ENDBRANCH   1   5
BRANCH   1  17
ATOM     17  N   UNL     1      50.807   7.568  15.827  0.00  0.00    +0.000 N 
ATOM     18  C   UNL     1      51.771   6.754  16.359  0.00  0.00    +0.000 C 
ATOM     19  O   UNL     1      52.870   6.609  15.834  0.00  0.00    +0.000 OA
ATOM     20  H   UNL     1      49.848   7.456  16.133  0.00  0.00    +0.000 HD
BRANCH  18  21
ATOM     21  C   UNL     1      51.436   6.125  17.644  0.00  0.00    +0.000 A 
ATOM     22  C   UNL     1      52.329   6.195  18.704  0.00  0.00    +0.000 A 
ATOM     23  S   UNL     1      51.728   5.509  20.146  0.00  0.00    +0.000 S 
ATOM     24  C   UNL     1      50.280   5.039  19.387  0.00  0.00    +0.000 A 
ATOM     25  N   UNL     1      49.305   4.383  20.074  0.00  0.00    +0.000 NA
ATOM     26  C   UNL     1      48.273   4.068  19.365  0.00  0.00    +0.000 A 
ATOM     27  N   UNL     1      48.129   4.339  18.030  0.00  0.00    +0.000 N 
ATOM     28  C   UNL     1      49.079   5.007  17.299  0.00  0.00    +0.000 A 
ATOM     29  O   UNL     1      48.914   5.246  16.106  0.00  0.00    +0.000 OA
ATOM     30  C   UNL     1      50.256   5.401  18.054  0.00  0.00    +0.000 A 
ATOM     31  H   UNL     1      47.300   4.056  17.529  0.00  0.00    +0.000 HD
ENDBRANCH  18  21
ENDBRANCH   1  17
TORSDOF 6
ENDMDL
MODEL 7
REMARK VINA RESULT:    -5.892      5.446      7.645
REMARK INTER + INTRA:          -8.851
REMARK INTER:                  -7.810
REMARK INTRA:                  -1.040
REMARK UNBOUND:                -0.892
REMARK  Name = 
REMARK  6 active torsions:
REMARK  status: ('A' for Active; 'I' for Inactive)
REMARK    1  A    between atoms: C_2  and  C_3
REMARK    2  A    between atoms: C_6  and  O_7
REMARK    3  A    between atoms: O_7  and  C_8
REMARK    4  A    between atoms: C_11  and  C_12
REMARK    5  A    between atoms: C_12  and  N_13
REMARK    6  A    between atoms: C_14  and  C_16
REMARK                            x       y       z     vdW  Elec       q    Type
REMARK                         _______ _______ _______ _____ _____    ______ ____
ROOT
ATOM      1  C   UNL     1      51.213   8.988  11.998  0.00  0.00    +0.000 C 
ENDROOT
BRANCH   1   5
ATOM      2  C   UNL     1      47.261   7.522  12.908  0.00  0.00    +0.000 A 
ATOM      3  C   UNL     1      47.401   8.679  12.142  0.00  0.00    +0.000 A 
ATOM      4  C   UNL     1      48.681   9.176  11.857  0.00  0.00    +0.000 A 
ATOM      5  C   UNL     1      49.822   8.508  12.326  0.00  0.00    +0.000 A 
ATOM      6  C   UNL     1      49.662   7.401  13.169  0.00  0.00    +0.000 A 
ATOM      7  C   UNL     1      48.390   6.930  13.483  0.00  0.00    +0.000 A 
BRANCH   2   8
ATOM      8  O   UNL     1      45.994   6.997  13.065  0.00  0.00    +0.000 OA
BRANCH   8  12
ATOM      9  C   UNL     1      44.902   3.758  10.650  0.00  0.00    +0.000 A 
ATOM     10  C   UNL     1      45.224   5.001  10.091  0.00  0.00    +0.000 A 
ATOM     11  C   UNL     1      45.608   6.067  10.914  0.00  0.00    +0.000 A 
ATOM     12  C   UNL     1      45.670   5.892  12.298  0.00  0.00    +0.000 A 
ATOM     13  C   UNL     1      45.415   4.629  12.847  0.00  0.00    +0.000 A 
ATOM     14  C   UNL     1      44.999   3.576  12.032  0.00  0.00    +0.000 A 
BRANCH   9  16
ATOM     15  N   UNL     1      44.164   1.778   9.148  0.00  0.00    +0.000 NA
ATOM     16  C   UNL     1      44.483   2.667   9.821  0.00  0.00    +0.000 C 
ENDBRANCH   9  16
ENDBRANCH   8  12
ENDBRANCH   2   8
ENDBRANCH   1   5
BRANCH   1  17
ATOM     17  N   UNL     1      51.679   8.365  10.789  0.00  0.00    +0.000 N 
ATOM     18  C   UNL     1      52.920   7.793  10.698  0.00  0.00    +0.000 C 
ATOM     19  O   UNL     1      53.689   7.739  11.652  0.00  0.00    +0.000 OA
ATOM     20  H   UNL     1      51.195   8.624   9.937  0.00  0.00    +0.000 HD
BRANCH  18  21
ATOM     21  C   UNL     1      53.244   7.176   9.404  0.00  0.00    +0.000 A 
ATOM     22  C   UNL     1      53.584   5.833   9.343  0.00  0.00    +0.000 A 
ATOM     23  S   UNL     1      53.818   5.262   7.752  0.00  0.00    +0.000 S 
ATOM     24  C   UNL     1      53.534   6.805   7.095  0.00  0.00    +0.000 A 
ATOM     25  N   UNL     1      53.586   7.019   5.752  0.00  0.00    +0.000 NA
ATOM     26  C   UNL     1      53.373   8.243   5.398  0.00  0.00    +0.000 A 
ATOM     27  N   UNL     1      53.123   9.274   6.264  0.00  0.00    +0.000 N 
ATOM     28  C   UNL     1      53.049   9.104   7.624  0.00  0.00    +0.000 A 
ATOM     29  O   UNL     1      52.810  10.048   8.372  0.00  0.00    +0.000 OA
ATOM     30  C   UNL     1      53.264   7.741   8.075  0.00  0.00    +0.000 A 
ATOM     31  H   UNL     1      52.975  10.213   5.924  0.00  0.00    +0.000 HD
ENDBRANCH  18  21
ENDBRANCH   1  17
TORSDOF 6
ENDMDL
MODEL 8
REMARK VINA RESULT:    -5.844      1.629      2.047
REMARK INTER + INTRA:          -8.786
REMARK INTER:                  -7.678
REMARK INTRA:                  -1.108
REMARK UNBOUND:                -0.892
REMARK  Name = 
REMARK  6 active torsions:
REMARK  status: ('A' for Active; 'I' for Inactive)
REMARK    1  A    between atoms: C_2  and  C_3
REMARK    2  A    between atoms: C_6  and  O_7
REMARK    3  A    between atoms: O_7  and  C_8
REMARK    4  A    between atoms: C_11  and  C_12
REMARK    5  A    between atoms: C_12  and  N_13
REMARK    6  A    between atoms: C_14  and  C_16
REMARK                            x       y       z     vdW  Elec       q    Type
REMARK                         _______ _______ _______ _____ _____    ______ ____
ROOT
ATOM      1  C   UNL     1      49.242   8.290  14.225  0.00  0.00    +0.000 C 
ENDROOT
BRANCH   1   5
ATOM      2  C   UNL     1      45.821   6.357  12.453  0.00  0.00    +0.000 A 
ATOM      3  C   UNL     1      45.928   7.746  12.391  0.00  0.00    +0.000 A 
ATOM      4  C   UNL     1      47.027   8.387  12.981  0.00  0.00    +0.000 A 
ATOM      5  C   UNL     1      48.025   7.638  13.621  0.00  0.00    +0.000 A 
ATOM      6  C   UNL     1      47.855   6.254  13.755  0.00  0.00    +0.000 A 
ATOM      7  C   UNL     1      46.745   5.622  13.200  0.00  0.00    +0.000 A 
BRANCH   2   8
ATOM      8  O   UNL     1      44.791   5.755  11.756  0.00  0.00    +0.000 OA
BRANCH   8  12
ATOM      9  C   UNL     1      45.770   3.851   8.161  0.00  0.00    +0.000 A 
ATOM     10  C   UNL     1      44.881   3.264   9.071  0.00  0.00    +0.000 A 
ATOM     11  C   UNL     1      44.549   3.927  10.259  0.00  0.00    +0.000 A 
ATOM     12  C   UNL     1      45.106   5.177  10.539  0.00  0.00    +0.000 A 
ATOM     13  C   UNL     1      45.939   5.791   9.595  0.00  0.00    +0.000 A 
ATOM     14  C   UNL     1      46.298   5.116   8.427  0.00  0.00    +0.000 A 
BRANCH   9  16
ATOM     15  N   UNL     1      46.437   2.604   5.987  0.00  0.00    +0.000 NA
ATOM     16  C   UNL     1      46.137   3.171   6.953  0.00  0.00    +0.000 C 
ENDBRANCH   9  16
ENDBRANCH   8  12
ENDBRANCH   2   8
ENDBRANCH   1   5
BRANCH   1  17
ATOM     17  N   UNL     1      49.261   8.082  15.648  0.00  0.00    +0.000 N 
ATOM     18  C   UNL     1      50.345   7.547  16.290  0.00  0.00    +0.000 C 
ATOM     19  O   UNL     1      51.379   7.253  15.698  0.00  0.00    +0.000 OA
ATOM     20  H   UNL     1      48.359   8.061  16.109  0.00  0.00    +0.000 HD
BRANCH  18  21
ATOM     21  C   UNL     1      50.223   7.418  17.748  0.00  0.00    +0.000 A 
ATOM     22  C   UNL     1      51.144   8.038  18.579  0.00  0.00    +0.000 A 
ATOM     23  S   UNL     1      50.784   7.875  20.239  0.00  0.00    +0.000 S 
ATOM     24  C   UNL     1      49.418   6.916  19.906  0.00  0.00    +0.000 A 
ATOM     25  N   UNL     1      48.639   6.427  20.910  0.00  0.00    +0.000 NA
ATOM     26  C   UNL     1      47.652   5.697  20.511  0.00  0.00    +0.000 A 
ATOM     27  N   UNL     1      47.376   5.402  19.201  0.00  0.00    +0.000 N 
ATOM     28  C   UNL     1      48.125   5.882  18.157  0.00  0.00    +0.000 A 
ATOM     29  O   UNL     1      47.843   5.610  16.993  0.00  0.00    +0.000 OA
ATOM     30  C   UNL     1      49.241   6.725  18.549  0.00  0.00    +0.000 A 
ATOM     31  H   UNL     1      46.593   4.815  18.955  0.00  0.00    +0.000 HD
ENDBRANCH  18  21
ENDBRANCH   1  17
TORSDOF 6
ENDMDL
