MODEL 1
REMARK VINA RESULT:    -8.311      0.000      0.000
REMARK INTER + INTRA:         -13.289
REMARK INTER:                 -11.954
REMARK INTRA:                  -1.335
REMARK UNBOUND:                -1.335
REMARK  Name = 
REMARK  8 active torsions:
REMARK  status: ('A' for Active; 'I' for Inactive)
REMARK    1  A    between atoms: C_2  and  C_21
REMARK    2  A    between atoms: N_3  and  C_4
REMARK    3  A    between atoms: C_4  and  C_5
REMARK    4  A    between atoms: C_8  and  C_9
REMARK    5  A    between atoms: C_9  and  O_10
REMARK    6  A    between atoms: C_9  and  C_11
REMARK    7  A    between atoms: C_11  and  O_12
REMARK    8  A    between atoms: O_12  and  C_13
REMARK                            x       y       z     vdW  Elec       q    Type
REMARK                         _______ _______ _______ _____ _____    ______ ____
ROOT
ATOM      1  C   UNL     1      46.240   7.329  12.317  0.00  0.00    +0.000 A 
ATOM      2  C   UNL     1      46.681   6.671  11.166  0.00  0.00    +0.000 A 
ATOM      3  C   UNL     1      45.921   5.648  10.590  0.00  0.00    +0.000 A 
ATOM      4  C   UNL     1      44.684   5.270  11.135  0.00  0.00    +0.000 A 
ATOM      5  C   UNL     1      44.232   5.956  12.277  0.00  0.00    +0.000 A 
ATOM      6  C   UNL     1      44.997   6.973  12.859  0.00  0.00    +0.000 A 
ENDROOT
BRANCH   1   7
ATOM      7  C   UNL     1      47.051   8.461  12.899  0.00  0.00    +0.000 C 
BRANCH   7  10
ATOM      8  O   UNL     1      49.236   6.700  13.487  0.00  0.00    +0.000 OA
ATOM      9  C   UNL     1      48.537   7.154  14.379  0.00  0.00    +0.000 C 
ATOM     10  N   UNL     1      47.538   8.079  14.197  0.00  0.00    +0.000 N 
ATOM     11  H   UNL     1      46.898   8.242  14.959  0.00  0.00    +0.000 HD
BRANCH   9  12
ATOM     12  C   UNL     1      48.505   6.615  15.738  0.00  0.00    +0.000 A 
ATOM     13  C   UNL     1      48.998   7.311  16.825  0.00  0.00    +0.000 A 
ATOM     14  S   UNL     1      49.348   6.259  18.137  0.00  0.00    +0.000 S 
ATOM     15  C   UNL     1      48.727   4.910  17.297  0.00  0.00    +0.000 A 
ATOM     16  N   UNL     1      48.849   3.637  17.759  0.00  0.00    +0.000 NA
ATOM     17  C   UNL     1      48.281   2.746  17.012  0.00  0.00    +0.000 A 
ATOM     18  N   UNL     1      47.554   3.015  15.878  0.00  0.00    +0.000 N 
ATOM     19  C   UNL     1      47.382   4.288  15.385  0.00  0.00    +0.000 A 
ATOM     20  O   UNL     1      46.660   4.524  14.425  0.00  0.00    +0.000 OA
ATOM     21  C   UNL     1      48.125   5.292  16.119  0.00  0.00    +0.000 A 
ATOM     22  H   UNL     1      47.060   2.283  15.388  0.00  0.00    +0.000 HD
ENDBRANCH   9  12
ENDBRANCH   7  10
ENDBRANCH   1   7
BRANCH   4  23
ATOM     23  C   UNL     1      43.812   4.167  10.552  0.00  0.00    +0.000 C 
BRANCH  23  24
ATOM     24  O   UNL     1      42.694   3.964  11.428  0.00  0.00    +0.000 OA
ATOM     25  H   UNL     1      43.007   4.109  12.338  0.00  0.00    +0.000 HD
ENDBRANCH  23  24
BRANCH  23  26
ATOM     26  C   UNL     1      44.526   2.823  10.321  0.00  0.00    +0.000 C 
BRANCH  26  27
ATOM     27  O   UNL     1      44.257   2.335   9.003  0.00  0.00    +0.000 OA
BRANCH  27  28
ATOM     28  C   UNL     1      45.417   2.277   8.257  0.00  0.00    +0.000 A 
ATOM     29  N   UNL     1      45.753   3.410   7.629  0.00  0.00    +0.000 NA
ATOM     30  C   UNL     1      46.878   3.362   6.893  0.00  0.00    +0.000 A 
ATOM     31  C   UNL     1      47.670   2.242   6.784  0.00  0.00    +0.000 A 
ATOM     32  C   UNL     1      47.242   1.144   7.489  0.00  0.00    +0.000 A 
ATOM     33  N   UNL     1      46.121   1.129   8.230  0.00  0.00    +0.000 NA
ENDBRANCH  27  28
ENDBRANCH  26  27
ENDBRANCH  23  26
ENDBRANCH   4  23
TORSDOF 8
ENDMDL
MODEL 2
REMARK VINA RESULT:    -8.056      1.560      1.726
REMARK INTER + INTRA:         -12.923
REMARK INTER:                 -11.873
REMARK INTRA:                  -1.050
REMARK UNBOUND:                -1.335
REMARK  Name = 
REMARK  8 active torsions:
REMARK  status: ('A' for Active; 'I' for Inactive)
REMARK    1  A    between atoms: C_2  and  C_21
REMARK    2  A    between atoms: N_3  and  C_4
REMARK    3  A    between atoms: C_4  and  C_5
REMARK    4  A    between atoms: C_8  and  C_9
REMARK    5  A    between atoms: C_9  and  O_10
REMARK    6  A    between atoms: C_9  and  C_11
REMARK    7  A    between atoms: C_11  and  O_12
REMARK    8  A    between atoms: O_12  and  C_13
REMARK                            x       y       z     vdW  Elec       q    Type
REMARK                         _______ _______ _______ _____ _____    ______ ____
ROOT
ATOM      1  C   UNL     1      46.852   6.270  13.112  0.00  0.00    +0.000 A 
ATOM      2  C   UNL     1      46.109   6.780  12.044  0.00  0.00    +0.000 A 
ATOM      3  C   UNL     1      45.172   5.984  11.379  0.00  0.00    +0.000 A 
ATOM      4  C   UNL     1      44.932   4.660  11.778  0.00  0.00    +0.000 A 
ATOM      5  C   UNL     1      45.662   4.162  12.872  0.00  0.00    +0.000 A 
ATOM      6  C   UNL     1      46.607   4.956  13.532  0.00  0.00    +0.000 A 
ENDROOT
BRANCH   1   7
ATOM      7  C   UNL     1      47.826   7.157  13.847  0.00  0.00    +0.000 C 
BRANCH   7  10
ATOM      8  O   UNL     1      48.626   8.262  16.370  0.00  0.00    +0.000 OA
ATOM      9  C   UNL     1      48.793   7.079  16.121  0.00  0.00    +0.000 C 
ATOM     10  N   UNL     1      48.351   6.448  14.984  0.00  0.00    +0.000 N 
ATOM     11  H   UNL     1      48.704   5.525  14.786  0.00  0.00    +0.000 HD
BRANCH   9  12
ATOM     12  C   UNL     1      49.684   6.208  16.886  0.00  0.00    +0.000 A 
ATOM     13  C   UNL     1      50.924   6.622  17.334  0.00  0.00    +0.000 A 
ATOM     14  S   UNL     1      51.945   5.284  17.678  0.00  0.00    +0.000 S 
ATOM     15  C   UNL     1      50.693   4.172  17.352  0.00  0.00    +0.000 A 
ATOM     16  N   UNL     1      50.901   2.828  17.293  0.00  0.00    +0.000 NA
ATOM     17  C   UNL     1      49.830   2.136  17.077  0.00  0.00    +0.000 A 
ATOM     18  N   UNL     1      48.563   2.656  16.971  0.00  0.00    +0.000 N 
ATOM     19  C   UNL     1      48.300   4.004  17.048  0.00  0.00    +0.000 A 
ATOM     20  O   UNL     1      47.159   4.448  17.040  0.00  0.00    +0.000 OA
ATOM     21  C   UNL     1      49.495   4.817  17.147  0.00  0.00    +0.000 A 
ATOM     22  H   UNL     1      47.756   2.054  16.891  0.00  0.00    +0.000 HD
ENDBRANCH   9  12
ENDBRANCH   7  10
ENDBRANCH   1   7
BRANCH   4  23
ATOM     23  C   UNL     1      43.924   3.746  11.095  0.00  0.00    +0.000 C 
BRANCH  23  24
ATOM     24  O   UNL     1      43.899   2.496  11.797  0.00  0.00    +0.000 OA
ATOM     25  H   UNL     1      44.159   1.802  11.166  0.00  0.00    +0.000 HD
ENDBRANCH  23  24
BRANCH  23  26
ATOM     26  C   UNL     1      44.187   3.485   9.601  0.00  0.00    +0.000 C 
BRANCH  26  27
ATOM     27  O   UNL     1      44.678   2.155   9.407  0.00  0.00    +0.000 OA
BRANCH  27  28
ATOM     28  C   UNL     1      45.676   2.138   8.453  0.00  0.00    +0.000 A 
ATOM     29  N   UNL     1      45.940   3.317   7.877  0.00  0.00    +0.000 NA
ATOM     30  C   UNL     1      46.906   3.309   6.941  0.00  0.00    +0.000 A 
ATOM     31  C   UNL     1      47.613   2.184   6.584  0.00  0.00    +0.000 A 
ATOM     32  C   UNL     1      47.274   1.035   7.256  0.00  0.00    +0.000 A 
ATOM     33  N   UNL     1      46.311   0.979   8.191  0.00  0.00    +0.000 NA
ENDBRANCH  27  28
ENDBRANCH  26  27
ENDBRANCH  23  26
ENDBRANCH   4  23
TORSDOF 8
ENDMDL
MODEL 3
REMARK VINA RESULT:    -7.950      1.579      2.162
REMARK INTER + INTRA:         -12.771
REMARK INTER:                 -11.640
REMARK INTRA:                  -1.131
REMARK UNBOUND:                -1.335
REMARK  Name = 
REMARK  8 active torsions:
REMARK  status: ('A' for Active; 'I' for Inactive)
REMARK    1  A    between atoms: C_2  and  C_21
REMARK    2  A    between atoms: N_3  and  C_4
REMARK    3  A    between atoms: C_4  and  C_5
REMARK    4  A    between atoms: C_8  and  C_9
REMARK    5  A    between atoms: C_9  and  O_10
REMARK    6  A    between atoms: C_9  and  C_11
REMARK    7  A    between atoms: C_11  and  O_12
REMARK    8  A    between atoms: O_12  and  C_13
REMARK                            x       y       z     vdW  Elec       q    Type
REMARK                         _______ _______ _______ _____ _____    ______ ____
ROOT
ATOM      1  C   UNL     1      47.369   6.248  12.922  0.00  0.00    +0.000 A 
ATOM      2  C   UNL     1      46.941   5.140  13.660  0.00  0.00    +0.000 A 
ATOM      3  C   UNL     1      45.905   4.326  13.193  0.00  0.00    +0.000 A 
ATOM      4  C   UNL     1      45.284   4.579  11.961  0.00  0.00    +0.000 A 
ATOM      5  C   UNL     1      45.738   5.677  11.209  0.00  0.00    +0.000 A 
ATOM      6  C   UNL     1      46.769   6.499  11.681  0.00  0.00    +0.000 A 
ENDROOT
BRANCH   1   7
ATOM      7  C   UNL     1      48.518   7.090  13.419  0.00  0.00    +0.000 C 
BRANCH   7  10
ATOM      8  O   UNL     1      50.388   6.649  15.548  0.00  0.00    +0.000 OA
ATOM      9  C   UNL     1      49.255   7.040  15.778  0.00  0.00    +0.000 C 
ATOM     10  N   UNL     1      48.331   7.372  14.817  0.00  0.00    +0.000 N 
ATOM     11  H   UNL     1      47.373   7.497  15.104  0.00  0.00    +0.000 HD
BRANCH   9  12
ATOM     12  C   UNL     1      48.636   6.997  17.102  0.00  0.00    +0.000 A 
ATOM     13  C   UNL     1      48.199   8.134  17.755  0.00  0.00    +0.000 A 
ATOM     14  S   UNL     1      48.057   7.870  19.446  0.00  0.00    +0.000 S 
ATOM     15  C   UNL     1      48.453   6.219  19.280  0.00  0.00    +0.000 A 
ATOM     16  N   UNL     1      48.675   5.406  20.348  0.00  0.00    +0.000 NA
ATOM     17  C   UNL     1      48.922   4.175  20.033  0.00  0.00    +0.000 A 
ATOM     18  N   UNL     1      48.911   3.670  18.756  0.00  0.00    +0.000 N 
ATOM     19  C   UNL     1      48.667   4.448  17.648  0.00  0.00    +0.000 A 
ATOM     20  O   UNL     1      48.574   3.970  16.524  0.00  0.00    +0.000 OA
ATOM     21  C   UNL     1      48.529   5.856  17.954  0.00  0.00    +0.000 A 
ATOM     22  H   UNL     1      49.023   2.681  18.584  0.00  0.00    +0.000 HD
ENDBRANCH   9  12
ENDBRANCH   7  10
ENDBRANCH   1   7
BRANCH   4  23
ATOM     23  C   UNL     1      44.154   3.726  11.399  0.00  0.00    +0.000 C 
BRANCH  23  24
ATOM     24  O   UNL     1      44.190   2.447  12.047  0.00  0.00    +0.000 OA
ATOM     25  H   UNL     1      45.062   2.357  12.468  0.00  0.00    +0.000 HD
ENDBRANCH  23  24
BRANCH  23  26
ATOM     26  C   UNL     1      44.184   3.524   9.874  0.00  0.00    +0.000 C 
BRANCH  26  27
ATOM     27  O   UNL     1      44.611   2.196   9.555  0.00  0.00    +0.000 OA
BRANCH  27  28
ATOM     28  C   UNL     1      45.582   2.216   8.575  0.00  0.00    +0.000 A 
ATOM     29  N   UNL     1      46.161   1.038   8.316  0.00  0.00    +0.000 NA
ATOM     30  C   UNL     1      47.114   1.049   7.367  0.00  0.00    +0.000 A 
ATOM     31  C   UNL     1      47.486   2.177   6.672  0.00  0.00    +0.000 A 
ATOM     32  C   UNL     1      46.810   3.325   7.004  0.00  0.00    +0.000 A 
ATOM     33  N   UNL     1      45.857   3.378   7.951  0.00  0.00    +0.000 NA
ENDBRANCH  27  28
ENDBRANCH  26  27
ENDBRANCH  23  26
ENDBRANCH   4  23
TORSDOF 8
ENDMDL
MODEL 4
REMARK VINA RESULT:    -6.502      3.152      7.757
REMARK INTER + INTRA:         -10.688
REMARK INTER:                  -9.152
REMARK INTRA:                  -1.536
REMARK UNBOUND:                -1.335
REMARK  Name = 
REMARK  8 active torsions:
REMARK  status: ('A' for Active; 'I' for Inactive)
REMARK    1  A    between atoms: C_2  and  C_21
REMARK    2  A    between atoms: N_3  and  C_4
REMARK    3  A    between atoms: C_4  and  C_5
REMARK    4  A    between atoms: C_8  and  C_9
REMARK    5  A    between atoms: C_9  and  O_10
REMARK    6  A    between atoms: C_9  and  C_11
REMARK    7  A    between atoms: C_11  and  O_12
REMARK    8  A    between atoms: O_12  and  C_13
REMARK                            x       y       z     vdW  Elec       q    Type
REMARK                         _______ _______ _______ _____ _____    ______ ____
ROOT
ATOM      1  C   UNL     1      47.700   8.225  13.758  0.00  0.00    +0.000 A 
ATOM      2  C   UNL     1      48.074   6.892  13.951  0.00  0.00    +0.000 A 
ATOM      3  C   UNL     1      49.066   6.553  14.876  0.00  0.00    +0.000 A 
ATOM      4  C   UNL     1      49.695   7.536  15.656  0.00  0.00    +0.000 A 
ATOM      5  C   UNL     1      49.294   8.872  15.478  0.00  0.00    +0.000 A 
ATOM      6  C   UNL     1      48.308   9.212  14.544  0.00  0.00    +0.000 A 
ENDROOT
BRANCH   1   7
ATOM      7  C   UNL     1      46.596   8.568  12.788  0.00  0.00    +0.000 C 
BRANCH   7  10
ATOM      8  O   UNL     1      44.254   7.857  11.294  0.00  0.00    +0.000 OA
ATOM      9  C   UNL     1      45.270   7.186  11.224  0.00  0.00    +0.000 C 
ATOM     10  N   UNL     1      46.464   7.508  11.823  0.00  0.00    +0.000 N 
ATOM     11  H   UNL     1      47.180   6.800  11.866  0.00  0.00    +0.000 HD
BRANCH   9  12
ATOM     12  C   UNL     1      45.310   5.828  10.684  0.00  0.00    +0.000 A 
ATOM     13  C   UNL     1      45.678   5.558   9.379  0.00  0.00    +0.000 A 
ATOM     14  S   UNL     1      45.103   4.022   8.871  0.00  0.00    +0.000 S 
ATOM     15  C   UNL     1      44.481   3.677  10.421  0.00  0.00    +0.000 A 
ATOM     16  N   UNL     1      43.708   2.588  10.677  0.00  0.00    +0.000 NA
ATOM     17  C   UNL     1      43.361   2.464  11.917  0.00  0.00    +0.000 A 
ATOM     18  N   UNL     1      43.762   3.295  12.935  0.00  0.00    +0.000 N 
ATOM     19  C   UNL     1      44.564   4.394  12.729  0.00  0.00    +0.000 A 
ATOM     20  O   UNL     1      44.986   5.076  13.655  0.00  0.00    +0.000 OA
ATOM     21  C   UNL     1      44.851   4.642  11.332  0.00  0.00    +0.000 A 
ATOM     22  H   UNL     1      43.530   3.093  13.897  0.00  0.00    +0.000 HD
ENDBRANCH   9  12
ENDBRANCH   7  10
ENDBRANCH   1   7
BRANCH   4  23
ATOM     23  C   UNL     1      50.779   7.228  16.681  0.00  0.00    +0.000 C 
BRANCH  23  24
ATOM     24  O   UNL     1      51.576   6.145  16.183  0.00  0.00    +0.000 OA
ATOM     25  H   UNL     1      52.356   6.068  16.759  0.00  0.00    +0.000 HD
ENDBRANCH  23  24
BRANCH  23  26
ATOM     26  C   UNL     1      50.265   6.875  18.088  0.00  0.00    +0.000 C 
BRANCH  26  27
ATOM     27  O   UNL     1      50.466   5.485  18.358  0.00  0.00    +0.000 OA
BRANCH  27  28
ATOM     28  C   UNL     1      49.392   4.740  17.916  0.00  0.00    +0.000 A 
ATOM     29  N   UNL     1      48.187   5.216  18.253  0.00  0.00    +0.000 NA
ATOM     30  C   UNL     1      47.132   4.494  17.834  0.00  0.00    +0.000 A 
ATOM     31  C   UNL     1      47.245   3.343  17.088  0.00  0.00    +0.000 A 
ATOM     32  C   UNL     1      48.528   2.959  16.782  0.00  0.00    +0.000 A 
ATOM     33  N   UNL     1      49.619   3.634  17.183  0.00  0.00    +0.000 NA
ENDBRANCH  27  28
ENDBRANCH  26  27
ENDBRANCH  23  26
ENDBRANCH   4  23
TORSDOF 8
ENDMDL
MODEL 5
REMARK VINA RESULT:    -6.491      2.308      2.783
REMARK INTER + INTRA:         -10.673
REMARK INTER:                  -9.705
REMARK INTRA:                  -0.968
REMARK UNBOUND:                -1.335
REMARK  Name = 
REMARK  8 active torsions:
REMARK  status: ('A' for Active; 'I' for Inactive)
REMARK    1  A    between atoms: C_2  and  C_21
REMARK    2  A    between atoms: N_3  and  C_4
REMARK    3  A    between atoms: C_4  and  C_5
REMARK    4  A    between atoms: C_8  and  C_9
REMARK    5  A    between atoms: C_9  and  O_10
REMARK    6  A    between atoms: C_9  and  C_11
REMARK    7  A    between atoms: C_11  and  O_12
REMARK    8  A    between atoms: O_12  and  C_13
REMARK                            x       y       z     vdW  Elec       q    Type
REMARK                         _______ _______ _______ _____ _____    ______ ____
ROOT
ATOM      1  C   UNL     1      45.614   7.498  12.398  0.00  0.00    +0.000 A 
ATOM      2  C   UNL     1      46.019   6.960  11.174  0.00  0.00    +0.000 A 
ATOM      3  C   UNL     1      45.616   5.680  10.785  0.00  0.00    +0.000 A 
ATOM      4  C   UNL     1      44.773   4.908  11.600  0.00  0.00    +0.000 A 
ATOM      5  C   UNL     1      44.345   5.465  12.817  0.00  0.00    +0.000 A 
ATOM      6  C   UNL     1      44.756   6.744  13.211  0.00  0.00    +0.000 A 
ENDROOT
BRANCH   1   7
ATOM      7  C   UNL     1      46.021   8.900  12.781  0.00  0.00    +0.000 C 
BRANCH   7  10
ATOM      8  O   UNL     1      48.111  10.858  12.921  0.00  0.00    +0.000 OA
ATOM      9  C   UNL     1      48.207   9.795  13.511  0.00  0.00    +0.000 C 
ATOM     10  N   UNL     1      47.216   8.846  13.582  0.00  0.00    +0.000 N 
ATOM     11  H   UNL     1      47.459   7.930  13.925  0.00  0.00    +0.000 HD
BRANCH   9  12
ATOM     12  C   UNL     1      49.466   9.271  14.040  0.00  0.00    +0.000 A 
ATOM     13  C   UNL     1      50.651   9.332  13.333  0.00  0.00    +0.000 A 
ATOM     14  S   UNL     1      51.787   8.181  13.912  0.00  0.00    +0.000 S 
ATOM     15  C   UNL     1      50.743   7.701  15.174  0.00  0.00    +0.000 A 
ATOM     16  N   UNL     1      51.003   6.634  15.977  0.00  0.00    +0.000 NA
ATOM     17  C   UNL     1      50.123   6.445  16.906  0.00  0.00    +0.000 A 
ATOM     18  N   UNL     1      49.040   7.254  17.143  0.00  0.00    +0.000 N 
ATOM     19  C   UNL     1      48.749   8.358  16.374  0.00  0.00    +0.000 A 
ATOM     20  O   UNL     1      47.832   9.121  16.649  0.00  0.00    +0.000 OA
ATOM     21  C   UNL     1      49.635   8.515  15.239  0.00  0.00    +0.000 A 
ATOM     22  H   UNL     1      48.439   7.103  17.941  0.00  0.00    +0.000 HD
ENDBRANCH   9  12
ENDBRANCH   7  10
ENDBRANCH   1   7
BRANCH   4  23
ATOM     23  C   UNL     1      44.298   3.509  11.229  0.00  0.00    +0.000 C 
BRANCH  23  24
ATOM     24  O   UNL     1      45.171   2.556  11.853  0.00  0.00    +0.000 OA
ATOM     25  H   UNL     1      44.625   1.996  12.432  0.00  0.00    +0.000 HD
ENDBRANCH  23  24
BRANCH  23  26
ATOM     26  C   UNL     1      44.230   3.221   9.719  0.00  0.00    +0.000 C 
BRANCH  26  27
ATOM     27  O   UNL     1      44.769   1.926   9.433  0.00  0.00    +0.000 OA
BRANCH  27  28
ATOM     28  C   UNL     1      45.745   2.007   8.461  0.00  0.00    +0.000 A 
ATOM     29  N   UNL     1      45.945   3.228   7.948  0.00  0.00    +0.000 NA
ATOM     30  C   UNL     1      46.890   3.316   6.995  0.00  0.00    +0.000 A 
ATOM     31  C   UNL     1      47.636   2.246   6.559  0.00  0.00    +0.000 A 
ATOM     32  C   UNL     1      47.362   1.046   7.170  0.00  0.00    +0.000 A 
ATOM     33  N   UNL     1      46.423   0.895   8.119  0.00  0.00    +0.000 NA
ENDBRANCH  27  28
ENDBRANCH  26  27
ENDBRANCH  23  26
ENDBRANCH   4  23
TORSDOF 8
ENDMDL
MODEL 6
REMARK VINA RESULT:    -6.153      2.560      3.750
REMARK INTER + INTRA:         -10.186
REMARK INTER:                  -9.127
REMARK INTRA:                  -1.059
REMARK UNBOUND:                -1.335
REMARK  Name = 
REMARK  8 active torsions:
REMARK  status: ('A' for Active; 'I' for Inactive)
REMARK    1  A    between atoms: C_2  and  C_21
REMARK    2  A    between atoms: N_3  and  C_4
REMARK    3  A    between atoms: C_4  and  C_5
REMARK    4  A    between atoms: C_8  and  C_9
REMARK    5  A    between atoms: C_9  and  O_10
REMARK    6  A    between atoms: C_9  and  C_11
REMARK    7  A    between atoms: C_11  and  O_12
REMARK    8  A    between atoms: O_12  and  C_13
REMARK                            x       y       z     vdW  Elec       q    Type
REMARK                         _______ _______ _______ _____ _____    ______ ____
ROOT
ATOM      1  C   UNL     1      48.364   8.252  13.343  0.00  0.00    +0.000 A 
ATOM      2  C   UNL     1      47.076   8.711  13.632  0.00  0.00    +0.000 A 
ATOM      3  C   UNL     1      45.959   8.159  12.998  0.00  0.00    +0.000 A 
ATOM      4  C   UNL     1      46.096   7.113  12.072  0.00  0.00    +0.000 A 
ATOM      5  C   UNL     1      47.391   6.636  11.807  0.00  0.00    +0.000 A 
ATOM      6  C   UNL     1      48.510   7.195  12.435  0.00  0.00    +0.000 A 
ENDROOT
BRANCH   1   7
ATOM      7  C   UNL     1      49.554   8.828  14.070  0.00  0.00    +0.000 C 
BRANCH   7  10
ATOM      8  O   UNL     1      50.636   6.619  15.544  0.00  0.00    +0.000 OA
ATOM      9  C   UNL     1      49.900   7.431  16.080  0.00  0.00    +0.000 C 
ATOM     10  N   UNL     1      49.420   8.570  15.479  0.00  0.00    +0.000 N 
ATOM     11  H   UNL     1      48.673   9.069  15.936  0.00  0.00    +0.000 HD
BRANCH   9  12
ATOM     12  C   UNL     1      49.236   7.202  17.362  0.00  0.00    +0.000 A 
ATOM     13  C   UNL     1      48.576   6.024  17.657  0.00  0.00    +0.000 A 
ATOM     14  S   UNL     1      47.450   6.239  18.936  0.00  0.00    +0.000 S 
ATOM     15  C   UNL     1      47.938   7.857  19.170  0.00  0.00    +0.000 A 
ATOM     16  N   UNL     1      47.283   8.708  20.006  0.00  0.00    +0.000 NA
ATOM     17  C   UNL     1      47.819   9.882  20.090  0.00  0.00    +0.000 A 
ATOM     18  N   UNL     1      48.978  10.268  19.463  0.00  0.00    +0.000 N 
ATOM     19  C   UNL     1      49.688   9.435  18.629  0.00  0.00    +0.000 A 
ATOM     20  O   UNL     1      50.766   9.760  18.146  0.00  0.00    +0.000 OA
ATOM     21  C   UNL     1      49.038   8.162  18.401  0.00  0.00    +0.000 A 
ATOM     22  H   UNL     1      49.393  11.171  19.641  0.00  0.00    +0.000 HD
ENDBRANCH   9  12
ENDBRANCH   7  10
ENDBRANCH   1   7
BRANCH   4  23
ATOM     23  C   UNL     1      44.917   6.471  11.352  0.00  0.00    +0.000 C 
BRANCH  23  24
ATOM     24  O   UNL     1      43.751   6.619  12.174  0.00  0.00    +0.000 OA
ATOM     25  H   UNL     1      44.045   6.612  13.101  0.00  0.00    +0.000 HD
ENDBRANCH  23  24
BRANCH  23  26
ATOM     26  C   UNL     1      45.101   4.985  10.995  0.00  0.00    +0.000 C 
BRANCH  26  27
ATOM     27  O   UNL     1      44.409   4.674   9.782  0.00  0.00    +0.000 OA
BRANCH  27  28
ATOM     28  C   UNL     1      45.173   3.850   8.981  0.00  0.00    +0.000 A 
ATOM     29  N   UNL     1      45.875   4.470   8.025  0.00  0.00    +0.000 NA
ATOM     30  C   UNL     1      46.617   3.675   7.233  0.00  0.00    +0.000 A 
ATOM     31  C   UNL     1      46.690   2.309   7.378  0.00  0.00    +0.000 A 
ATOM     32  C   UNL     1      45.946   1.782   8.405  0.00  0.00    +0.000 A 
ATOM     33  N   UNL     1      45.177   2.525   9.220  0.00  0.00    +0.000 NA
ENDBRANCH  27  28
ENDBRANCH  26  27
ENDBRANCH  23  26
ENDBRANCH   4  23
TORSDOF 8
ENDMDL
MODEL 7
REMARK VINA RESULT:    -5.909      2.819      8.206
REMARK INTER + INTRA:          -9.835
REMARK INTER:                  -9.910
REMARK INTRA:                   0.075
REMARK UNBOUND:                -1.335
REMARK  Name = 
REMARK  8 active torsions:
REMARK  status: ('A' for Active; 'I' for Inactive)
REMARK    1  A    between atoms: C_2  and  C_21
REMARK    2  A    between atoms: N_3  and  C_4
REMARK    3  A    between atoms: C_4  and  C_5
REMARK    4  A    between atoms: C_8  and  C_9
REMARK    5  A    between atoms: C_9  and  O_10
REMARK    6  A    between atoms: C_9  and  C_11
REMARK    7  A    between atoms: C_11  and  O_12
REMARK    8  A    between atoms: O_12  and  C_13
REMARK                            x       y       z     vdW  Elec       q    Type
REMARK                         _______ _______ _______ _____ _____    ______ ____
ROOT
ATOM      1  C   UNL     1      44.702   5.424  11.273  0.00  0.00    +0.000 A 
ATOM      2  C   UNL     1      44.817   5.304  12.661  0.00  0.00    +0.000 A 
ATOM      3  C   UNL     1      45.934   5.807  13.334  0.00  0.00    +0.000 A 
ATOM      4  C   UNL     1      46.960   6.468  12.641  0.00  0.00    +0.000 A 
ATOM      5  C   UNL     1      46.826   6.612  11.249  0.00  0.00    +0.000 A 
ATOM      6  C   UNL     1      45.711   6.100  10.573  0.00  0.00    +0.000 A 
ENDROOT
BRANCH   1   7
ATOM      7  C   UNL     1      43.469   4.916  10.569  0.00  0.00    +0.000 C 
BRANCH   7  10
ATOM      8  O   UNL     1      45.202   2.742  11.269  0.00  0.00    +0.000 OA
ATOM      9  C   UNL     1      44.733   2.834  10.147  0.00  0.00    +0.000 C 
ATOM     10  N   UNL     1      43.818   3.782   9.755  0.00  0.00    +0.000 N 
ATOM     11  H   UNL     1      43.641   3.893   8.769  0.00  0.00    +0.000 HD
BRANCH   9  12
ATOM     12  C   UNL     1      45.241   2.096   8.992  0.00  0.00    +0.000 A 
ATOM     13  C   UNL     1      45.006   0.746   8.811  0.00  0.00    +0.000 A 
ATOM     14  S   UNL     1      46.149   0.049   7.735  0.00  0.00    +0.000 S 
ATOM     15  C   UNL     1      46.865   1.565   7.422  0.00  0.00    +0.000 A 
ATOM     16  N   UNL     1      48.014   1.701   6.706  0.00  0.00    +0.000 NA
ATOM     17  C   UNL     1      48.387   2.928   6.533  0.00  0.00    +0.000 A 
ATOM     18  N   UNL     1      47.690   4.032   6.960  0.00  0.00    +0.000 N 
ATOM     19  C   UNL     1      46.513   3.945   7.666  0.00  0.00    +0.000 A 
ATOM     20  O   UNL     1      45.857   4.935   7.964  0.00  0.00    +0.000 OA
ATOM     21  C   UNL     1      46.143   2.585   7.999  0.00  0.00    +0.000 A 
ATOM     22  H   UNL     1      47.990   4.965   6.715  0.00  0.00    +0.000 HD
ENDBRANCH   9  12
ENDBRANCH   7  10
ENDBRANCH   1   7
BRANCH   4  23
ATOM     23  C   UNL     1      48.199   7.038  13.319  0.00  0.00    +0.000 C 
BRANCH  23  24
ATOM     24  O   UNL     1      49.347   6.332  12.829  0.00  0.00    +0.000 OA
ATOM     25  H   UNL     1      50.135   6.759  13.207  0.00  0.00    +0.000 HD
ENDBRANCH  23  24
BRANCH  23  26
ATOM     26  C   UNL     1      48.186   6.982  14.857  0.00  0.00    +0.000 C 
BRANCH  26  27
ATOM     27  O   UNL     1      49.361   6.325  15.342  0.00  0.00    +0.000 OA
BRANCH  27  28
ATOM     28  C   UNL     1      49.028   5.305  16.210  0.00  0.00    +0.000 A 
ATOM     29  N   UNL     1      47.835   4.736  15.996  0.00  0.00    +0.000 NA
ATOM     30  C   UNL     1      47.498   3.745  16.841  0.00  0.00    +0.000 A 
ATOM     31  C   UNL     1      48.309   3.304  17.862  0.00  0.00    +0.000 A 
ATOM     32  C   UNL     1      49.519   3.944  17.974  0.00  0.00    +0.000 A 
ATOM     33  N   UNL     1      49.905   4.948  17.167  0.00  0.00    +0.000 NA
ENDBRANCH  27  28
ENDBRANCH  26  27
ENDBRANCH  23  26
ENDBRANCH   4  23
TORSDOF 8
ENDMDL
MODEL 8
REMARK VINA RESULT:    -5.534      4.631      7.684
REMARK INTER + INTRA:          -9.296
REMARK INTER:                  -7.939
REMARK INTRA:                  -1.357
REMARK UNBOUND:                -1.335
REMARK  Name = 
REMARK  8 active torsions:
REMARK  status: ('A' for Active; 'I' for Inactive)
REMARK    1  A    between atoms: C_2  and  C_21
REMARK    2  A    between atoms: N_3  and  C_4
REMARK    3  A    between atoms: C_4  and  C_5
REMARK    4  A    between atoms: C_8  and  C_9
REMARK    5  A    between atoms: C_9  and  O_10
REMARK    6  A    between atoms: C_9  and  C_11
REMARK    7  A    between atoms: C_11  and  O_12
REMARK    8  A    between atoms: O_12  and  C_13
REMARK                            x       y       z     vdW  Elec       q    Type
REMARK                         _______ _______ _______ _____ _____    ______ ____
ROOT
ATOM      1  C   UNL     1      48.255   8.454  13.207  0.00  0.00    +0.000 A 
ATOM      2  C   UNL     1      48.707   9.300  14.224  0.00  0.00    +0.000 A 
ATOM      3  C   UNL     1      49.979   9.878  14.161  0.00  0.00    +0.000 A 
ATOM      4  C   UNL     1      50.826   9.648  13.067  0.00  0.00    +0.000 A 
ATOM      5  C   UNL     1      50.354   8.820  12.033  0.00  0.00    +0.000 A 
ATOM      6  C   UNL     1      49.085   8.233  12.100  0.00  0.00    +0.000 A 
ENDROOT
BRANCH   1   7
ATOM      7  C   UNL     1      46.863   7.875  13.269  0.00  0.00    +0.000 C 
BRANCH   7  10
ATOM      8  O   UNL     1      44.730   7.744  11.356  0.00  0.00    +0.000 OA
ATOM      9  C   UNL     1      45.591   6.881  11.396  0.00  0.00    +0.000 C 
ATOM     10  N   UNL     1      46.699   6.917  12.208  0.00  0.00    +0.000 N 
ATOM     11  H   UNL     1      47.243   6.073  12.307  0.00  0.00    +0.000 HD
BRANCH   9  12
ATOM     12  C   UNL     1      45.459   5.574  10.755  0.00  0.00    +0.000 A 
ATOM     13  C   UNL     1      45.704   5.378   9.409  0.00  0.00    +0.000 A 
ATOM     14  S   UNL     1      44.946   3.948   8.835  0.00  0.00    +0.000 S 
ATOM     15  C   UNL     1      44.407   3.536  10.401  0.00  0.00    +0.000 A 
ATOM     16  N   UNL     1      43.551   2.505  10.636  0.00  0.00    +0.000 NA
ATOM     17  C   UNL     1      43.285   2.314  11.887  0.00  0.00    +0.000 A 
ATOM     18  N   UNL     1      43.837   3.019  12.928  0.00  0.00    +0.000 N 
ATOM     19  C   UNL     1      44.725   4.053  12.742  0.00  0.00    +0.000 A 
ATOM     20  O   UNL     1      45.277   4.615  13.679  0.00  0.00    +0.000 OA
ATOM     21  C   UNL     1      44.934   4.385  11.348  0.00  0.00    +0.000 A 
ATOM     22  H   UNL     1      43.656   2.761  13.888  0.00  0.00    +0.000 HD
ENDBRANCH   9  12
ENDBRANCH   7  10
ENDBRANCH   1   7
BRANCH   4  23
ATOM     23  C   UNL     1      52.219  10.252  12.942  0.00  0.00    +0.000 C 
BRANCH  23  24
ATOM     24  O   UNL     1      52.254  11.064  11.760  0.00  0.00    +0.000 OA
ATOM     25  H   UNL     1      51.376  11.014  11.345  0.00  0.00    +0.000 HD
ENDBRANCH  23  24
BRANCH  23  26
ATOM     26  C   UNL     1      53.370   9.232  12.891  0.00  0.00    +0.000 C 
BRANCH  26  27
ATOM     27  O   UNL     1      54.093   9.356  11.662  0.00  0.00    +0.000 OA
BRANCH  27  28
ATOM     28  C   UNL     1      53.841   8.279  10.837  0.00  0.00    +0.000 A 
ATOM     29  N   UNL     1      53.056   8.534   9.783  0.00  0.00    +0.000 NA
ATOM     30  C   UNL     1      52.799   7.489   8.976  0.00  0.00    +0.000 A 
ATOM     31  C   UNL     1      53.307   6.227   9.178  0.00  0.00    +0.000 A 
ATOM     32  C   UNL     1      54.119   6.085  10.278  0.00  0.00    +0.000 A 
ATOM     33  N   UNL     1      54.401   7.089  11.125  0.00  0.00    +0.000 NA
ENDBRANCH  27  28
ENDBRANCH  26  27
ENDBRANCH  23  26
ENDBRANCH   4  23
TORSDOF 8
ENDMDL
MODEL 9
REMARK VINA RESULT:    -5.398      3.384      4.257
REMARK INTER + INTRA:          -9.100
REMARK INTER:                  -9.044
REMARK INTRA:                  -0.056
REMARK UNBOUND:                -1.335
REMARK  Name = 
REMARK  8 active torsions:
REMARK  status: ('A' for Active; 'I' for Inactive)
REMARK    1  A    between atoms: C_2  and  C_21
REMARK    2  A    between atoms: N_3  and  C_4
REMARK    3  A    between atoms: C_4  and  C_5
REMARK    4  A    between atoms: C_8  and  C_9
REMARK    5  A    between atoms: C_9  and  O_10
REMARK    6  A    between atoms: C_9  and  C_11
REMARK    7  A    between atoms: C_11  and  O_12
REMARK    8  A    between atoms: O_12  and  C_13
REMARK                            x       y       z     vdW  Elec       q    Type
REMARK                         _______ _______ _______ _____ _____    ______ ____
ROOT
ATOM      1  C   UNL     1      45.130   7.579  12.265  0.00  0.00    +0.000 A 
ATOM      2  C   UNL     1      45.561   7.086  11.030  0.00  0.00    +0.000 A 
ATOM      3  C   UNL     1      45.413   5.734  10.708  0.00  0.00    +0.000 A 
ATOM      4  C   UNL     1      44.805   4.838  11.602  0.00  0.00    +0.000 A 
ATOM      5  C   UNL     1      44.347   5.346  12.830  0.00  0.00    +0.000 A 
ATOM      6  C   UNL     1      44.504   6.699  13.157  0.00  0.00    +0.000 A 
ENDROOT
BRANCH   1   7
ATOM      7  C   UNL     1      45.257   9.050  12.578  0.00  0.00    +0.000 C 
BRANCH   7  10
ATOM      8  O   UNL     1      46.461  11.507  11.720  0.00  0.00    +0.000 OA
ATOM      9  C   UNL     1      47.145  10.576  12.113  0.00  0.00    +0.000 C 
ATOM     10  N   UNL     1      46.649   9.406  12.636  0.00  0.00    +0.000 N 
ATOM     11  H   UNL     1      47.284   8.632  12.750  0.00  0.00    +0.000 HD
BRANCH   9  12
ATOM     12  C   UNL     1      48.584  10.473  11.880  0.00  0.00    +0.000 A 
ATOM     13  C   UNL     1      49.330  11.515  11.364  0.00  0.00    +0.000 A 
ATOM     14  S   UNL     1      50.804  10.955  10.682  0.00  0.00    +0.000 S 
ATOM     15  C   UNL     1      50.496   9.355  11.189  0.00  0.00    +0.000 A 
ATOM     16  N   UNL     1      51.269   8.302  10.808  0.00  0.00    +0.000 NA
ATOM     17  C   UNL     1      50.912   7.170  11.322  0.00  0.00    +0.000 A 
ATOM     18  N   UNL     1      49.891   7.001  12.225  0.00  0.00    +0.000 N 
ATOM     19  C   UNL     1      49.099   8.038  12.659  0.00  0.00    +0.000 A 
ATOM     20  O   UNL     1      48.250   7.891  13.530  0.00  0.00    +0.000 OA
ATOM     21  C   UNL     1      49.381   9.293  11.994  0.00  0.00    +0.000 A 
ATOM     22  H   UNL     1      49.720   6.105  12.658  0.00  0.00    +0.000 HD
ENDBRANCH   9  12
ENDBRANCH   7  10
ENDBRANCH   1   7
BRANCH   4  23
ATOM     23  C   UNL     1      44.614   3.357  11.306  0.00  0.00    +0.000 C 
BRANCH  23  24
ATOM     24  O   UNL     1      45.716   2.637  11.876  0.00  0.00    +0.000 OA
ATOM     25  H   UNL     1      45.493   1.690  11.847  0.00  0.00    +0.000 HD
ENDBRANCH  23  24
BRANCH  23  26
ATOM     26  C   UNL     1      44.491   2.999   9.814  0.00  0.00    +0.000 C 
BRANCH  26  27
ATOM     27  O   UNL     1      45.295   1.856   9.507  0.00  0.00    +0.000 OA
BRANCH  27  28
ATOM     28  C   UNL     1      46.006   2.057   8.341  0.00  0.00    +0.000 A 
ATOM     29  N   UNL     1      45.879   3.272   7.794  0.00  0.00    +0.000 NA
ATOM     30  C   UNL     1      46.562   3.476   6.653  0.00  0.00    +0.000 A 
ATOM     31  C   UNL     1      47.364   2.525   6.065  0.00  0.00    +0.000 A 
ATOM     32  C   UNL     1      47.437   1.322   6.724  0.00  0.00    +0.000 A 
ATOM     33  N   UNL     1      46.769   1.057   7.860  0.00  0.00    +0.000 NA
ENDBRANCH  27  28
ENDBRANCH  26  27
ENDBRANCH  23  26
ENDBRANCH   4  23
TORSDOF 8
ENDMDL
