MODEL 1
REMARK VINA RESULT:    -8.436      0.000      0.000
REMARK INTER + INTRA:         -13.358
REMARK INTER:                 -12.381
REMARK INTRA:                  -0.977
REMARK UNBOUND:                -0.977
REMARK  Name = 
REMARK  9 active torsions:
REMARK  status: ('A' for Active; 'I' for Inactive)
REMARK    1  A    between atoms: C_1  and  C_2
REMARK    2  A    between atoms: C_2  and  N_3
REMARK    3  A    between atoms: C_2  and  C_25
REMARK    4  A    between atoms: N_3  and  C_4
REMARK    5  A    between atoms: C_4  and  C_5
REMARK    6  A    between atoms: C_8  and  C_9
REMARK    7  A    between atoms: C_9  and  N_10
REMARK    8  A    between atoms: C_11  and  C_13
REMARK    9  A    between atoms: C_29  and  C_30
REMARK                            x       y       z     vdW  Elec       q    Type
REMARK                         _______ _______ _______ _____ _____    ______ ____
ROOT
ATOM      1  C   UNL     1      44.443   6.151  12.047  0.00  0.00    +0.000 A 
ATOM      2  C   UNL     1      45.298   7.175  11.610  0.00  0.00    +0.000 A 
ATOM      3  C   UNL     1      46.550   7.366  12.201  0.00  0.00    +0.000 A 
ATOM      4  C   UNL     1      46.977   6.531  13.241  0.00  0.00    +0.000 A 
ATOM      5  C   UNL     1      46.104   5.540  13.712  0.00  0.00    +0.000 A 
ATOM      6  C   UNL     1      44.853   5.348  13.119  0.00  0.00    +0.000 A 
ENDROOT
BRANCH   1   7
ATOM      7  C   UNL     1      43.109   5.925  11.367  0.00  0.00    +0.000 C 
BRANCH   7   8
ATOM      8  N   UNL     1      43.232   4.896  10.337  0.00  0.00    +0.000 NA
ATOM      9  H   UNL     1      43.578   5.342   9.485  0.00  0.00    +0.000 HD
BRANCH   8  11
ATOM     10  C   UNL     1      43.410   2.520  11.134  0.00  0.00    +0.000 C 
ATOM     11  C   UNL     1      44.136   3.793  10.678  0.00  0.00    +0.000 C 
BRANCH  11  12
ATOM     12  C   UNL     1      45.007   3.473   9.466  0.00  0.00    +0.000 A 
ATOM     13  C   UNL     1      45.507   4.505   8.658  0.00  0.00    +0.000 A 
ATOM     14  C   UNL     1      46.329   4.218   7.565  0.00  0.00    +0.000 A 
ATOM     15  C   UNL     1      46.669   2.898   7.270  0.00  0.00    +0.000 A 
ATOM     16  C   UNL     1      46.178   1.855   8.059  0.00  0.00    +0.000 A 
ATOM     17  C   UNL     1      45.339   2.144   9.143  0.00  0.00    +0.000 A 
BRANCH  16  18
ATOM     18  C   UNL     1      46.553   0.497   7.779  0.00  0.00    +0.000 C 
ATOM     19  N   UNL     1      46.844  -0.600   7.539  0.00  0.00    +0.000 NA
ENDBRANCH  16  18
ENDBRANCH  11  12
ENDBRANCH   8  11
ENDBRANCH   7   8
ENDBRANCH   1   7
BRANCH   4  20
ATOM     20  C   UNL     1      48.335   6.706  13.867  0.00  0.00    +0.000 C 
BRANCH  20  21
ATOM     21  N   UNL     1      48.242   6.801  15.299  0.00  0.00    +0.000 N 
ATOM     22  C   UNL     1      49.354   6.701  16.095  0.00  0.00    +0.000 C 
ATOM     23  O   UNL     1      50.479   6.550  15.627  0.00  0.00    +0.000 OA
ATOM     24  H   UNL     1      47.319   6.697  15.710  0.00  0.00    +0.000 HD
BRANCH  22  25
ATOM     25  C   UNL     1      49.140   6.849  17.540  0.00  0.00    +0.000 A 
ATOM     26  C   UNL     1      49.145   8.113  18.113  0.00  0.00    +0.000 A 
ATOM     27  S   UNL     1      48.834   8.105  19.790  0.00  0.00    +0.000 S 
ATOM     28  C   UNL     1      48.738   6.407  19.820  0.00  0.00    +0.000 A 
ATOM     29  N   UNL     1      48.515   5.737  20.983  0.00  0.00    +0.000 NA
ATOM     30  C   UNL     1      48.495   4.453  20.865  0.00  0.00    +0.000 A 
ATOM     31  N   UNL     1      48.667   3.774  19.686  0.00  0.00    +0.000 N 
ATOM     32  C   UNL     1      48.860   4.408  18.482  0.00  0.00    +0.000 A 
ATOM     33  O   UNL     1      48.958   3.770  17.438  0.00  0.00    +0.000 OA
ATOM     34  C   UNL     1      48.912   5.854  18.562  0.00  0.00    +0.000 A 
ATOM     35  H   UNL     1      48.626   2.766  19.656  0.00  0.00    +0.000 HD
ENDBRANCH  22  25
ENDBRANCH  20  21
ENDBRANCH   4  20
TORSDOF 8
ENDMDL
MODEL 2
REMARK VINA RESULT:    -8.081      3.324      8.920
REMARK INTER + INTRA:         -12.837
REMARK INTER:                 -10.855
REMARK INTRA:                  -1.982
REMARK UNBOUND:                -0.977
REMARK  Name = 
REMARK  9 active torsions:
REMARK  status: ('A' for Active; 'I' for Inactive)
REMARK    1  A    between atoms: C_1  and  C_2
REMARK    2  A    between atoms: C_2  and  N_3
REMARK    3  A    between atoms: C_2  and  C_25
REMARK    4  A    between atoms: N_3  and  C_4
REMARK    5  A    between atoms: C_4  and  C_5
REMARK    6  A    between atoms: C_8  and  C_9
REMARK    7  A    between atoms: C_9  and  N_10
REMARK    8  A    between atoms: C_11  and  C_13
REMARK    9  A    between atoms: C_29  and  C_30
REMARK                            x       y       z     vdW  Elec       q    Type
REMARK                         _______ _______ _______ _____ _____    ______ ____
ROOT
ATOM      1  C   UNL     1      48.977   7.774  16.162  0.00  0.00    +0.000 A 
ATOM      2  C   UNL     1      48.319   8.903  15.651  0.00  0.00    +0.000 A 
ATOM      3  C   UNL     1      47.800   8.905  14.354  0.00  0.00    +0.000 A 
ATOM      4  C   UNL     1      47.922   7.772  13.540  0.00  0.00    +0.000 A 
ATOM      5  C   UNL     1      48.623   6.661  14.031  0.00  0.00    +0.000 A 
ATOM      6  C   UNL     1      49.140   6.659  15.330  0.00  0.00    +0.000 A 
ENDROOT
BRANCH   1   7
ATOM      7  C   UNL     1      49.494   7.767  17.586  0.00  0.00    +0.000 C 
BRANCH   7   8
ATOM      8  N   UNL     1      48.412   7.458  18.518  0.00  0.00    +0.000 NA
ATOM      9  H   UNL     1      47.558   7.321  17.975  0.00  0.00    +0.000 HD
BRANCH   8  11
ATOM     10  C   UNL     1      47.704   6.171  20.556  0.00  0.00    +0.000 C 
ATOM     11  C   UNL     1      48.633   6.263  19.338  0.00  0.00    +0.000 C 
BRANCH  11  12
ATOM     12  C   UNL     1      48.451   5.023  18.466  0.00  0.00    +0.000 A 
ATOM     13  C   UNL     1      47.236   4.792  17.805  0.00  0.00    +0.000 A 
ATOM     14  C   UNL     1      47.075   3.674  16.982  0.00  0.00    +0.000 A 
ATOM     15  C   UNL     1      48.128   2.778  16.802  0.00  0.00    +0.000 A 
ATOM     16  C   UNL     1      49.345   2.988  17.455  0.00  0.00    +0.000 A 
ATOM     17  C   UNL     1      49.498   4.098  18.294  0.00  0.00    +0.000 A 
BRANCH  16  18
ATOM     18  C   UNL     1      50.444   2.085  17.245  0.00  0.00    +0.000 C 
ATOM     19  N   UNL     1      51.327   1.350  17.092  0.00  0.00    +0.000 NA
ENDBRANCH  16  18
ENDBRANCH  11  12
ENDBRANCH   8  11
ENDBRANCH   7   8
ENDBRANCH   1   7
BRANCH   4  20
ATOM     20  C   UNL     1      47.341   7.750  12.151  0.00  0.00    +0.000 C 
BRANCH  20  21
ATOM     21  N   UNL     1      46.694   6.494  11.876  0.00  0.00    +0.000 N 
ATOM     22  C   UNL     1      45.330   6.399  11.780  0.00  0.00    +0.000 C 
ATOM     23  O   UNL     1      44.599   7.378  11.901  0.00  0.00    +0.000 OA
ATOM     24  H   UNL     1      47.249   5.652  11.998  0.00  0.00    +0.000 HD
BRANCH  22  25
ATOM     25  C   UNL     1      44.787   5.073  11.461  0.00  0.00    +0.000 A 
ATOM     26  C   UNL     1      44.047   4.383  12.411  0.00  0.00    +0.000 A 
ATOM     27  S   UNL     1      43.453   2.883  11.857  0.00  0.00    +0.000 S 
ATOM     28  C   UNL     1      44.212   3.077  10.348  0.00  0.00    +0.000 A 
ATOM     29  N   UNL     1      44.125   2.114   9.389  0.00  0.00    +0.000 NA
ATOM     30  C   UNL     1      44.771   2.380   8.305  0.00  0.00    +0.000 A 
ATOM     31  N   UNL     1      45.491   3.526   8.085  0.00  0.00    +0.000 N 
ATOM     32  C   UNL     1      45.578   4.540   9.008  0.00  0.00    +0.000 A 
ATOM     33  O   UNL     1      46.188   5.575   8.757  0.00  0.00    +0.000 OA
ATOM     34  C   UNL     1      44.886   4.283  10.255  0.00  0.00    +0.000 A 
ATOM     35  H   UNL     1      45.964   3.681   7.207  0.00  0.00    +0.000 HD
ENDBRANCH  22  25
ENDBRANCH  20  21
ENDBRANCH   4  20
TORSDOF 8
ENDMDL
MODEL 3
REMARK VINA RESULT:    -7.888      3.456      8.425
REMARK INTER + INTRA:         -12.554
REMARK INTER:                 -10.612
REMARK INTRA:                  -1.942
REMARK UNBOUND:                -0.977
REMARK  Name = 
REMARK  9 active torsions:
REMARK  status: ('A' for Active; 'I' for Inactive)
REMARK    1  A    between atoms: C_1  and  C_2
REMARK    2  A    between atoms: C_2  and  N_3
REMARK    3  A    between atoms: C_2  and  C_25
REMARK    4  A    between atoms: N_3  and  C_4
REMARK    5  A    between atoms: C_4  and  C_5
REMARK    6  A    between atoms: C_8  and  C_9
REMARK    7  A    between atoms: C_9  and  N_10
REMARK    8  A    between atoms: C_11  and  C_13
REMARK    9  A    between atoms: C_29  and  C_30
REMARK                            x       y       z     vdW  Elec       q    Type
REMARK                         _______ _______ _______ _____ _____    ______ ____
ROOT
ATOM      1  C   UNL     1      48.892   7.952  16.193  0.00  0.00    +0.000 A 
ATOM      2  C   UNL     1      49.239   6.879  15.358  0.00  0.00    +0.000 A 
ATOM      3  C   UNL     1      49.027   6.946  13.978  0.00  0.00    +0.000 A 
ATOM      4  C   UNL     1      48.465   8.091  13.402  0.00  0.00    +0.000 A 
ATOM      5  C   UNL     1      48.071   9.144  14.240  0.00  0.00    +0.000 A 
ATOM      6  C   UNL     1      48.287   9.078  15.620  0.00  0.00    +0.000 A 
ENDROOT
BRANCH   1   7
ATOM      7  C   UNL     1      49.171   7.887  17.680  0.00  0.00    +0.000 C 
BRANCH   7   8
ATOM      8  N   UNL     1      48.019   7.334  18.389  0.00  0.00    +0.000 NA
ATOM      9  H   UNL     1      47.315   7.077  17.695  0.00  0.00    +0.000 HD
BRANCH   8  11
ATOM     10  C   UNL     1      47.355   5.967  20.389  0.00  0.00    +0.000 C 
ATOM     11  C   UNL     1      48.314   6.151  19.205  0.00  0.00    +0.000 C 
BRANCH  11  12
ATOM     12  C   UNL     1      48.267   4.912  18.316  0.00  0.00    +0.000 A 
ATOM     13  C   UNL     1      47.133   4.639  17.537  0.00  0.00    +0.000 A 
ATOM     14  C   UNL     1      47.098   3.521  16.699  0.00  0.00    +0.000 A 
ATOM     15  C   UNL     1      48.198   2.667  16.622  0.00  0.00    +0.000 A 
ATOM     16  C   UNL     1      49.335   2.919  17.393  0.00  0.00    +0.000 A 
ATOM     17  C   UNL     1      49.361   4.029  18.246  0.00  0.00    +0.000 A 
BRANCH  16  18
ATOM     18  C   UNL     1      50.483   2.060  17.291  0.00  0.00    +0.000 C 
ATOM     19  N   UNL     1      51.399   1.356  17.200  0.00  0.00    +0.000 NA
ENDBRANCH  16  18
ENDBRANCH  11  12
ENDBRANCH   8  11
ENDBRANCH   7   8
ENDBRANCH   1   7
BRANCH   4  20
ATOM     20  C   UNL     1      48.258   8.188  11.914  0.00  0.00    +0.000 C 
BRANCH  20  21
ATOM     21  N   UNL     1      47.567   7.033  11.406  0.00  0.00    +0.000 N 
ATOM     22  C   UNL     1      46.198   6.984  11.359  0.00  0.00    +0.000 C 
ATOM     23  O   UNL     1      45.499   7.926  11.723  0.00  0.00    +0.000 OA
ATOM     24  H   UNL     1      48.104   6.176  11.316  0.00  0.00    +0.000 HD
BRANCH  22  25
ATOM     25  C   UNL     1      45.606   5.768  10.787  0.00  0.00    +0.000 A 
ATOM     26  C   UNL     1      45.754   5.498   9.434  0.00  0.00    +0.000 A 
ATOM     27  S   UNL     1      45.046   4.024   8.950  0.00  0.00    +0.000 S 
ATOM     28  C   UNL     1      44.468   3.721  10.520  0.00  0.00    +0.000 A 
ATOM     29  N   UNL     1      43.734   2.609  10.796  0.00  0.00    +0.000 NA
ATOM     30  C   UNL     1      43.336   2.521  12.020  0.00  0.00    +0.000 A 
ATOM     31  N   UNL     1      43.613   3.440  12.999  0.00  0.00    +0.000 N 
ATOM     32  C   UNL     1      44.378   4.560  12.777  0.00  0.00    +0.000 A 
ATOM     33  O   UNL     1      44.649   5.334  13.689  0.00  0.00    +0.000 OA
ATOM     34  C   UNL     1      44.834   4.717  11.410  0.00  0.00    +0.000 A 
ATOM     35  H   UNL     1      43.284   3.307  13.944  0.00  0.00    +0.000 HD
ENDBRANCH  22  25
ENDBRANCH  20  21
ENDBRANCH   4  20
TORSDOF 8
ENDMDL
MODEL 4
REMARK VINA RESULT:    -7.353      4.775      6.474
REMARK INTER + INTRA:         -11.769
REMARK INTER:                 -10.313
REMARK INTRA:                  -1.456
REMARK UNBOUND:                -0.977
REMARK  Name = 
REMARK  9 active torsions:
REMARK  status: ('A' for Active; 'I' for Inactive)
REMARK    1  A    between atoms: C_1  and  C_2
REMARK    2  A    between atoms: C_2  and  N_3
REMARK    3  A    between atoms: C_2  and  C_25
REMARK    4  A    between atoms: N_3  and  C_4
REMARK    5  A    between atoms: C_4  and  C_5
REMARK    6  A    between atoms: C_8  and  C_9
REMARK    7  A    between atoms: C_9  and  N_10
REMARK    8  A    between atoms: C_11  and  C_13
REMARK    9  A    between atoms: C_29  and  C_30
REMARK                            x       y       z     vdW  Elec       q    Type
REMARK                         _______ _______ _______ _____ _____    ______ ____
ROOT
ATOM      1  C   UNL     1      46.228   5.829  12.921  0.00  0.00    +0.000 A 
ATOM      2  C   UNL     1      45.969   6.845  11.988  0.00  0.00    +0.000 A 
ATOM      3  C   UNL     1      46.980   7.719  11.580  0.00  0.00    +0.000 A 
ATOM      4  C   UNL     1      48.276   7.593  12.094  0.00  0.00    +0.000 A 
ATOM      5  C   UNL     1      48.525   6.610  13.063  0.00  0.00    +0.000 A 
ATOM      6  C   UNL     1      47.514   5.734  13.469  0.00  0.00    +0.000 A 
ENDROOT
BRANCH   1   7
ATOM      7  C   UNL     1      45.137   4.858  13.320  0.00  0.00    +0.000 C 
BRANCH   7   8
ATOM      8  N   UNL     1      45.249   3.622  12.548  0.00  0.00    +0.000 NA
ATOM      9  H   UNL     1      45.202   2.837  13.201  0.00  0.00    +0.000 HD
BRANCH   8  11
ATOM     10  C   UNL     1      43.157   4.556  11.518  0.00  0.00    +0.000 C 
ATOM     11  C   UNL     1      44.208   3.438  11.532  0.00  0.00    +0.000 C 
BRANCH  11  12
ATOM     12  C   UNL     1      44.867   3.343  10.159  0.00  0.00    +0.000 A 
ATOM     13  C   UNL     1      45.081   4.498   9.392  0.00  0.00    +0.000 A 
ATOM     14  C   UNL     1      45.712   4.419   8.148  0.00  0.00    +0.000 A 
ATOM     15  C   UNL     1      46.144   3.187   7.657  0.00  0.00    +0.000 A 
ATOM     16  C   UNL     1      45.936   2.024   8.403  0.00  0.00    +0.000 A 
ATOM     17  C   UNL     1      45.288   2.103   9.641  0.00  0.00    +0.000 A 
BRANCH  16  18
ATOM     18  C   UNL     1      46.410   0.758   7.916  0.00  0.00    +0.000 C 
ATOM     19  N   UNL     1      46.795  -0.256   7.506  0.00  0.00    +0.000 NA
ENDBRANCH  16  18
ENDBRANCH  11  12
ENDBRANCH   8  11
ENDBRANCH   7   8
ENDBRANCH   1   7
BRANCH   4  20
ATOM     20  C   UNL     1      49.382   8.509  11.640  0.00  0.00    +0.000 C 
BRANCH  20  21
ATOM     21  N   UNL     1      50.648   7.825  11.611  0.00  0.00    +0.000 N 
ATOM     22  C   UNL     1      51.738   8.368  10.983  0.00  0.00    +0.000 C 
ATOM     23  O   UNL     1      51.695   9.468  10.438  0.00  0.00    +0.000 OA
ATOM     24  H   UNL     1      50.645   6.837  11.848  0.00  0.00    +0.000 HD
BRANCH  22  25
ATOM     25  C   UNL     1      52.984   7.595  11.049  0.00  0.00    +0.000 A 
ATOM     26  C   UNL     1      53.781   7.665  12.184  0.00  0.00    +0.000 A 
ATOM     27  S   UNL     1      55.163   6.669  12.111  0.00  0.00    +0.000 S 
ATOM     28  C   UNL     1      54.776   6.151  10.538  0.00  0.00    +0.000 A 
ATOM     29  N   UNL     1      55.584   5.289   9.863  0.00  0.00    +0.000 NA
ATOM     30  C   UNL     1      55.184   5.004   8.670  0.00  0.00    +0.000 A 
ATOM     31  N   UNL     1      54.043   5.494   8.091  0.00  0.00    +0.000 N 
ATOM     32  C   UNL     1      53.178   6.339   8.745  0.00  0.00    +0.000 A 
ATOM     33  O   UNL     1      52.139   6.717   8.214  0.00  0.00    +0.000 OA
ATOM     34  C   UNL     1      53.592   6.708  10.084  0.00  0.00    +0.000 A 
ATOM     35  H   UNL     1      53.776   5.221   7.157  0.00  0.00    +0.000 HD
ENDBRANCH  22  25
ENDBRANCH  20  21
ENDBRANCH   4  20
TORSDOF 8
ENDMDL
MODEL 5
REMARK VINA RESULT:    -7.325      3.357      8.723
REMARK INTER + INTRA:         -11.727
REMARK INTER:                  -9.680
REMARK INTRA:                  -2.047
REMARK UNBOUND:                -0.977
REMARK  Name = 
REMARK  9 active torsions:
REMARK  status: ('A' for Active; 'I' for Inactive)
REMARK    1  A    between atoms: C_1  and  C_2
REMARK    2  A    between atoms: C_2  and  N_3
REMARK    3  A    between atoms: C_2  and  C_25
REMARK    4  A    between atoms: N_3  and  C_4
REMARK    5  A    between atoms: C_4  and  C_5
REMARK    6  A    between atoms: C_8  and  C_9
REMARK    7  A    between atoms: C_9  and  N_10
REMARK    8  A    between atoms: C_11  and  C_13
REMARK    9  A    between atoms: C_29  and  C_30
REMARK                            x       y       z     vdW  Elec       q    Type
REMARK                         _______ _______ _______ _____ _____    ______ ____
ROOT
ATOM      1  C   UNL     1      49.589   9.183  15.554  0.00  0.00    +0.000 A 
ATOM      2  C   UNL     1      50.450   8.956  14.469  0.00  0.00    +0.000 A 
ATOM      3  C   UNL     1      49.944   8.611  13.213  0.00  0.00    +0.000 A 
ATOM      4  C   UNL     1      48.564   8.491  13.012  0.00  0.00    +0.000 A 
ATOM      5  C   UNL     1      47.706   8.668  14.107  0.00  0.00    +0.000 A 
ATOM      6  C   UNL     1      48.212   9.016  15.363  0.00  0.00    +0.000 A 
ENDROOT
BRANCH   1   7
ATOM      7  C   UNL     1      50.146   9.603  16.898  0.00  0.00    +0.000 C 
BRANCH   7   8
ATOM      8  N   UNL     1      49.814   8.610  17.918  0.00  0.00    +0.000 NA
ATOM      9  H   UNL     1      48.796   8.534  17.964  0.00  0.00    +0.000 HD
BRANCH   8  11
ATOM     10  C   UNL     1      51.416   6.844  18.706  0.00  0.00    +0.000 C 
ATOM     11  C   UNL     1      50.364   7.273  17.675  0.00  0.00    +0.000 C 
BRANCH  11  12
ATOM     12  C   UNL     1      49.222   6.262  17.663  0.00  0.00    +0.000 A 
ATOM     13  C   UNL     1      48.436   6.064  18.808  0.00  0.00    +0.000 A 
ATOM     14  C   UNL     1      47.370   5.160  18.792  0.00  0.00    +0.000 A 
ATOM     15  C   UNL     1      47.071   4.449  17.631  0.00  0.00    +0.000 A 
ATOM     16  C   UNL     1      47.844   4.628  16.480  0.00  0.00    +0.000 A 
ATOM     17  C   UNL     1      48.922   5.520  16.504  0.00  0.00    +0.000 A 
BRANCH  16  18
ATOM     18  C   UNL     1      47.517   3.923  15.272  0.00  0.00    +0.000 C 
ATOM     19  N   UNL     1      47.260   3.368  14.287  0.00  0.00    +0.000 NA
ENDBRANCH  16  18
ENDBRANCH  11  12
ENDBRANCH   8  11
ENDBRANCH   7   8
ENDBRANCH   1   7
BRANCH   4  20
ATOM     20  C   UNL     1      48.004   8.149  11.657  0.00  0.00    +0.000 C 
BRANCH  20  21
ATOM     21  N   UNL     1      47.207   6.952  11.708  0.00  0.00    +0.000 N 
ATOM     22  C   UNL     1      45.837   7.005  11.677  0.00  0.00    +0.000 C 
ATOM     23  O   UNL     1      45.228   8.067  11.583  0.00  0.00    +0.000 OA
ATOM     24  H   UNL     1      47.670   6.101  12.010  0.00  0.00    +0.000 HD
BRANCH  22  25
ATOM     25  C   UNL     1      45.132   5.718  11.698  0.00  0.00    +0.000 A 
ATOM     26  C   UNL     1      44.472   5.311  12.849  0.00  0.00    +0.000 A 
ATOM     27  S   UNL     1      43.668   3.816  12.684  0.00  0.00    +0.000 S 
ATOM     28  C   UNL     1      44.220   3.632  11.086  0.00  0.00    +0.000 A 
ATOM     29  N   UNL     1      43.908   2.525  10.358  0.00  0.00    +0.000 NA
ATOM     30  C   UNL     1      44.416   2.505   9.173  0.00  0.00    +0.000 A 
ATOM     31  N   UNL     1      45.202   3.495   8.642  0.00  0.00    +0.000 N 
ATOM     32  C   UNL     1      45.515   4.646   9.326  0.00  0.00    +0.000 A 
ATOM     33  O   UNL     1      46.177   5.535   8.801  0.00  0.00    +0.000 OA
ATOM     34  C   UNL     1      44.984   4.711  10.673  0.00  0.00    +0.000 A 
ATOM     35  H   UNL     1      45.559   3.426   7.701  0.00  0.00    +0.000 HD
ENDBRANCH  22  25
ENDBRANCH  20  21
ENDBRANCH   4  20
TORSDOF 8
ENDMDL
MODEL 6
REMARK VINA RESULT:    -7.235      3.818      5.353
REMARK INTER + INTRA:         -11.595
REMARK INTER:                 -10.521
REMARK INTRA:                  -1.074
REMARK UNBOUND:                -0.977
REMARK  Name = 
REMARK  9 active torsions:
REMARK  status: ('A' for Active; 'I' for Inactive)
REMARK    1  A    between atoms: C_1  and  C_2
REMARK    2  A    between atoms: C_2  and  N_3
REMARK    3  A    between atoms: C_2  and  C_25
REMARK    4  A    between atoms: N_3  and  C_4
REMARK    5  A    between atoms: C_4  and  C_5
REMARK    6  A    between atoms: C_8  and  C_9
REMARK    7  A    between atoms: C_9  and  N_10
REMARK    8  A    between atoms: C_11  and  C_13
REMARK    9  A    between atoms: C_29  and  C_30
REMARK                            x       y       z     vdW  Elec       q    Type
REMARK                         _______ _______ _______ _____ _____    ______ ____
ROOT
ATOM      1  C   UNL     1      44.799   6.188  11.925  0.00  0.00    +0.000 A 
ATOM      2  C   UNL     1      45.076   5.494  13.113  0.00  0.00    +0.000 A 
ATOM      3  C   UNL     1      46.320   5.612  13.738  0.00  0.00    +0.000 A 
ATOM      4  C   UNL     1      47.315   6.431  13.190  0.00  0.00    +0.000 A 
ATOM      5  C   UNL     1      47.057   7.085  11.977  0.00  0.00    +0.000 A 
ATOM      6  C   UNL     1      45.811   6.969  11.353  0.00  0.00    +0.000 A 
ENDROOT
BRANCH   1   7
ATOM      7  C   UNL     1      43.431   6.090  11.282  0.00  0.00    +0.000 C 
BRANCH   7   8
ATOM      8  N   UNL     1      43.409   5.010  10.297  0.00  0.00    +0.000 NA
ATOM      9  H   UNL     1      43.728   5.390   9.405  0.00  0.00    +0.000 HD
BRANCH   8  11
ATOM     10  C   UNL     1      43.454   2.629  11.098  0.00  0.00    +0.000 C 
ATOM     11  C   UNL     1      44.250   3.857  10.633  0.00  0.00    +0.000 C 
BRANCH  11  12
ATOM     12  C   UNL     1      45.091   3.485   9.415  0.00  0.00    +0.000 A 
ATOM     13  C   UNL     1      45.595   4.483   8.569  0.00  0.00    +0.000 A 
ATOM     14  C   UNL     1      46.391   4.149   7.470  0.00  0.00    +0.000 A 
ATOM     15  C   UNL     1      46.699   2.815   7.207  0.00  0.00    +0.000 A 
ATOM     16  C   UNL     1      46.202   1.805   8.035  0.00  0.00    +0.000 A 
ATOM     17  C   UNL     1      45.390   2.141   9.125  0.00  0.00    +0.000 A 
BRANCH  16  18
ATOM     18  C   UNL     1      46.546   0.431   7.787  0.00  0.00    +0.000 C 
ATOM     19  N   UNL     1      46.836  -0.675   7.600  0.00  0.00    +0.000 NA
ENDBRANCH  16  18
ENDBRANCH  11  12
ENDBRANCH   8  11
ENDBRANCH   7   8
ENDBRANCH   1   7
BRANCH   4  20
ATOM     20  C   UNL     1      48.649   6.591  13.869  0.00  0.00    +0.000 C 
BRANCH  20  21
ATOM     21  N   UNL     1      49.583   7.291  13.028  0.00  0.00    +0.000 N 
ATOM     22  C   UNL     1      49.774   8.643  13.146  0.00  0.00    +0.000 C 
ATOM     23  O   UNL     1      49.179   9.315  13.985  0.00  0.00    +0.000 OA
ATOM     24  H   UNL     1      49.907   6.808  12.196  0.00  0.00    +0.000 HD
BRANCH  22  25
ATOM     25  C   UNL     1      50.778   9.242  12.259  0.00  0.00    +0.000 A 
ATOM     26  C   UNL     1      50.373   9.983  11.157  0.00  0.00    +0.000 A 
ATOM     27  S   UNL     1      51.666  10.644  10.264  0.00  0.00    +0.000 S 
ATOM     28  C   UNL     1      52.816   9.917  11.285  0.00  0.00    +0.000 A 
ATOM     29  N   UNL     1      54.150  10.063  11.056  0.00  0.00    +0.000 NA
ATOM     30  C   UNL     1      54.907   9.435  11.891  0.00  0.00    +0.000 A 
ATOM     31  N   UNL     1      54.453   8.681  12.942  0.00  0.00    +0.000 N 
ATOM     32  C   UNL     1      53.118   8.533  13.233  0.00  0.00    +0.000 A 
ATOM     33  O   UNL     1      52.749   7.893  14.212  0.00  0.00    +0.000 OA
ATOM     34  C   UNL     1      52.222   9.203  12.312  0.00  0.00    +0.000 A 
ATOM     35  H   UNL     1      55.098   8.224  13.570  0.00  0.00    +0.000 HD
ENDBRANCH  22  25
ENDBRANCH  20  21
ENDBRANCH   4  20
TORSDOF 8
ENDMDL
MODEL 7
REMARK VINA RESULT:    -6.995      3.587      8.531
REMARK INTER + INTRA:         -11.243
REMARK INTER:                  -9.048
REMARK INTRA:                  -2.194
REMARK UNBOUND:                -0.977
REMARK  Name = 
REMARK  9 active torsions:
REMARK  status: ('A' for Active; 'I' for Inactive)
REMARK    1  A    between atoms: C_1  and  C_2
REMARK    2  A    between atoms: C_2  and  N_3
REMARK    3  A    between atoms: C_2  and  C_25
REMARK    4  A    between atoms: N_3  and  C_4
REMARK    5  A    between atoms: C_4  and  C_5
REMARK    6  A    between atoms: C_8  and  C_9
REMARK    7  A    between atoms: C_9  and  N_10
REMARK    8  A    between atoms: C_11  and  C_13
REMARK    9  A    between atoms: C_29  and  C_30
REMARK                            x       y       z     vdW  Elec       q    Type
REMARK                         _______ _______ _______ _____ _____    ______ ____
ROOT
ATOM      1  C   UNL     1      50.539   7.853  18.406  0.00  0.00    +0.000 A 
ATOM      2  C   UNL     1      49.166   7.594  18.273  0.00  0.00    +0.000 A 
ATOM      3  C   UNL     1      48.446   8.084  17.181  0.00  0.00    +0.000 A 
ATOM      4  C   UNL     1      49.086   8.841  16.192  0.00  0.00    +0.000 A 
ATOM      5  C   UNL     1      50.446   9.144  16.349  0.00  0.00    +0.000 A 
ATOM      6  C   UNL     1      51.166   8.651  17.441  0.00  0.00    +0.000 A 
ENDROOT
BRANCH   1   7
ATOM      7  C   UNL     1      51.318   7.277  19.570  0.00  0.00    +0.000 C 
BRANCH   7   8
ATOM      8  N   UNL     1      51.029   5.852  19.719  0.00  0.00    +0.000 NA
ATOM      9  H   UNL     1      50.089   5.682  19.357  0.00  0.00    +0.000 HD
BRANCH   8  11
ATOM     10  C   UNL     1      52.945   4.244  19.951  0.00  0.00    +0.000 C 
ATOM     11  C   UNL     1      51.960   4.962  19.018  0.00  0.00    +0.000 C 
BRANCH  11  12
ATOM     12  C   UNL     1      51.160   3.928  18.232  0.00  0.00    +0.000 A 
ATOM     13  C   UNL     1      51.781   2.769  17.745  0.00  0.00    +0.000 A 
ATOM     14  C   UNL     1      51.045   1.805  17.051  0.00  0.00    +0.000 A 
ATOM     15  C   UNL     1      49.678   1.983  16.841  0.00  0.00    +0.000 A 
ATOM     16  C   UNL     1      49.041   3.133  17.313  0.00  0.00    +0.000 A 
ATOM     17  C   UNL     1      49.784   4.106  17.992  0.00  0.00    +0.000 A 
BRANCH  16  18
ATOM     18  C   UNL     1      47.626   3.305  17.128  0.00  0.00    +0.000 C 
ATOM     19  N   UNL     1      46.483   3.424  16.981  0.00  0.00    +0.000 NA
ENDBRANCH  16  18
ENDBRANCH  11  12
ENDBRANCH   8  11
ENDBRANCH   7   8
ENDBRANCH   1   7
BRANCH   4  20
ATOM     20  C   UNL     1      48.329   9.350  14.994  0.00  0.00    +0.000 C 
BRANCH  20  21
ATOM     21  N   UNL     1      47.444   8.344  14.469  0.00  0.00    +0.000 N 
ATOM     22  C   UNL     1      46.958   8.417  13.189  0.00  0.00    +0.000 C 
ATOM     23  O   UNL     1      47.270   9.327  12.426  0.00  0.00    +0.000 OA
ATOM     24  H   UNL     1      47.001   7.722  15.140  0.00  0.00    +0.000 HD
BRANCH  22  25
ATOM     25  C   UNL     1      46.093   7.315  12.753  0.00  0.00    +0.000 A 
ATOM     26  C   UNL     1      44.951   7.585  12.013  0.00  0.00    +0.000 A 
ATOM     27  S   UNL     1      44.089   6.188  11.551  0.00  0.00    +0.000 S 
ATOM     28  C   UNL     1      45.181   5.175  12.371  0.00  0.00    +0.000 A 
ATOM     29  N   UNL     1      45.004   3.826  12.398  0.00  0.00    +0.000 NA
ATOM     30  C   UNL     1      45.891   3.184  13.080  0.00  0.00    +0.000 A 
ATOM     31  N   UNL     1      46.947   3.766  13.731  0.00  0.00    +0.000 N 
ATOM     32  C   UNL     1      47.187   5.118  13.704  0.00  0.00    +0.000 A 
ATOM     33  O   UNL     1      48.172   5.599  14.255  0.00  0.00    +0.000 OA
ATOM     34  C   UNL     1      46.207   5.890  12.966  0.00  0.00    +0.000 A 
ATOM     35  H   UNL     1      47.617   3.205  14.238  0.00  0.00    +0.000 HD
ENDBRANCH  22  25
ENDBRANCH  20  21
ENDBRANCH   4  20
TORSDOF 8
ENDMDL
MODEL 8
REMARK VINA RESULT:    -6.970      3.316      9.040
REMARK INTER + INTRA:         -11.206
REMARK INTER:                  -9.668
REMARK INTRA:                  -1.538
REMARK UNBOUND:                -0.977
REMARK  Name = 
REMARK  9 active torsions:
REMARK  status: ('A' for Active; 'I' for Inactive)
REMARK    1  A    between atoms: C_1  and  C_2
REMARK    2  A    between atoms: C_2  and  N_3
REMARK    3  A    between atoms: C_2  and  C_25
REMARK    4  A    between atoms: N_3  and  C_4
REMARK    5  A    between atoms: C_4  and  C_5
REMARK    6  A    between atoms: C_8  and  C_9
REMARK    7  A    between atoms: C_9  and  N_10
REMARK    8  A    between atoms: C_11  and  C_13
REMARK    9  A    between atoms: C_29  and  C_30
REMARK                            x       y       z     vdW  Elec       q    Type
REMARK                         _______ _______ _______ _____ _____    ______ ____
ROOT
ATOM      1  C   UNL     1      50.526   7.995  16.293  0.00  0.00    +0.000 A 
ATOM      2  C   UNL     1      49.251   7.429  16.144  0.00  0.00    +0.000 A 
ATOM      3  C   UNL     1      48.651   7.333  14.886  0.00  0.00    +0.000 A 
ATOM      4  C   UNL     1      49.318   7.796  13.745  0.00  0.00    +0.000 A 
ATOM      5  C   UNL     1      50.571   8.407  13.898  0.00  0.00    +0.000 A 
ATOM      6  C   UNL     1      51.172   8.501  15.157  0.00  0.00    +0.000 A 
ENDROOT
BRANCH   1   7
ATOM      7  C   UNL     1      51.185   8.050  17.655  0.00  0.00    +0.000 C 
BRANCH   7   8
ATOM      8  N   UNL     1      51.183   6.727  18.275  0.00  0.00    +0.000 NA
ATOM      9  H   UNL     1      50.226   6.370  18.252  0.00  0.00    +0.000 HD
BRANCH   8  11
ATOM     10  C   UNL     1      53.378   5.510  18.370  0.00  0.00    +0.000 C 
ATOM     11  C   UNL     1      52.057   5.745  17.626  0.00  0.00    +0.000 C 
BRANCH  11  12
ATOM     12  C   UNL     1      51.305   4.423  17.496  0.00  0.00    +0.000 A 
ATOM     13  C   UNL     1      52.002   3.206  17.501  0.00  0.00    +0.000 A 
ATOM     14  C   UNL     1      51.315   1.992  17.413  0.00  0.00    +0.000 A 
ATOM     15  C   UNL     1      49.924   1.978  17.326  0.00  0.00    +0.000 A 
ATOM     16  C   UNL     1      49.211   3.180  17.314  0.00  0.00    +0.000 A 
ATOM     17  C   UNL     1      49.902   4.395  17.384  0.00  0.00    +0.000 A 
BRANCH  16  18
ATOM     18  C   UNL     1      47.775   3.169  17.259  0.00  0.00    +0.000 C 
ATOM     19  N   UNL     1      46.616   3.164  17.232  0.00  0.00    +0.000 NA
ENDBRANCH  16  18
ENDBRANCH  11  12
ENDBRANCH   8  11
ENDBRANCH   7   8
ENDBRANCH   1   7
BRANCH   4  20
ATOM     20  C   UNL     1      48.697   7.672  12.379  0.00  0.00    +0.000 C 
BRANCH  20  21
ATOM     21  N   UNL     1      47.742   6.596  12.336  0.00  0.00    +0.000 N 
ATOM     22  C   UNL     1      46.423   6.823  12.040  0.00  0.00    +0.000 C 
ATOM     23  O   UNL     1      45.998   7.945  11.778  0.00  0.00    +0.000 OA
ATOM     24  H   UNL     1      48.017   5.717  12.764  0.00  0.00    +0.000 HD
BRANCH  22  25
ATOM     25  C   UNL     1      45.551   5.643  11.990  0.00  0.00    +0.000 A 
ATOM     26  C   UNL     1      44.949   5.180  13.152  0.00  0.00    +0.000 A 
ATOM     27  S   UNL     1      43.934   3.832  12.905  0.00  0.00    +0.000 S 
ATOM     28  C   UNL     1      44.306   3.785  11.246  0.00  0.00    +0.000 A 
ATOM     29  N   UNL     1      43.778   2.829  10.434  0.00  0.00    +0.000 NA
ATOM     30  C   UNL     1      44.168   2.895   9.207  0.00  0.00    +0.000 A 
ATOM     31  N   UNL     1      45.031   3.838   8.711  0.00  0.00    +0.000 N 
ATOM     32  C   UNL     1      45.562   4.843   9.484  0.00  0.00    +0.000 A 
ATOM     33  O   UNL     1      46.291   5.700   8.995  0.00  0.00    +0.000 OA
ATOM     34  C   UNL     1      45.171   4.802  10.879  0.00  0.00    +0.000 A 
ATOM     35  H   UNL     1      45.287   3.845   7.735  0.00  0.00    +0.000 HD
ENDBRANCH  22  25
ENDBRANCH  20  21
ENDBRANCH   4  20
TORSDOF 8
ENDMDL
MODEL 9
REMARK VINA RESULT:    -6.832      4.011      9.311
REMARK INTER + INTRA:         -11.004
REMARK INTER:                  -8.859
REMARK INTRA:                  -2.145
REMARK UNBOUND:                -0.977
REMARK  Name = 
REMARK  9 active torsions:
REMARK  status: ('A' for Active; 'I' for Inactive)
REMARK    1  A    between atoms: C_1  and  C_2
REMARK    2  A    between atoms: C_2  and  N_3
REMARK    3  A    between atoms: C_2  and  C_25
REMARK    4  A    between atoms: N_3  and  C_4
REMARK    5  A    between atoms: C_4  and  C_5
REMARK    6  A    between atoms: C_8  and  C_9
REMARK    7  A    between atoms: C_9  and  N_10
REMARK    8  A    between atoms: C_11  and  C_13
REMARK    9  A    between atoms: C_29  and  C_30
REMARK                            x       y       z     vdW  Elec       q    Type
REMARK                         _______ _______ _______ _____ _____    ______ ____
ROOT
ATOM      1  C   UNL     1      50.466   8.829  11.799  0.00  0.00    +0.000 A 
ATOM      2  C   UNL     1      49.596   9.929  11.755  0.00  0.00    +0.000 A 
ATOM      3  C   UNL     1      48.214   9.754  11.860  0.00  0.00    +0.000 A 
ATOM      4  C   UNL     1      47.671   8.474  12.019  0.00  0.00    +0.000 A 
ATOM      5  C   UNL     1      48.535   7.369  12.014  0.00  0.00    +0.000 A 
ATOM      6  C   UNL     1      49.918   7.545  11.910  0.00  0.00    +0.000 A 
ENDROOT
BRANCH   1   7
ATOM      7  C   UNL     1      51.965   9.035  11.731  0.00  0.00    +0.000 C 
BRANCH   7   8
ATOM      8  N   UNL     1      52.406   9.921  12.807  0.00  0.00    +0.000 NA
ATOM      9  H   UNL     1      51.664  10.602  12.978  0.00  0.00    +0.000 HD
BRANCH   8  11
ATOM     10  C   UNL     1      53.713  10.003  14.950  0.00  0.00    +0.000 C 
ATOM     11  C   UNL     1      52.709   9.244  14.072  0.00  0.00    +0.000 C 
BRANCH  11  12
ATOM     12  C   UNL     1      51.411   9.037  14.847  0.00  0.00    +0.000 A 
ATOM     13  C   UNL     1      50.602  10.133  15.183  0.00  0.00    +0.000 A 
ATOM     14  C   UNL     1      49.398   9.944  15.867  0.00  0.00    +0.000 A 
ATOM     15  C   UNL     1      48.982   8.660  16.215  0.00  0.00    +0.000 A 
ATOM     16  C   UNL     1      49.776   7.556  15.894  0.00  0.00    +0.000 A 
ATOM     17  C   UNL     1      50.991   7.748  15.226  0.00  0.00    +0.000 A 
BRANCH  16  18
ATOM     18  C   UNL     1      49.335   6.228  16.222  0.00  0.00    +0.000 C 
ATOM     19  N   UNL     1      48.962   5.163  16.487  0.00  0.00    +0.000 NA
ENDBRANCH  16  18
ENDBRANCH  11  12
ENDBRANCH   8  11
ENDBRANCH   7   8
ENDBRANCH   1   7
BRANCH   4  20
ATOM     20  C   UNL     1      46.186   8.274  12.164  0.00  0.00    +0.000 C 
BRANCH  20  21
ATOM     21  N   UNL     1      45.819   6.900  11.942  0.00  0.00    +0.000 N 
ATOM     22  C   UNL     1      44.601   6.564  11.411  0.00  0.00    +0.000 C 
ATOM     23  O   UNL     1      43.777   7.413  11.080  0.00  0.00    +0.000 OA
ATOM     24  H   UNL     1      46.377   6.192  12.409  0.00  0.00    +0.000 HD
BRANCH  22  25
ATOM     25  C   UNL     1      44.353   5.133  11.196  0.00  0.00    +0.000 A 
ATOM     26  C   UNL     1      43.596   4.418  12.114  0.00  0.00    +0.000 A 
ATOM     27  S   UNL     1      43.368   2.783  11.686  0.00  0.00    +0.000 S 
ATOM     28  C   UNL     1      44.320   2.958  10.288  0.00  0.00    +0.000 A 
ATOM     29  N   UNL     1      44.559   1.901   9.464  0.00  0.00    +0.000 NA
ATOM     30  C   UNL     1      45.320   2.170   8.458  0.00  0.00    +0.000 A 
ATOM     31  N   UNL     1      45.858   3.403   8.192  0.00  0.00    +0.000 N 
ATOM     32  C   UNL     1      45.617   4.506   8.975  0.00  0.00    +0.000 A 
ATOM     33  O   UNL     1      46.073   5.605   8.678  0.00  0.00    +0.000 OA
ATOM     34  C   UNL     1      44.783   4.254  10.133  0.00  0.00    +0.000 A 
ATOM     35  H   UNL     1      46.436   3.552   7.378  0.00  0.00    +0.000 HD
ENDBRANCH  22  25
ENDBRANCH  20  21
ENDBRANCH   4  20
TORSDOF 8
ENDMDL
