MODEL 1
REMARK VINA RESULT:    -7.842      0.000      0.000
REMARK INTER + INTRA:         -10.231
REMARK INTER:                  -9.676
REMARK INTRA:                  -0.555
REMARK UNBOUND:                -0.555
REMARK  Name = 
REMARK  6 active torsions:
REMARK  status: ('A' for Active; 'I' for Inactive)
REMARK    1  A    between atoms: C_1  and  C_2
REMARK    2  A    between atoms: C_2  and  C_3
REMARK    3  A    between atoms: C_2  and  C_4
REMARK    4  A    between atoms: C_2  and  C_15
REMARK    5  A    between atoms: C_5  and  C_6
REMARK    6  A    between atoms: C_9  and  C_10
REMARK                            x       y       z     vdW  Elec       q    Type
REMARK                         _______ _______ _______ _____ _____    ______ ____
ROOT
ATOM      1  C   UNL     1      45.172   4.467  12.051  0.00  0.00    +0.000 C 
ATOM      2  C   UNL     1      45.916   3.762  12.924  0.00  0.00    +0.000 C 
ENDROOT
BRANCH   2   3
ATOM      3  C   UNL     1      46.743   4.395  13.966  0.00  0.00    +0.000 A 
ATOM      4  C   UNL     1      47.472   5.559  13.717  0.00  0.00    +0.000 A 
ATOM      5  N   UNL     1      48.250   6.177  14.647  0.00  0.00    +0.000 NA
ATOM      6  C   UNL     1      48.264   5.567  15.870  0.00  0.00    +0.000 A 
ATOM      7  C   UNL     1      47.546   4.413  16.131  0.00  0.00    +0.000 A 
ATOM      8  N   UNL     1      46.775   3.806  15.190  0.00  0.00    +0.000 NA
BRANCH   6   9
ATOM      9  C   UNL     1      49.089   6.178  16.947  0.00  0.00    +0.000 C 
ATOM     10  N   UNL     1      48.443   7.056  17.775  0.00  0.00    +0.000 N 
ATOM     11  O   UNL     1      50.278   5.915  17.092  0.00  0.00    +0.000 OA
ATOM     12  H   UNL     1      47.459   7.256  17.639  0.00  0.00    +0.000 HD
ATOM     13  H   UNL     1      48.955   7.496  18.528  0.00  0.00    +0.000 HD
ENDBRANCH   6   9
ENDBRANCH   2   3
BRANCH   1  15
ATOM     14  C   UNL     1      43.409   2.818  11.556  0.00  0.00    +0.000 C 
ATOM     15  C   UNL     1      44.259   3.952  10.938  0.00  0.00    +0.000 C 
ATOM     16  C   UNL     1      43.280   5.095  10.568  0.00  0.00    +0.000 C 
BRANCH  15  17
ATOM     17  C   UNL     1      45.012   3.519   9.661  0.00  0.00    +0.000 A 
ATOM     18  C   UNL     1      45.552   4.448   8.748  0.00  0.00    +0.000 A 
ATOM     19  C   UNL     1      46.277   4.033   7.625  0.00  0.00    +0.000 A 
ATOM     20  C   UNL     1      46.473   2.679   7.396  0.00  0.00    +0.000 A 
ATOM     21  F   UNL     1      47.177   2.289   6.325  0.00  0.00    +0.000 F 
ATOM     22  C   UNL     1      45.944   1.743   8.270  0.00  0.00    +0.000 A 
ATOM     23  F   UNL     1      46.131   0.434   8.049  0.00  0.00    +0.000 F 
ATOM     24  C   UNL     1      45.218   2.149   9.389  0.00  0.00    +0.000 A 
ENDBRANCH  15  17
ENDBRANCH   1  15
TORSDOF 4
ENDMDL
MODEL 2
REMARK VINA RESULT:    -7.603      1.649      1.857
REMARK INTER + INTRA:          -9.936
REMARK INTER:                  -9.347
REMARK INTRA:                  -0.589
REMARK UNBOUND:                -0.555
REMARK  Name = 
REMARK  6 active torsions:
REMARK  status: ('A' for Active; 'I' for Inactive)
REMARK    1  A    between atoms: C_1  and  C_2
REMARK    2  A    between atoms: C_2  and  C_3
REMARK    3  A    between atoms: C_2  and  C_4
REMARK    4  A    between atoms: C_2  and  C_15
REMARK    5  A    between atoms: C_5  and  C_6
REMARK    6  A    between atoms: C_9  and  C_10
REMARK                            x       y       z     vdW  Elec       q    Type
REMARK                         _______ _______ _______ _____ _____    ______ ____
ROOT
ATOM      1  C   UNL     1      45.178   5.043  13.009  0.00  0.00    +0.000 C 
ATOM      2  C   UNL     1      46.457   5.378  13.266  0.00  0.00    +0.000 C 
ENDROOT
BRANCH   2   3
ATOM      3  C   UNL     1      47.163   4.964  14.492  0.00  0.00    +0.000 A 
ATOM      4  C   UNL     1      48.096   5.794  15.116  0.00  0.00    +0.000 A 
ATOM      5  N   UNL     1      48.772   5.454  16.248  0.00  0.00    +0.000 NA
ATOM      6  C   UNL     1      48.463   4.218  16.742  0.00  0.00    +0.000 A 
ATOM      7  C   UNL     1      47.539   3.385  16.134  0.00  0.00    +0.000 A 
ATOM      8  N   UNL     1      46.874   3.739  15.003  0.00  0.00    +0.000 NA
BRANCH   6   9
ATOM      9  C   UNL     1      49.156   3.766  17.979  0.00  0.00    +0.000 C 
ATOM     10  N   UNL     1      48.376   3.131  18.908  0.00  0.00    +0.000 N 
ATOM     11  O   UNL     1      50.355   3.945  18.162  0.00  0.00    +0.000 OA
ATOM     12  H   UNL     1      47.388   2.991  18.734  0.00  0.00    +0.000 HD
ATOM     13  H   UNL     1      48.797   2.798  19.765  0.00  0.00    +0.000 HD
ENDBRANCH   6   9
ENDBRANCH   2   3
BRANCH   1  15
ATOM     14  C   UNL     1      42.858   5.137  12.185  0.00  0.00    +0.000 C 
ATOM     15  C   UNL     1      44.330   5.381  11.783  0.00  0.00    +0.000 C 
ATOM     16  C   UNL     1      44.476   6.902  11.517  0.00  0.00    +0.000 C 
BRANCH  15  17
ATOM     17  C   UNL     1      44.745   4.619  10.506  0.00  0.00    +0.000 A 
ATOM     18  C   UNL     1      45.523   5.210   9.489  0.00  0.00    +0.000 A 
ATOM     19  C   UNL     1      45.933   4.483   8.366  0.00  0.00    +0.000 A 
ATOM     20  C   UNL     1      45.567   3.151   8.238  0.00  0.00    +0.000 A 
ATOM     21  F   UNL     1      45.971   2.458   7.165  0.00  0.00    +0.000 F 
ATOM     22  C   UNL     1      44.792   2.547   9.216  0.00  0.00    +0.000 A 
ATOM     23  F   UNL     1      44.437   1.260   9.093  0.00  0.00    +0.000 F 
ATOM     24  C   UNL     1      44.379   3.266  10.337  0.00  0.00    +0.000 A 
ENDBRANCH  15  17
ENDBRANCH   1  15
TORSDOF 4
ENDMDL
MODEL 3
REMARK VINA RESULT:    -6.878      1.613      2.377
REMARK INTER + INTRA:          -9.041
REMARK INTER:                  -8.451
REMARK INTRA:                  -0.590
REMARK UNBOUND:                -0.555
REMARK  Name = 
REMARK  6 active torsions:
REMARK  status: ('A' for Active; 'I' for Inactive)
REMARK    1  A    between atoms: C_1  and  C_2
REMARK    2  A    between atoms: C_2  and  C_3
REMARK    3  A    between atoms: C_2  and  C_4
REMARK    4  A    between atoms: C_2  and  C_15
REMARK    5  A    between atoms: C_5  and  C_6
REMARK    6  A    between atoms: C_9  and  C_10
REMARK                            x       y       z     vdW  Elec       q    Type
REMARK                         _______ _______ _______ _____ _____    ______ ____
ROOT
ATOM      1  C   UNL     1      45.171   5.271  12.912  0.00  0.00    +0.000 C 
ATOM      2  C   UNL     1      46.506   5.252  13.095  0.00  0.00    +0.000 C 
ENDROOT
BRANCH   2   3
ATOM      3  C   UNL     1      47.131   5.021  14.409  0.00  0.00    +0.000 A 
ATOM      4  C   UNL     1      46.823   3.899  15.180  0.00  0.00    +0.000 A 
ATOM      5  N   UNL     1      47.375   3.645  16.398  0.00  0.00    +0.000 NA
ATOM      6  C   UNL     1      48.272   4.585  16.820  0.00  0.00    +0.000 A 
ATOM      7  C   UNL     1      48.587   5.702  16.066  0.00  0.00    +0.000 A 
ATOM      8  N   UNL     1      48.026   5.942  14.852  0.00  0.00    +0.000 NA
BRANCH   6   9
ATOM      9  C   UNL     1      48.923   4.385  18.144  0.00  0.00    +0.000 C 
ATOM     10  N   UNL     1      48.877   3.114  18.651  0.00  0.00    +0.000 N 
ATOM     11  O   UNL     1      49.473   5.298  18.750  0.00  0.00    +0.000 OA
ATOM     12  H   UNL     1      48.421   2.374  18.131  0.00  0.00    +0.000 HD
ATOM     13  H   UNL     1      49.309   2.920  19.545  0.00  0.00    +0.000 HD
ENDBRANCH   6   9
ENDBRANCH   2   3
BRANCH   1  15
ATOM     14  C   UNL     1      42.890   5.363  11.984  0.00  0.00    +0.000 C 
ATOM     15  C   UNL     1      44.387   5.478  11.617  0.00  0.00    +0.000 C 
ATOM     16  C   UNL     1      44.624   6.940  11.154  0.00  0.00    +0.000 C 
BRANCH  15  17
ATOM     17  C   UNL     1      44.806   4.529  10.473  0.00  0.00    +0.000 A 
ATOM     18  C   UNL     1      44.362   3.193  10.396  0.00  0.00    +0.000 A 
ATOM     19  C   UNL     1      44.710   2.367   9.321  0.00  0.00    +0.000 A 
ATOM     20  C   UNL     1      45.512   2.864   8.304  0.00  0.00    +0.000 A 
ATOM     21  F   UNL     1      45.833   2.072   7.273  0.00  0.00    +0.000 F 
ATOM     22  C   UNL     1      45.973   4.170   8.360  0.00  0.00    +0.000 A 
ATOM     23  F   UNL     1      46.749   4.652   7.378  0.00  0.00    +0.000 F 
ATOM     24  C   UNL     1      45.631   4.998   9.429  0.00  0.00    +0.000 A 
ENDBRANCH  15  17
ENDBRANCH   1  15
TORSDOF 4
ENDMDL
MODEL 4
REMARK VINA RESULT:    -6.646      1.805      2.031
REMARK INTER + INTRA:          -8.755
REMARK INTER:                  -8.571
REMARK INTRA:                  -0.185
REMARK UNBOUND:                -0.555
REMARK  Name = 
REMARK  6 active torsions:
REMARK  status: ('A' for Active; 'I' for Inactive)
REMARK    1  A    between atoms: C_1  and  C_2
REMARK    2  A    between atoms: C_2  and  C_3
REMARK    3  A    between atoms: C_2  and  C_4
REMARK    4  A    between atoms: C_2  and  C_15
REMARK    5  A    between atoms: C_5  and  C_6
REMARK    6  A    between atoms: C_9  and  C_10
REMARK                            x       y       z     vdW  Elec       q    Type
REMARK                         _______ _______ _______ _____ _____    ______ ____
ROOT
ATOM      1  C   UNL     1      45.073   5.100  12.189  0.00  0.00    +0.000 C 
ATOM      2  C   UNL     1      46.154   5.815  11.823  0.00  0.00    +0.000 C 
ENDROOT
BRANCH   2   3
ATOM      3  C   UNL     1      46.931   6.633  12.772  0.00  0.00    +0.000 A 
ATOM      4  C   UNL     1      46.569   7.946  13.076  0.00  0.00    +0.000 A 
ATOM      5  N   UNL     1      47.257   8.738  13.943  0.00  0.00    +0.000 NA
ATOM      6  C   UNL     1      48.349   8.143  14.509  0.00  0.00    +0.000 A 
ATOM      7  C   UNL     1      48.720   6.842  14.217  0.00  0.00    +0.000 A 
ATOM      8  N   UNL     1      48.023   6.064  13.346  0.00  0.00    +0.000 NA
BRANCH   6   9
ATOM      9  C   UNL     1      49.159   8.939  15.471  0.00  0.00    +0.000 C 
ATOM     10  N   UNL     1      48.568  10.074  15.959  0.00  0.00    +0.000 N 
ATOM     11  O   UNL     1      50.288   8.604  15.813  0.00  0.00    +0.000 OA
ATOM     12  H   UNL     1      47.633  10.329  15.666  0.00  0.00    +0.000 HD
ATOM     13  H   UNL     1      49.072  10.650  16.621  0.00  0.00    +0.000 HD
ENDBRANCH   6   9
ENDBRANCH   2   3
BRANCH   1  15
ATOM     14  C   UNL     1      43.745   3.024  12.229  0.00  0.00    +0.000 C 
ATOM     15  C   UNL     1      44.187   4.200  11.328  0.00  0.00    +0.000 C 
ATOM     16  C   UNL     1      42.906   5.001  10.976  0.00  0.00    +0.000 C 
BRANCH  15  17
ATOM     17  C   UNL     1      44.853   3.740  10.013  0.00  0.00    +0.000 A 
ATOM     18  C   UNL     1      45.357   4.649   9.060  0.00  0.00    +0.000 A 
ATOM     19  C   UNL     1      46.005   4.209   7.900  0.00  0.00    +0.000 A 
ATOM     20  C   UNL     1      46.158   2.849   7.673  0.00  0.00    +0.000 A 
ATOM     21  F   UNL     1      46.789   2.434   6.566  0.00  0.00    +0.000 F 
ATOM     22  C   UNL     1      45.662   1.932   8.586  0.00  0.00    +0.000 A 
ATOM     23  F   UNL     1      45.808   0.618   8.367  0.00  0.00    +0.000 F 
ATOM     24  C   UNL     1      45.013   2.364   9.743  0.00  0.00    +0.000 A 
ENDBRANCH  15  17
ENDBRANCH   1  15
TORSDOF 4
ENDMDL
MODEL 5
REMARK VINA RESULT:    -6.597      5.037      8.423
REMARK INTER + INTRA:          -8.695
REMARK INTER:                  -8.168
REMARK INTRA:                  -0.527
REMARK UNBOUND:                -0.555
REMARK  Name = 
REMARK  6 active torsions:
REMARK  status: ('A' for Active; 'I' for Inactive)
REMARK    1  A    between atoms: C_1  and  C_2
REMARK    2  A    between atoms: C_2  and  C_3
REMARK    3  A    between atoms: C_2  and  C_4
REMARK    4  A    between atoms: C_2  and  C_15
REMARK    5  A    between atoms: C_5  and  C_6
REMARK    6  A    between atoms: C_9  and  C_10
REMARK                            x       y       z     vdW  Elec       q    Type
REMARK                         _______ _______ _______ _____ _____    ______ ____
ROOT
ATOM      1  C   UNL     1      47.515   4.666  15.804  0.00  0.00    +0.000 C 
ATOM      2  C   UNL     1      47.501   5.307  14.620  0.00  0.00    +0.000 C 
ENDROOT
BRANCH   2   3
ATOM      3  C   UNL     1      46.644   4.893  13.494  0.00  0.00    +0.000 A 
ATOM      4  C   UNL     1      46.382   5.745  12.421  0.00  0.00    +0.000 A 
ATOM      5  N   UNL     1      45.598   5.406  11.361  0.00  0.00    +0.000 NA
ATOM      6  C   UNL     1      45.076   4.145  11.423  0.00  0.00    +0.000 A 
ATOM      7  C   UNL     1      45.328   3.289  12.482  0.00  0.00    +0.000 A 
ATOM      8  N   UNL     1      46.112   3.643  13.534  0.00  0.00    +0.000 NA
BRANCH   6   9
ATOM      9  C   UNL     1      44.206   3.692  10.304  0.00  0.00    +0.000 C 
ATOM     10  N   UNL     1      43.826   4.657   9.410  0.00  0.00    +0.000 N 
ATOM     11  O   UNL     1      43.847   2.526  10.182  0.00  0.00    +0.000 OA
ATOM     12  H   UNL     1      44.136   5.614   9.529  0.00  0.00    +0.000 HD
ATOM     13  H   UNL     1      43.238   4.404   8.627  0.00  0.00    +0.000 HD
ENDBRANCH   6   9
ENDBRANCH   2   3
BRANCH   1  15
ATOM     14  C   UNL     1      48.764   6.467  16.930  0.00  0.00    +0.000 C 
ATOM     15  C   UNL     1      48.329   4.989  17.056  0.00  0.00    +0.000 C 
ATOM     16  C   UNL     1      47.371   4.907  18.273  0.00  0.00    +0.000 C 
BRANCH  15  17
ATOM     17  C   UNL     1      49.512   4.027  17.299  0.00  0.00    +0.000 A 
ATOM     18  C   UNL     1      49.420   2.639  17.069  0.00  0.00    +0.000 A 
ATOM     19  C   UNL     1      50.522   1.794  17.244  0.00  0.00    +0.000 A 
ATOM     20  C   UNL     1      51.736   2.324  17.655  0.00  0.00    +0.000 A 
ATOM     21  F   UNL     1      52.789   1.511  17.811  0.00  0.00    +0.000 F 
ATOM     22  C   UNL     1      51.853   3.683  17.900  0.00  0.00    +0.000 A 
ATOM     23  F   UNL     1      53.025   4.196  18.299  0.00  0.00    +0.000 F 
ATOM     24  C   UNL     1      50.758   4.530  17.730  0.00  0.00    +0.000 A 
ENDBRANCH  15  17
ENDBRANCH   1  15
TORSDOF 4
ENDMDL
MODEL 6
REMARK VINA RESULT:    -6.312      2.338      3.453
REMARK INTER + INTRA:          -8.343
REMARK INTER:                  -8.058
REMARK INTRA:                  -0.285
REMARK UNBOUND:                -0.555
REMARK  Name = 
REMARK  6 active torsions:
REMARK  status: ('A' for Active; 'I' for Inactive)
REMARK    1  A    between atoms: C_1  and  C_2
REMARK    2  A    between atoms: C_2  and  C_3
REMARK    3  A    between atoms: C_2  and  C_4
REMARK    4  A    between atoms: C_2  and  C_15
REMARK    5  A    between atoms: C_5  and  C_6
REMARK    6  A    between atoms: C_9  and  C_10
REMARK                            x       y       z     vdW  Elec       q    Type
REMARK                         _______ _______ _______ _____ _____    ______ ____
ROOT
ATOM      1  C   UNL     1      46.759   6.362  13.550  0.00  0.00    +0.000 C 
ATOM      2  C   UNL     1      47.360   5.216  13.925  0.00  0.00    +0.000 C 
ENDROOT
BRANCH   2   3
ATOM      3  C   UNL     1      47.795   4.956  15.309  0.00  0.00    +0.000 A 
ATOM      4  C   UNL     1      47.242   3.925  16.069  0.00  0.00    +0.000 A 
ATOM      5  N   UNL     1      47.611   3.648  17.349  0.00  0.00    +0.000 NA
ATOM      6  C   UNL     1      48.585   4.467  17.847  0.00  0.00    +0.000 A 
ATOM      7  C   UNL     1      49.143   5.493  17.105  0.00  0.00    +0.000 A 
ATOM      8  N   UNL     1      48.761   5.758  15.827  0.00  0.00    +0.000 NA
BRANCH   6   9
ATOM      9  C   UNL     1      49.048   4.234  19.242  0.00  0.00    +0.000 C 
ATOM     10  N   UNL     1      48.319   3.336  19.976  0.00  0.00    +0.000 N 
ATOM     11  O   UNL     1      50.025   4.805  19.714  0.00  0.00    +0.000 OA
ATOM     12  H   UNL     1      47.518   2.873  19.565  0.00  0.00    +0.000 HD
ATOM     13  H   UNL     1      48.593   3.136  20.929  0.00  0.00    +0.000 HD
ENDBRANCH   6   9
ENDBRANCH   2   3
BRANCH   1  15
ATOM     14  C   UNL     1      45.291   7.961  12.383  0.00  0.00    +0.000 C 
ATOM     15  C   UNL     1      46.242   6.761  12.168  0.00  0.00    +0.000 C 
ATOM     16  C   UNL     1      47.450   7.287  11.349  0.00  0.00    +0.000 C 
BRANCH  15  17
ATOM     17  C   UNL     1      45.588   5.602  11.386  0.00  0.00    +0.000 A 
ATOM     18  C   UNL     1      45.755   5.437   9.995  0.00  0.00    +0.000 A 
ATOM     19  C   UNL     1      45.197   4.347   9.316  0.00  0.00    +0.000 A 
ATOM     20  C   UNL     1      44.459   3.405  10.016  0.00  0.00    +0.000 A 
ATOM     21  F   UNL     1      43.937   2.359   9.362  0.00  0.00    +0.000 F 
ATOM     22  C   UNL     1      44.268   3.549  11.382  0.00  0.00    +0.000 A 
ATOM     23  F   UNL     1      43.554   2.639  12.060  0.00  0.00    +0.000 F 
ATOM     24  C   UNL     1      44.819   4.632  12.065  0.00  0.00    +0.000 A 
ENDBRANCH  15  17
ENDBRANCH   1  15
TORSDOF 4
ENDMDL
MODEL 7
REMARK VINA RESULT:    -6.056      5.333      8.692
REMARK INTER + INTRA:          -8.027
REMARK INTER:                  -7.445
REMARK INTRA:                  -0.582
REMARK UNBOUND:                -0.555
REMARK  Name = 
REMARK  6 active torsions:
REMARK  status: ('A' for Active; 'I' for Inactive)
REMARK    1  A    between atoms: C_1  and  C_2
REMARK    2  A    between atoms: C_2  and  C_3
REMARK    3  A    between atoms: C_2  and  C_4
REMARK    4  A    between atoms: C_2  and  C_15
REMARK    5  A    between atoms: C_5  and  C_6
REMARK    6  A    between atoms: C_9  and  C_10
REMARK                            x       y       z     vdW  Elec       q    Type
REMARK                         _______ _______ _______ _____ _____    ______ ____
ROOT
ATOM      1  C   UNL     1      47.518   3.555  15.654  0.00  0.00    +0.000 C 
ATOM      2  C   UNL     1      47.104   4.692  15.061  0.00  0.00    +0.000 C 
ENDROOT
BRANCH   2   3
ATOM      3  C   UNL     1      46.456   4.715  13.738  0.00  0.00    +0.000 A 
ATOM      4  C   UNL     1      46.510   5.841  12.915  0.00  0.00    +0.000 A 
ATOM      5  N   UNL     1      45.926   5.908  11.687  0.00  0.00    +0.000 NA
ATOM      6  C   UNL     1      45.272   4.770  11.309  0.00  0.00    +0.000 A 
ATOM      7  C   UNL     1      45.210   3.646  12.114  0.00  0.00    +0.000 A 
ATOM      8  N   UNL     1      45.797   3.596  13.339  0.00  0.00    +0.000 NA
BRANCH   6   9
ATOM      9  C   UNL     1      44.604   4.757   9.979  0.00  0.00    +0.000 C 
ATOM     10  N   UNL     1      45.433   4.771   8.889  0.00  0.00    +0.000 N 
ATOM     11  O   UNL     1      43.384   4.733   9.857  0.00  0.00    +0.000 OA
ATOM     12  H   UNL     1      46.439   4.788   9.013  0.00  0.00    +0.000 HD
ATOM     13  H   UNL     1      45.033   4.758   7.960  0.00  0.00    +0.000 HD
ENDBRANCH   6   9
ENDBRANCH   2   3
BRANCH   1  15
ATOM     14  C   UNL     1      47.167   2.627  17.910  0.00  0.00    +0.000 C 
ATOM     15  C   UNL     1      48.184   3.377  17.018  0.00  0.00    +0.000 C 
ATOM     16  C   UNL     1      49.397   2.430  16.828  0.00  0.00    +0.000 C 
BRANCH  15  17
ATOM     17  C   UNL     1      48.685   4.695  17.647  0.00  0.00    +0.000 A 
ATOM     18  C   UNL     1      49.930   5.269  17.314  0.00  0.00    +0.000 A 
ATOM     19  C   UNL     1      50.340   6.492  17.856  0.00  0.00    +0.000 A 
ATOM     20  C   UNL     1      49.511   7.163  18.744  0.00  0.00    +0.000 A 
ATOM     21  F   UNL     1      49.905   8.339  19.251  0.00  0.00    +0.000 F 
ATOM     22  C   UNL     1      48.288   6.617  19.098  0.00  0.00    +0.000 A 
ATOM     23  F   UNL     1      47.487   7.263  19.958  0.00  0.00    +0.000 F 
ATOM     24  C   UNL     1      47.874   5.397  18.564  0.00  0.00    +0.000 A 
ENDBRANCH  15  17
ENDBRANCH   1  15
TORSDOF 4
ENDMDL
MODEL 8
REMARK VINA RESULT:    -6.027      5.281      7.398
REMARK INTER + INTRA:          -7.991
REMARK INTER:                  -7.480
REMARK INTRA:                  -0.511
REMARK UNBOUND:                -0.555
REMARK  Name = 
REMARK  6 active torsions:
REMARK  status: ('A' for Active; 'I' for Inactive)
REMARK    1  A    between atoms: C_1  and  C_2
REMARK    2  A    between atoms: C_2  and  C_3
REMARK    3  A    between atoms: C_2  and  C_4
REMARK    4  A    between atoms: C_2  and  C_15
REMARK    5  A    between atoms: C_5  and  C_6
REMARK    6  A    between atoms: C_9  and  C_10
REMARK                            x       y       z     vdW  Elec       q    Type
REMARK                         _______ _______ _______ _____ _____    ______ ____
ROOT
ATOM      1  C   UNL     1      48.033   7.653  11.872  0.00  0.00    +0.000 C 
ATOM      2  C   UNL     1      47.215   6.990  12.711  0.00  0.00    +0.000 C 
ENDROOT
BRANCH   2   3
ATOM      3  C   UNL     1      46.361   5.869  12.278  0.00  0.00    +0.000 A 
ATOM      4  C   UNL     1      46.052   4.810  13.133  0.00  0.00    +0.000 A 
ATOM      5  N   UNL     1      45.270   3.755  12.777  0.00  0.00    +0.000 NA
ATOM      6  C   UNL     1      44.796   3.808  11.496  0.00  0.00    +0.000 A 
ATOM      7  C   UNL     1      45.094   4.852  10.637  0.00  0.00    +0.000 A 
ATOM      8  N   UNL     1      45.879   5.898  11.008  0.00  0.00    +0.000 NA
BRANCH   6   9
ATOM      9  C   UNL     1      43.931   2.693  11.024  0.00  0.00    +0.000 C 
ATOM     10  N   UNL     1      44.313   2.089   9.855  0.00  0.00    +0.000 N 
ATOM     11  O   UNL     1      42.936   2.327  11.639  0.00  0.00    +0.000 OA
ATOM     12  H   UNL     1      45.142   2.405   9.365  0.00  0.00    +0.000 HD
ATOM     13  H   UNL     1      43.765   1.322   9.490  0.00  0.00    +0.000 HD
ENDBRANCH   6   9
ENDBRANCH   2   3
BRANCH   1  15
ATOM     14  C   UNL     1      48.171  10.112  11.966  0.00  0.00    +0.000 C 
ATOM     15  C   UNL     1      48.981   8.812  12.179  0.00  0.00    +0.000 C 
ATOM     16  C   UNL     1      49.330   8.745  13.689  0.00  0.00    +0.000 C 
BRANCH  15  17
ATOM     17  C   UNL     1      50.295   8.777  11.371  0.00  0.00    +0.000 A 
ATOM     18  C   UNL     1      50.977   9.949  10.980  0.00  0.00    +0.000 A 
ATOM     19  C   UNL     1      52.196   9.891  10.295  0.00  0.00    +0.000 A 
ATOM     20  C   UNL     1      52.753   8.660   9.985  0.00  0.00    +0.000 A 
ATOM     21  F   UNL     1      53.925   8.612   9.338  0.00  0.00    +0.000 F 
ATOM     22  C   UNL     1      52.100   7.492  10.346  0.00  0.00    +0.000 A 
ATOM     23  F   UNL     1      52.637   6.300  10.047  0.00  0.00    +0.000 F 
ATOM     24  C   UNL     1      50.884   7.541  11.027  0.00  0.00    +0.000 A 
ENDBRANCH  15  17
ENDBRANCH   1  15
TORSDOF 4
ENDMDL
MODEL 9
REMARK VINA RESULT:    -5.940      5.237      8.817
REMARK INTER + INTRA:          -7.884
REMARK INTER:                  -7.291
REMARK INTRA:                  -0.592
REMARK UNBOUND:                -0.555
REMARK  Name = 
REMARK  6 active torsions:
REMARK  status: ('A' for Active; 'I' for Inactive)
REMARK    1  A    between atoms: C_1  and  C_2
REMARK    2  A    between atoms: C_2  and  C_3
REMARK    3  A    between atoms: C_2  and  C_4
REMARK    4  A    between atoms: C_2  and  C_15
REMARK    5  A    between atoms: C_5  and  C_6
REMARK    6  A    between atoms: C_9  and  C_10
REMARK                            x       y       z     vdW  Elec       q    Type
REMARK                         _______ _______ _______ _____ _____    ______ ____
ROOT
ATOM      1  C   UNL     1      48.192   6.475  14.868  0.00  0.00    +0.000 C 
ATOM      2  C   UNL     1      47.451   5.352  14.807  0.00  0.00    +0.000 C 
ENDROOT
BRANCH   2   3
ATOM      3  C   UNL     1      46.655   4.981  13.623  0.00  0.00    +0.000 A 
ATOM      4  C   UNL     1      46.452   5.872  12.568  0.00  0.00    +0.000 A 
ATOM      5  N   UNL     1      45.724   5.573  11.457  0.00  0.00    +0.000 NA
ATOM      6  C   UNL     1      45.198   4.312  11.447  0.00  0.00    +0.000 A 
ATOM      7  C   UNL     1      45.392   3.419  12.486  0.00  0.00    +0.000 A 
ATOM      8  N   UNL     1      46.120   3.733  13.590  0.00  0.00    +0.000 NA
BRANCH   6   9
ATOM      9  C   UNL     1      44.387   3.903  10.268  0.00  0.00    +0.000 C 
ATOM     10  N   UNL     1      44.431   4.742   9.187  0.00  0.00    +0.000 N 
ATOM     11  O   UNL     1      43.719   2.875  10.256  0.00  0.00    +0.000 OA
ATOM     12  H   UNL     1      44.993   5.585   9.218  0.00  0.00    +0.000 HD
ATOM     13  H   UNL     1      43.903   4.510   8.356  0.00  0.00    +0.000 HD
ENDBRANCH   6   9
ENDBRANCH   2   3
BRANCH   1  15
ATOM     14  C   UNL     1      50.512   7.070  15.450  0.00  0.00    +0.000 C 
ATOM     15  C   UNL     1      49.074   6.977  16.011  0.00  0.00    +0.000 C 
ATOM     16  C   UNL     1      48.630   8.424  16.346  0.00  0.00    +0.000 C 
BRANCH  15  17
ATOM     17  C   UNL     1      48.979   6.125  17.295  0.00  0.00    +0.000 A 
ATOM     18  C   UNL     1      49.832   5.030  17.544  0.00  0.00    +0.000 A 
ATOM     19  C   UNL     1      49.762   4.306  18.740  0.00  0.00    +0.000 A 
ATOM     20  C   UNL     1      48.835   4.664  19.707  0.00  0.00    +0.000 A 
ATOM     21  F   UNL     1      48.781   3.973  20.854  0.00  0.00    +0.000 F 
ATOM     22  C   UNL     1      47.976   5.728  19.485  0.00  0.00    +0.000 A 
ATOM     23  F   UNL     1      47.078   6.075  20.419  0.00  0.00    +0.000 F 
ATOM     24  C   UNL     1      48.038   6.453  18.295  0.00  0.00    +0.000 A 
ENDBRANCH  15  17
ENDBRANCH   1  15
TORSDOF 4
ENDMDL
