MODEL 1
REMARK VINA RESULT:    -9.595      0.000      0.000
REMARK INTER + INTRA:         -13.937
REMARK INTER:                 -12.961
REMARK INTRA:                  -0.976
REMARK UNBOUND:                -0.976
REMARK  Name = 
REMARK  6 active torsions:
REMARK  status: ('A' for Active; 'I' for Inactive)
REMARK    1  A    between atoms: C_2  and  C_4
REMARK    2  A    between atoms: N_8  and  C_9
REMARK    3  A    between atoms: C_9  and  C_10
REMARK    4  A    between atoms: C_10  and  C_13
REMARK    5  A    between atoms: C_18  and  O_19
REMARK    6  A    between atoms: O_19  and  C_20
REMARK                            x       y       z     vdW  Elec       q    Type
REMARK                         _______ _______ _______ _____ _____    ______ ____
ROOT
ATOM      1  C   UNL     1      43.486   5.659  12.085  0.00  0.00    +0.000 C 
ATOM      2  F   UNL     1      42.936   6.773  11.511  0.00  0.00    +0.000 F 
ATOM      3  F   UNL     1      42.781   5.465  13.238  0.00  0.00    +0.000 F 
ENDROOT
BRANCH   1   4
ATOM      4  C   UNL     1      44.968   5.843  12.369  0.00  0.00    +0.000 A 
ATOM      5  C   UNL     1      45.683   6.912  11.811  0.00  0.00    +0.000 A 
ATOM      6  C   UNL     1      47.038   7.082  12.108  0.00  0.00    +0.000 A 
ATOM      7  C   UNL     1      47.689   6.185  12.955  0.00  0.00    +0.000 A 
ATOM      8  F   UNL     1      48.981   6.407  13.235  0.00  0.00    +0.000 F 
ATOM      9  C   UNL     1      47.004   5.105  13.506  0.00  0.00    +0.000 A 
ATOM     10  C   UNL     1      45.643   4.946  13.216  0.00  0.00    +0.000 A 
BRANCH   9  11
ATOM     11  O   UNL     1      47.519   4.168  14.367  0.00  0.00    +0.000 OA
BRANCH  11  12
ATOM     12  C   UNL     1      47.309   4.319  15.791  0.00  0.00    +0.000 C 
ATOM     13  C   UNL     1      48.300   5.200  16.578  0.00  0.00    +0.000 C 
ATOM     14  N   UNL     1      48.528   4.112  17.542  0.00  0.00    +0.000 NA
ATOM     15  C   UNL     1      47.861   3.156  16.645  0.00  0.00    +0.000 C 
ATOM     16  H   UNL     1      48.050   4.241  18.433  0.00  0.00    +0.000 HD
ENDBRANCH  11  12
ENDBRANCH   9  11
ENDBRANCH   1   4
BRANCH   1  17
ATOM     17  C   UNL     1      43.239   4.457  11.135  0.00  0.00    +0.000 C 
BRANCH  17  22
ATOM     18  C   UNL     1      46.475   2.494   7.690  0.00  0.00    +0.000 A 
ATOM     19  C   UNL     1      45.683   1.841   8.630  0.00  0.00    +0.000 A 
ATOM     20  C   UNL     1      44.755   2.580   9.363  0.00  0.00    +0.000 A 
ATOM     21  C   UNL     1      44.640   3.951   9.156  0.00  0.00    +0.000 A 
ATOM     22  N   UNL     1      43.673   4.727   9.757  0.00  0.00    +0.000 N 
ATOM     23  N   UNL     1      45.432   4.597   8.279  0.00  0.00    +0.000 NA
ATOM     24  C   UNL     1      46.332   3.866   7.571  0.00  0.00    +0.000 A 
ATOM     25  H   UNL     1      43.856   5.706   9.537  0.00  0.00    +0.000 HD
BRANCH  18  27
ATOM     26  N   UNL     1      48.536   2.482   6.409  0.00  0.00    +0.000 N 
ATOM     27  C   UNL     1      47.434   1.784   6.821  0.00  0.00    +0.000 C 
ATOM     28  O   UNL     1      47.274   0.609   6.517  0.00  0.00    +0.000 OA
ATOM     29  H   UNL     1      49.245   1.952   5.919  0.00  0.00    +0.000 HD
ATOM     30  H   UNL     1      48.828   3.343   6.853  0.00  0.00    +0.000 HD
ENDBRANCH  18  27
ENDBRANCH  17  22
ENDBRANCH   1  17
TORSDOF 6
ENDMDL
MODEL 2
REMARK VINA RESULT:    -8.596      2.300      3.359
REMARK INTER + INTRA:         -12.587
REMARK INTER:                 -11.664
REMARK INTRA:                  -0.923
REMARK UNBOUND:                -0.976
REMARK  Name = 
REMARK  6 active torsions:
REMARK  status: ('A' for Active; 'I' for Inactive)
REMARK    1  A    between atoms: C_2  and  C_4
REMARK    2  A    between atoms: N_8  and  C_9
REMARK    3  A    between atoms: C_9  and  C_10
REMARK    4  A    between atoms: C_10  and  C_13
REMARK    5  A    between atoms: C_18  and  O_19
REMARK    6  A    between atoms: O_19  and  C_20
REMARK                            x       y       z     vdW  Elec       q    Type
REMARK                         _______ _______ _______ _____ _____    ______ ____
ROOT
ATOM      1  C   UNL     1      43.425   5.618  12.158  0.00  0.00    +0.000 C 
ATOM      2  F   UNL     1      42.867   6.727  11.581  0.00  0.00    +0.000 F 
ATOM      3  F   UNL     1      42.673   5.378  13.273  0.00  0.00    +0.000 F 
ENDROOT
BRANCH   1   4
ATOM      4  C   UNL     1      44.885   5.840  12.516  0.00  0.00    +0.000 A 
ATOM      5  C   UNL     1      45.577   4.929  13.327  0.00  0.00    +0.000 A 
ATOM      6  C   UNL     1      46.928   5.134  13.619  0.00  0.00    +0.000 A 
ATOM      7  C   UNL     1      47.594   6.251  13.114  0.00  0.00    +0.000 A 
ATOM      8  F   UNL     1      48.897   6.389  13.398  0.00  0.00    +0.000 F 
ATOM      9  C   UNL     1      46.923   7.180  12.323  0.00  0.00    +0.000 A 
ATOM     10  C   UNL     1      45.573   6.963  12.020  0.00  0.00    +0.000 A 
BRANCH   9  11
ATOM     11  O   UNL     1      47.465   8.303  11.748  0.00  0.00    +0.000 OA
BRANCH  11  12
ATOM     12  C   UNL     1      47.608   9.507  12.537  0.00  0.00    +0.000 C 
ATOM     13  C   UNL     1      46.969  10.803  11.999  0.00  0.00    +0.000 C 
ATOM     14  N   UNL     1      48.247  11.516  12.150  0.00  0.00    +0.000 NA
ATOM     15  C   UNL     1      48.953  10.241  12.344  0.00  0.00    +0.000 C 
ATOM     16  H   UNL     1      48.284  12.134  12.960  0.00  0.00    +0.000 HD
ENDBRANCH  11  12
ENDBRANCH   9  11
ENDBRANCH   1   4
BRANCH   1  17
ATOM     17  C   UNL     1      43.258   4.430  11.174  0.00  0.00    +0.000 C 
BRANCH  17  22
ATOM     18  C   UNL     1      46.478   2.511   7.689  0.00  0.00    +0.000 A 
ATOM     19  C   UNL     1      45.646   1.845   8.583  0.00  0.00    +0.000 A 
ATOM     20  C   UNL     1      44.733   2.583   9.337  0.00  0.00    +0.000 A 
ATOM     21  C   UNL     1      44.675   3.966   9.195  0.00  0.00    +0.000 A 
ATOM     22  N   UNL     1      43.726   4.749   9.819  0.00  0.00    +0.000 N 
ATOM     23  N   UNL     1      45.505   4.623   8.363  0.00  0.00    +0.000 NA
ATOM     24  C   UNL     1      46.390   3.892   7.635  0.00  0.00    +0.000 A 
ATOM     25  H   UNL     1      43.951   5.729   9.650  0.00  0.00    +0.000 HD
BRANCH  18  27
ATOM     26  N   UNL     1      48.574   2.470   6.468  0.00  0.00    +0.000 N 
ATOM     27  C   UNL     1      47.425   1.808   6.801  0.00  0.00    +0.000 C 
ATOM     28  O   UNL     1      47.212   0.666   6.416  0.00  0.00    +0.000 OA
ATOM     29  H   UNL     1      49.269   1.934   5.963  0.00  0.00    +0.000 HD
ATOM     30  H   UNL     1      48.897   3.282   6.976  0.00  0.00    +0.000 HD
ENDBRANCH  18  27
ENDBRANCH  17  22
ENDBRANCH   1  17
TORSDOF 6
ENDMDL
MODEL 3
REMARK VINA RESULT:    -7.991      2.799      4.475
REMARK INTER + INTRA:         -11.769
REMARK INTER:                 -10.757
REMARK INTRA:                  -1.012
REMARK UNBOUND:                -0.976
REMARK  Name = 
REMARK  6 active torsions:
REMARK  status: ('A' for Active; 'I' for Inactive)
REMARK    1  A    between atoms: C_2  and  C_4
REMARK    2  A    between atoms: N_8  and  C_9
REMARK    3  A    between atoms: C_9  and  C_10
REMARK    4  A    between atoms: C_10  and  C_13
REMARK    5  A    between atoms: C_18  and  O_19
REMARK    6  A    between atoms: O_19  and  C_20
REMARK                            x       y       z     vdW  Elec       q    Type
REMARK                         _______ _______ _______ _____ _____    ______ ____
ROOT
ATOM      1  C   UNL     1      43.501   4.773  12.475  0.00  0.00    +0.000 C 
ATOM      2  F   UNL     1      42.351   5.414  12.847  0.00  0.00    +0.000 F 
ATOM      3  F   UNL     1      43.728   3.848  13.453  0.00  0.00    +0.000 F 
ENDROOT
BRANCH   1   4
ATOM      4  C   UNL     1      44.669   5.737  12.345  0.00  0.00    +0.000 A 
ATOM      5  C   UNL     1      45.989   5.299  12.522  0.00  0.00    +0.000 A 
ATOM      6  C   UNL     1      47.052   6.193  12.369  0.00  0.00    +0.000 A 
ATOM      7  C   UNL     1      46.806   7.528  12.049  0.00  0.00    +0.000 A 
ATOM      8  F   UNL     1      47.860   8.341  11.883  0.00  0.00    +0.000 F 
ATOM      9  C   UNL     1      45.502   7.990  11.887  0.00  0.00    +0.000 A 
ATOM     10  C   UNL     1      44.441   7.088  12.028  0.00  0.00    +0.000 A 
BRANCH   9  11
ATOM     11  O   UNL     1      45.127   9.268  11.551  0.00  0.00    +0.000 OA
BRANCH  11  12
ATOM     12  C   UNL     1      43.823   9.496  10.968  0.00  0.00    +0.000 C 
ATOM     13  C   UNL     1      43.756  10.244   9.620  0.00  0.00    +0.000 C 
ATOM     14  N   UNL     1      42.783  11.196  10.178  0.00  0.00    +0.000 NA
ATOM     15  C   UNL     1      43.074  10.720  11.539  0.00  0.00    +0.000 C 
ATOM     16  H   UNL     1      41.823  11.029   9.881  0.00  0.00    +0.000 HD
ENDBRANCH  11  12
ENDBRANCH   9  11
ENDBRANCH   1   4
BRANCH   1  17
ATOM     17  C   UNL     1      43.227   4.034  11.138  0.00  0.00    +0.000 C 
BRANCH  17  22
ATOM     18  C   UNL     1      46.471   2.905   7.343  0.00  0.00    +0.000 A 
ATOM     19  C   UNL     1      46.067   4.149   7.819  0.00  0.00    +0.000 A 
ATOM     20  C   UNL     1      45.289   4.212   8.975  0.00  0.00    +0.000 A 
ATOM     21  C   UNL     1      44.918   3.039   9.626  0.00  0.00    +0.000 A 
ATOM     22  N   UNL     1      44.249   3.024  10.831  0.00  0.00    +0.000 N 
ATOM     23  N   UNL     1      45.269   1.830   9.149  0.00  0.00    +0.000 NA
ATOM     24  C   UNL     1      46.027   1.782   8.022  0.00  0.00    +0.000 A 
ATOM     25  H   UNL     1      43.997   2.061  11.052  0.00  0.00    +0.000 HD
BRANCH  18  27
ATOM     26  N   UNL     1      48.655   2.414   6.410  0.00  0.00    +0.000 N 
ATOM     27  C   UNL     1      47.351   2.745   6.169  0.00  0.00    +0.000 C 
ATOM     28  O   UNL     1      46.923   2.862   5.028  0.00  0.00    +0.000 OA
ATOM     29  H   UNL     1      49.217   2.186   5.598  0.00  0.00    +0.000 HD
ATOM     30  H   UNL     1      48.966   2.052   7.302  0.00  0.00    +0.000 HD
ENDBRANCH  18  27
ENDBRANCH  17  22
ENDBRANCH   1  17
TORSDOF 6
ENDMDL
MODEL 4
REMARK VINA RESULT:    -7.958      2.415      7.918
REMARK INTER + INTRA:         -11.726
REMARK INTER:                 -11.029
REMARK INTRA:                  -0.696
REMARK UNBOUND:                -0.976
REMARK  Name = 
REMARK  6 active torsions:
REMARK  status: ('A' for Active; 'I' for Inactive)
REMARK    1  A    between atoms: C_2  and  C_4
REMARK    2  A    between atoms: N_8  and  C_9
REMARK    3  A    between atoms: C_9  and  C_10
REMARK    4  A    between atoms: C_10  and  C_13
REMARK    5  A    between atoms: C_18  and  O_19
REMARK    6  A    between atoms: O_19  and  C_20
REMARK                            x       y       z     vdW  Elec       q    Type
REMARK                         _______ _______ _______ _____ _____    ______ ____
ROOT
ATOM      1  C   UNL     1      45.678   6.023  11.328  0.00  0.00    +0.000 C 
ATOM      2  F   UNL     1      44.759   7.011  11.099  0.00  0.00    +0.000 F 
ATOM      3  F   UNL     1      46.864   6.524  10.871  0.00  0.00    +0.000 F 
ENDROOT
BRANCH   1   4
ATOM      4  C   UNL     1      45.312   4.734  10.611  0.00  0.00    +0.000 A 
ATOM      5  C   UNL     1      44.638   3.702  11.280  0.00  0.00    +0.000 A 
ATOM      6  C   UNL     1      44.283   2.536  10.597  0.00  0.00    +0.000 A 
ATOM      7  C   UNL     1      44.606   2.387   9.248  0.00  0.00    +0.000 A 
ATOM      8  F   UNL     1      44.218   1.263   8.628  0.00  0.00    +0.000 F 
ATOM      9  C   UNL     1      45.293   3.390   8.568  0.00  0.00    +0.000 A 
ATOM     10  C   UNL     1      45.634   4.563   9.253  0.00  0.00    +0.000 A 
BRANCH   9  11
ATOM     11  O   UNL     1      45.649   3.377   7.242  0.00  0.00    +0.000 OA
BRANCH  11  12
ATOM     12  C   UNL     1      47.040   3.209   6.880  0.00  0.00    +0.000 C 
ATOM     13  C   UNL     1      47.371   2.903   5.405  0.00  0.00    +0.000 C 
ATOM     14  N   UNL     1      48.169   1.736   5.808  0.00  0.00    +0.000 NA
ATOM     15  C   UNL     1      47.609   1.803   7.167  0.00  0.00    +0.000 C 
ATOM     16  H   UNL     1      49.176   1.890   5.771  0.00  0.00    +0.000 HD
ENDBRANCH  11  12
ENDBRANCH   9  11
ENDBRANCH   1   4
BRANCH   1  17
ATOM     17  C   UNL     1      45.779   5.808  12.861  0.00  0.00    +0.000 C 
BRANCH  17  22
ATOM     18  C   UNL     1      48.486   4.493  17.001  0.00  0.00    +0.000 A 
ATOM     19  C   UNL     1      47.465   3.800  16.356  0.00  0.00    +0.000 A 
ATOM     20  C   UNL     1      46.977   4.287  15.144  0.00  0.00    +0.000 A 
ATOM     21  C   UNL     1      47.504   5.456  14.604  0.00  0.00    +0.000 A 
ATOM     22  N   UNL     1      47.155   5.937  13.360  0.00  0.00    +0.000 N 
ATOM     23  N   UNL     1      48.462   6.155  15.242  0.00  0.00    +0.000 NA
ATOM     24  C   UNL     1      48.929   5.670  16.422  0.00  0.00    +0.000 A 
ATOM     25  H   UNL     1      47.586   6.852  13.231  0.00  0.00    +0.000 HD
BRANCH  18  27
ATOM     26  N   UNL     1      48.342   3.243  19.075  0.00  0.00    +0.000 N 
ATOM     27  C   UNL     1      49.110   4.016  18.251  0.00  0.00    +0.000 C 
ATOM     28  O   UNL     1      50.279   4.267  18.517  0.00  0.00    +0.000 OA
ATOM     29  H   UNL     1      48.816   2.821  19.865  0.00  0.00    +0.000 HD
ATOM     30  H   UNL     1      47.486   2.804  18.762  0.00  0.00    +0.000 HD
ENDBRANCH  18  27
ENDBRANCH  17  22
ENDBRANCH   1  17
TORSDOF 6
ENDMDL
MODEL 5
REMARK VINA RESULT:    -6.978      3.321      7.477
REMARK INTER + INTRA:         -10.401
REMARK INTER:                  -9.623
REMARK INTRA:                  -0.778
REMARK UNBOUND:                -0.976
REMARK  Name = 
REMARK  6 active torsions:
REMARK  status: ('A' for Active; 'I' for Inactive)
REMARK    1  A    between atoms: C_2  and  C_4
REMARK    2  A    between atoms: N_8  and  C_9
REMARK    3  A    between atoms: C_9  and  C_10
REMARK    4  A    between atoms: C_10  and  C_13
REMARK    5  A    between atoms: C_18  and  O_19
REMARK    6  A    between atoms: O_19  and  C_20
REMARK                            x       y       z     vdW  Elec       q    Type
REMARK                         _______ _______ _______ _____ _____    ______ ____
ROOT
ATOM      1  C   UNL     1      44.940   5.905  11.391  0.00  0.00    +0.000 C 
ATOM      2  F   UNL     1      43.714   6.415  11.721  0.00  0.00    +0.000 F 
ATOM      3  F   UNL     1      45.538   6.871  10.632  0.00  0.00    +0.000 F 
ENDROOT
BRANCH   1   4
ATOM      4  C   UNL     1      44.821   4.598  10.625  0.00  0.00    +0.000 A 
ATOM      5  C   UNL     1      44.274   3.456  11.226  0.00  0.00    +0.000 A 
ATOM      6  C   UNL     1      44.145   2.271  10.496  0.00  0.00    +0.000 A 
ATOM      7  C   UNL     1      44.569   2.215   9.168  0.00  0.00    +0.000 A 
ATOM      8  F   UNL     1      44.397   1.065   8.500  0.00  0.00    +0.000 F 
ATOM      9  C   UNL     1      45.134   3.331   8.556  0.00  0.00    +0.000 A 
ATOM     10  C   UNL     1      45.249   4.520   9.287  0.00  0.00    +0.000 A 
BRANCH   9  11
ATOM     11  O   UNL     1      45.568   3.413   7.256  0.00  0.00    +0.000 OA
BRANCH  11  12
ATOM     12  C   UNL     1      46.973   3.225   6.962  0.00  0.00    +0.000 C 
ATOM     13  C   UNL     1      47.370   2.915   5.504  0.00  0.00    +0.000 C 
ATOM     14  N   UNL     1      48.131   1.736   5.944  0.00  0.00    +0.000 NA
ATOM     15  C   UNL     1      47.507   1.810   7.274  0.00  0.00    +0.000 C 
ATOM     16  H   UNL     1      49.141   1.875   5.956  0.00  0.00    +0.000 HD
ENDBRANCH  11  12
ENDBRANCH   9  11
ENDBRANCH   1   4
BRANCH   1  17
ATOM     17  C   UNL     1      45.752   5.720  12.701  0.00  0.00    +0.000 C 
BRANCH  17  22
ATOM     18  C   UNL     1      50.224   8.146  13.261  0.00  0.00    +0.000 A 
ATOM     19  C   UNL     1      49.784   7.333  12.221  0.00  0.00    +0.000 A 
ATOM     20  C   UNL     1      48.457   6.904  12.210  0.00  0.00    +0.000 A 
ATOM     21  C   UNL     1      47.599   7.281  13.239  0.00  0.00    +0.000 A 
ATOM     22  N   UNL     1      46.251   6.992  13.240  0.00  0.00    +0.000 N 
ATOM     23  N   UNL     1      48.027   8.032  14.271  0.00  0.00    +0.000 NA
ATOM     24  C   UNL     1      49.322   8.443  14.269  0.00  0.00    +0.000 A 
ATOM     25  H   UNL     1      45.858   7.274  14.138  0.00  0.00    +0.000 HD
BRANCH  18  27
ATOM     26  N   UNL     1      52.518   8.164  12.472  0.00  0.00    +0.000 N 
ATOM     27  C   UNL     1      51.589   8.702  13.319  0.00  0.00    +0.000 C 
ATOM     28  O   UNL     1      51.869   9.634  14.063  0.00  0.00    +0.000 OA
ATOM     29  H   UNL     1      53.414   8.634  12.432  0.00  0.00    +0.000 HD
ATOM     30  H   UNL     1      52.259   7.596  11.677  0.00  0.00    +0.000 HD
ENDBRANCH  18  27
ENDBRANCH  17  22
ENDBRANCH   1  17
TORSDOF 6
ENDMDL
MODEL 6
REMARK VINA RESULT:    -6.821      3.099      7.463
REMARK INTER + INTRA:         -10.190
REMARK INTER:                  -9.076
REMARK INTRA:                  -1.115
REMARK UNBOUND:                -0.976
REMARK  Name = 
REMARK  6 active torsions:
REMARK  status: ('A' for Active; 'I' for Inactive)
REMARK    1  A    between atoms: C_2  and  C_4
REMARK    2  A    between atoms: N_8  and  C_9
REMARK    3  A    between atoms: C_9  and  C_10
REMARK    4  A    between atoms: C_10  and  C_13
REMARK    5  A    between atoms: C_18  and  O_19
REMARK    6  A    between atoms: O_19  and  C_20
REMARK                            x       y       z     vdW  Elec       q    Type
REMARK                         _______ _______ _______ _____ _____    ______ ____
ROOT
ATOM      1  C   UNL     1      48.813   7.910  12.404  0.00  0.00    +0.000 C 
ATOM      2  F   UNL     1      49.487   8.806  11.619  0.00  0.00    +0.000 F 
ATOM      3  F   UNL     1      49.401   6.702  12.155  0.00  0.00    +0.000 F 
ENDROOT
BRANCH   1   4
ATOM      4  C   UNL     1      47.329   7.877  12.079  0.00  0.00    +0.000 A 
ATOM      5  C   UNL     1      46.513   8.992  12.319  0.00  0.00    +0.000 A 
ATOM      6  C   UNL     1      45.156   8.954  11.986  0.00  0.00    +0.000 A 
ATOM      7  C   UNL     1      44.604   7.804  11.422  0.00  0.00    +0.000 A 
ATOM      8  F   UNL     1      43.305   7.825  11.091  0.00  0.00    +0.000 F 
ATOM      9  C   UNL     1      45.391   6.678  11.192  0.00  0.00    +0.000 A 
ATOM     10  C   UNL     1      46.753   6.725  11.515  0.00  0.00    +0.000 A 
BRANCH   9  11
ATOM     11  O   UNL     1      44.977   5.498  10.625  0.00  0.00    +0.000 OA
BRANCH  11  12
ATOM     12  C   UNL     1      44.540   4.413  11.478  0.00  0.00    +0.000 C 
ATOM     13  C   UNL     1      44.322   3.030  10.832  0.00  0.00    +0.000 C 
ATOM     14  N   UNL     1      42.971   2.956  11.406  0.00  0.00    +0.000 NA
ATOM     15  C   UNL     1      43.020   4.385  11.747  0.00  0.00    +0.000 C 
ATOM     16  H   UNL     1      42.898   2.342  12.217  0.00  0.00    +0.000 HD
ENDBRANCH  11  12
ENDBRANCH   9  11
ENDBRANCH   1   4
BRANCH   1  17
ATOM     17  C   UNL     1      49.059   8.292  13.888  0.00  0.00    +0.000 C 
BRANCH  17  22
ATOM     18  C   UNL     1      48.109   4.358  17.022  0.00  0.00    +0.000 A 
ATOM     19  C   UNL     1      47.381   4.810  15.925  0.00  0.00    +0.000 A 
ATOM     20  C   UNL     1      47.920   5.813  15.120  0.00  0.00    +0.000 A 
ATOM     21  C   UNL     1      49.165   6.354  15.427  0.00  0.00    +0.000 A 
ATOM     22  N   UNL     1      49.812   7.264  14.619  0.00  0.00    +0.000 N 
ATOM     23  N   UNL     1      49.857   5.953  16.510  0.00  0.00    +0.000 NA
ATOM     24  C   UNL     1      49.321   4.975  17.286  0.00  0.00    +0.000 A 
ATOM     25  H   UNL     1      50.649   7.591  15.101  0.00  0.00    +0.000 HD
BRANCH  18  27
ATOM     26  N   UNL     1      48.343   3.045  19.048  0.00  0.00    +0.000 N 
ATOM     27  C   UNL     1      47.650   3.256  17.888  0.00  0.00    +0.000 C 
ATOM     28  O   UNL     1      46.665   2.586  17.603  0.00  0.00    +0.000 OA
ATOM     29  H   UNL     1      47.946   2.370  19.690  0.00  0.00    +0.000 HD
ATOM     30  H   UNL     1      48.973   3.735  19.434  0.00  0.00    +0.000 HD
ENDBRANCH  18  27
ENDBRANCH  17  22
ENDBRANCH   1  17
TORSDOF 6
ENDMDL
MODEL 7
REMARK VINA RESULT:    -6.628      4.376      6.111
REMARK INTER + INTRA:          -9.929
REMARK INTER:                  -8.894
REMARK INTRA:                  -1.036
REMARK UNBOUND:                -0.976
REMARK  Name = 
REMARK  6 active torsions:
REMARK  status: ('A' for Active; 'I' for Inactive)
REMARK    1  A    between atoms: C_2  and  C_4
REMARK    2  A    between atoms: N_8  and  C_9
REMARK    3  A    between atoms: C_9  and  C_10
REMARK    4  A    between atoms: C_10  and  C_13
REMARK    5  A    between atoms: C_18  and  O_19
REMARK    6  A    between atoms: O_19  and  C_20
REMARK                            x       y       z     vdW  Elec       q    Type
REMARK                         _______ _______ _______ _____ _____    ______ ____
ROOT
ATOM      1  C   UNL     1      49.535   8.521  14.517  0.00  0.00    +0.000 C 
ATOM      2  F   UNL     1      50.071   9.779  14.545  0.00  0.00    +0.000 F 
ATOM      3  F   UNL     1      48.266   8.662  15.003  0.00  0.00    +0.000 F 
ENDROOT
BRANCH   1   4
ATOM      4  C   UNL     1      50.341   7.543  15.356  0.00  0.00    +0.000 A 
ATOM      5  C   UNL     1      51.739   7.626  15.417  0.00  0.00    +0.000 A 
ATOM      6  C   UNL     1      52.460   6.737  16.218  0.00  0.00    +0.000 A 
ATOM      7  C   UNL     1      51.796   5.756  16.953  0.00  0.00    +0.000 A 
ATOM      8  F   UNL     1      52.529   4.945  17.730  0.00  0.00    +0.000 F 
ATOM      9  C   UNL     1      50.409   5.642  16.892  0.00  0.00    +0.000 A 
ATOM     10  C   UNL     1      49.688   6.543  16.100  0.00  0.00    +0.000 A 
BRANCH   9  11
ATOM     11  O   UNL     1      49.636   4.739  17.581  0.00  0.00    +0.000 OA
BRANCH  11  12
ATOM     12  C   UNL     1      48.358   4.335  17.035  0.00  0.00    +0.000 C 
ATOM     13  C   UNL     1      47.104   4.531  17.910  0.00  0.00    +0.000 C 
ATOM     14  N   UNL     1      46.725   3.124  17.714  0.00  0.00    +0.000 NA
ATOM     15  C   UNL     1      48.057   2.826  17.165  0.00  0.00    +0.000 C 
ATOM     16  H   UNL     1      45.967   2.988  17.047  0.00  0.00    +0.000 HD
ENDBRANCH  11  12
ENDBRANCH   9  11
ENDBRANCH   1   4
BRANCH   1  17
ATOM     17  C   UNL     1      49.458   8.065  13.035  0.00  0.00    +0.000 C 
BRANCH  17  22
ATOM     18  C   UNL     1      45.151   5.301  13.151  0.00  0.00    +0.000 A 
ATOM     19  C   UNL     1      45.367   6.580  12.646  0.00  0.00    +0.000 A 
ATOM     20  C   UNL     1      46.670   7.073  12.582  0.00  0.00    +0.000 A 
ATOM     21  C   UNL     1      47.730   6.290  13.031  0.00  0.00    +0.000 A 
ATOM     22  N   UNL     1      49.051   6.660  12.897  0.00  0.00    +0.000 N 
ATOM     23  N   UNL     1      47.526   5.069  13.560  0.00  0.00    +0.000 NA
ATOM     24  C   UNL     1      46.252   4.600  13.616  0.00  0.00    +0.000 A 
ATOM     25  H   UNL     1      49.631   5.983  13.392  0.00  0.00    +0.000 HD
BRANCH  18  27
ATOM     26  N   UNL     1      42.735   5.500  13.080  0.00  0.00    +0.000 N 
ATOM     27  C   UNL     1      43.817   4.672  13.193  0.00  0.00    +0.000 C 
ATOM     28  O   UNL     1      43.685   3.458  13.281  0.00  0.00    +0.000 OA
ATOM     29  H   UNL     1      41.833   5.049  12.986  0.00  0.00    +0.000 HD
ATOM     30  H   UNL     1      42.813   6.449  12.741  0.00  0.00    +0.000 HD
ENDBRANCH  18  27
ENDBRANCH  17  22
ENDBRANCH   1  17
TORSDOF 6
ENDMDL
