MODEL 1
REMARK VINA RESULT:    -7.026      0.000      0.000
REMARK INTER + INTRA:          -9.568
REMARK INTER:                  -8.874
REMARK INTRA:                  -0.695
REMARK UNBOUND:                -0.695
REMARK  Name = 
REMARK  5 active torsions:
REMARK  status: ('A' for Active; 'I' for Inactive)
REMARK    1  A    between atoms: N_1  and  C_2
REMARK    2  A    between atoms: C_2  and  C_3
REMARK    3  A    between atoms: C_3  and  C_4
REMARK    4  A    between atoms: C_8  and  C_9
REMARK    5  A    between atoms: C_9  and  N_10
REMARK                            x       y       z     vdW  Elec       q    Type
REMARK                         _______ _______ _______ _____ _____    ______ ____
ROOT
ATOM      1  C   UNL     1      45.819   3.536   8.098  0.00  0.00    +0.000 A 
ATOM      2  C   UNL     1      45.617   2.177   8.380  0.00  0.00    +0.000 A 
ATOM      3  C   UNL     1      44.756   1.783   9.402  0.00  0.00    +0.000 A 
ATOM      4  C   UNL     1      44.081   2.734  10.152  0.00  0.00    +0.000 A 
ATOM      5  C   UNL     1      44.258   4.099   9.877  0.00  0.00    +0.000 A 
ATOM      6  C   UNL     1      45.140   4.493   8.864  0.00  0.00    +0.000 A 
ENDROOT
BRANCH   1   7
ATOM      7  C   UNL     1      46.761   3.956   6.992  0.00  0.00    +0.000 C 
BRANCH   7   8
ATOM      8  C   UNL     1      47.153   2.792   6.078  0.00  0.00    +0.000 C 
BRANCH   8   9
ATOM      9  N   UNL     1      48.577   2.479   6.215  0.00  0.00    +0.000 NA
ATOM     10  H   UNL     1      48.683   1.490   6.448  0.00  0.00    +0.000 HD
ATOM     11  H   UNL     1      48.966   3.004   6.998  0.00  0.00    +0.000 HD
ENDBRANCH   8   9
ENDBRANCH   7   8
ENDBRANCH   1   7
BRANCH   5  12
ATOM     12  C   UNL     1      43.489   5.132  10.675  0.00  0.00    +0.000 C 
BRANCH  12  13
ATOM     13  N   UNL     1      44.337   6.016  11.465  0.00  0.00    +0.000 N 
ATOM     14  C   UNL     1      44.584   7.331  11.145  0.00  0.00    +0.000 A 
ATOM     15  C   UNL     1      45.563   7.801  11.988  0.00  0.00    +0.000 A 
ATOM     16  C   UNL     1      46.107   6.671  12.649  0.00  0.00    +0.000 A 
ATOM     17  C   UNL     1      47.285   6.453  13.387  0.00  0.00    +0.000 A 
ATOM     18  C   UNL     1      47.533   5.185  13.918  0.00  0.00    +0.000 A 
ATOM     19  C   UNL     1      46.575   4.180  13.820  0.00  0.00    +0.000 A 
ATOM     20  C   UNL     1      45.396   4.375  13.094  0.00  0.00    +0.000 A 
ATOM     21  C   UNL     1      45.231   5.605  12.435  0.00  0.00    +0.000 A 
ENDBRANCH  12  13
ENDBRANCH   5  12
TORSDOF 5
ENDMDL
MODEL 2
REMARK VINA RESULT:    -6.977      1.796      6.086
REMARK INTER + INTRA:          -9.507
REMARK INTER:                  -8.958
REMARK INTRA:                  -0.549
REMARK UNBOUND:                -0.695
REMARK  Name = 
REMARK  5 active torsions:
REMARK  status: ('A' for Active; 'I' for Inactive)
REMARK    1  A    between atoms: N_1  and  C_2
REMARK    2  A    between atoms: C_2  and  C_3
REMARK    3  A    between atoms: C_3  and  C_4
REMARK    4  A    between atoms: C_8  and  C_9
REMARK    5  A    between atoms: C_9  and  N_10
REMARK                            x       y       z     vdW  Elec       q    Type
REMARK                         _______ _______ _______ _____ _____    ______ ____
ROOT
ATOM      1  C   UNL     1      45.797   5.346  12.603  0.00  0.00    +0.000 A 
ATOM      2  C   UNL     1      44.565   5.499  13.257  0.00  0.00    +0.000 A 
ATOM      3  C   UNL     1      43.370   5.448  12.545  0.00  0.00    +0.000 A 
ATOM      4  C   UNL     1      43.383   5.237  11.174  0.00  0.00    +0.000 A 
ATOM      5  C   UNL     1      44.603   5.068  10.501  0.00  0.00    +0.000 A 
ATOM      6  C   UNL     1      45.804   5.140  11.218  0.00  0.00    +0.000 A 
ENDROOT
BRANCH   1   7
ATOM      7  C   UNL     1      47.091   5.410  13.384  0.00  0.00    +0.000 C 
BRANCH   7   8
ATOM      8  C   UNL     1      47.029   4.620  14.694  0.00  0.00    +0.000 C 
BRANCH   8   9
ATOM      9  N   UNL     1      47.429   3.227  14.479  0.00  0.00    +0.000 NA
ATOM     10  H   UNL     1      47.957   2.901  15.291  0.00  0.00    +0.000 HD
ATOM     11  H   UNL     1      48.060   3.174  13.682  0.00  0.00    +0.000 HD
ENDBRANCH   8   9
ENDBRANCH   7   8
ENDBRANCH   1   7
BRANCH   5  12
ATOM     12  C   UNL     1      44.609   4.801   9.010  0.00  0.00    +0.000 C 
BRANCH  12  13
ATOM     13  N   UNL     1      44.885   3.413   8.663  0.00  0.00    +0.000 N 
ATOM     14  C   UNL     1      44.480   2.337   9.419  0.00  0.00    +0.000 A 
ATOM     15  C   UNL     1      45.067   1.206   8.904  0.00  0.00    +0.000 A 
ATOM     16  C   UNL     1      46.058   1.643   7.989  0.00  0.00    +0.000 A 
ATOM     17  C   UNL     1      47.157   1.014   7.376  0.00  0.00    +0.000 A 
ATOM     18  C   UNL     1      47.963   1.746   6.501  0.00  0.00    +0.000 A 
ATOM     19  C   UNL     1      47.617   3.047   6.146  0.00  0.00    +0.000 A 
ATOM     20  C   UNL     1      46.526   3.691   6.740  0.00  0.00    +0.000 A 
ATOM     21  C   UNL     1      45.818   2.994   7.734  0.00  0.00    +0.000 A 
ENDBRANCH  12  13
ENDBRANCH   5  12
TORSDOF 5
ENDMDL
MODEL 3
REMARK VINA RESULT:    -6.679      1.266      2.270
REMARK INTER + INTRA:          -9.130
REMARK INTER:                  -8.644
REMARK INTRA:                  -0.487
REMARK UNBOUND:                -0.695
REMARK  Name = 
REMARK  5 active torsions:
REMARK  status: ('A' for Active; 'I' for Inactive)
REMARK    1  A    between atoms: N_1  and  C_2
REMARK    2  A    between atoms: C_2  and  C_3
REMARK    3  A    between atoms: C_3  and  C_4
REMARK    4  A    between atoms: C_8  and  C_9
REMARK    5  A    between atoms: C_9  and  N_10
REMARK                            x       y       z     vdW  Elec       q    Type
REMARK                         _______ _______ _______ _____ _____    ______ ____
ROOT
ATOM      1  C   UNL     1      45.776   3.549   7.996  0.00  0.00    +0.000 A 
ATOM      2  C   UNL     1      45.004   2.416   8.292  0.00  0.00    +0.000 A 
ATOM      3  C   UNL     1      44.293   2.331   9.486  0.00  0.00    +0.000 A 
ATOM      4  C   UNL     1      44.335   3.375  10.399  0.00  0.00    +0.000 A 
ATOM      5  C   UNL     1      45.091   4.524  10.118  0.00  0.00    +0.000 A 
ATOM      6  C   UNL     1      45.821   4.597   8.925  0.00  0.00    +0.000 A 
ENDROOT
BRANCH   1   7
ATOM      7  C   UNL     1      46.552   3.630   6.701  0.00  0.00    +0.000 C 
BRANCH   7   8
ATOM      8  C   UNL     1      47.068   2.265   6.237  0.00  0.00    +0.000 C 
BRANCH   8   9
ATOM      9  N   UNL     1      48.399   2.389   5.637  0.00  0.00    +0.000 NA
ATOM     10  H   UNL     1      48.623   1.527   5.137  0.00  0.00    +0.000 HD
ATOM     11  H   UNL     1      49.095   2.486   6.374  0.00  0.00    +0.000 HD
ENDBRANCH   8   9
ENDBRANCH   7   8
ENDBRANCH   1   7
BRANCH   5  12
ATOM     12  C   UNL     1      45.103   5.675  11.102  0.00  0.00    +0.000 C 
BRANCH  12  13
ATOM     13  N   UNL     1      46.057   5.508  12.190  0.00  0.00    +0.000 N 
ATOM     14  C   UNL     1      45.810   4.765  13.321  0.00  0.00    +0.000 A 
ATOM     15  C   UNL     1      46.838   4.979  14.208  0.00  0.00    +0.000 A 
ATOM     16  C   UNL     1      47.580   6.081  13.713  0.00  0.00    +0.000 A 
ATOM     17  C   UNL     1      48.536   6.941  14.282  0.00  0.00    +0.000 A 
ATOM     18  C   UNL     1      49.090   7.959  13.502  0.00  0.00    +0.000 A 
ATOM     19  C   UNL     1      48.790   8.050  12.146  0.00  0.00    +0.000 A 
ATOM     20  C   UNL     1      47.844   7.204  11.557  0.00  0.00    +0.000 A 
ATOM     21  C   UNL     1      47.182   6.286  12.390  0.00  0.00    +0.000 A 
ENDBRANCH  12  13
ENDBRANCH   5  12
TORSDOF 5
ENDMDL
MODEL 4
REMARK VINA RESULT:    -6.670      2.009      5.894
REMARK INTER + INTRA:          -9.119
REMARK INTER:                  -8.364
REMARK INTRA:                  -0.755
REMARK UNBOUND:                -0.695
REMARK  Name = 
REMARK  5 active torsions:
REMARK  status: ('A' for Active; 'I' for Inactive)
REMARK    1  A    between atoms: N_1  and  C_2
REMARK    2  A    between atoms: C_2  and  C_3
REMARK    3  A    between atoms: C_3  and  C_4
REMARK    4  A    between atoms: C_8  and  C_9
REMARK    5  A    between atoms: C_9  and  N_10
REMARK                            x       y       z     vdW  Elec       q    Type
REMARK                         _______ _______ _______ _____ _____    ______ ____
ROOT
ATOM      1  C   UNL     1      47.519   5.980  13.854  0.00  0.00    +0.000 A 
ATOM      2  C   UNL     1      48.469   6.636  13.057  0.00  0.00    +0.000 A 
ATOM      3  C   UNL     1      48.121   7.142  11.807  0.00  0.00    +0.000 A 
ATOM      4  C   UNL     1      46.823   7.010  11.337  0.00  0.00    +0.000 A 
ATOM      5  C   UNL     1      45.854   6.369  12.124  0.00  0.00    +0.000 A 
ATOM      6  C   UNL     1      46.211   5.842  13.371  0.00  0.00    +0.000 A 
ENDROOT
BRANCH   1   7
ATOM      7  C   UNL     1      47.906   5.426  15.207  0.00  0.00    +0.000 C 
BRANCH   7   8
ATOM      8  C   UNL     1      47.099   4.181  15.587  0.00  0.00    +0.000 C 
BRANCH   8   9
ATOM      9  N   UNL     1      47.813   2.961  15.201  0.00  0.00    +0.000 NA
ATOM     10  H   UNL     1      47.950   2.377  16.027  0.00  0.00    +0.000 HD
ATOM     11  H   UNL     1      48.742   3.205  14.861  0.00  0.00    +0.000 HD
ENDBRANCH   8   9
ENDBRANCH   7   8
ENDBRANCH   1   7
BRANCH   5  12
ATOM     12  C   UNL     1      44.429   6.260  11.620  0.00  0.00    +0.000 C 
BRANCH  12  13
ATOM     13  N   UNL     1      44.052   4.913  11.210  0.00  0.00    +0.000 N 
ATOM     14  C   UNL     1      43.444   3.999  12.040  0.00  0.00    +0.000 A 
ATOM     15  C   UNL     1      43.407   2.789  11.391  0.00  0.00    +0.000 A 
ATOM     16  C   UNL     1      44.250   2.909  10.257  0.00  0.00    +0.000 A 
ATOM     17  C   UNL     1      44.842   1.977   9.386  0.00  0.00    +0.000 A 
ATOM     18  C   UNL     1      45.645   2.436   8.339  0.00  0.00    +0.000 A 
ATOM     19  C   UNL     1      45.763   3.799   8.086  0.00  0.00    +0.000 A 
ATOM     20  C   UNL     1      45.181   4.744   8.937  0.00  0.00    +0.000 A 
ATOM     21  C   UNL     1      44.506   4.270  10.075  0.00  0.00    +0.000 A 
ENDBRANCH  12  13
ENDBRANCH   5  12
TORSDOF 5
ENDMDL
MODEL 5
REMARK VINA RESULT:    -6.605      1.758      6.077
REMARK INTER + INTRA:          -9.037
REMARK INTER:                  -8.573
REMARK INTRA:                  -0.464
REMARK UNBOUND:                -0.695
REMARK  Name = 
REMARK  5 active torsions:
REMARK  status: ('A' for Active; 'I' for Inactive)
REMARK    1  A    between atoms: N_1  and  C_2
REMARK    2  A    between atoms: C_2  and  C_3
REMARK    3  A    between atoms: C_3  and  C_4
REMARK    4  A    between atoms: C_8  and  C_9
REMARK    5  A    between atoms: C_9  and  N_10
REMARK                            x       y       z     vdW  Elec       q    Type
REMARK                         _______ _______ _______ _____ _____    ______ ____
ROOT
ATOM      1  C   UNL     1      46.554   6.248  12.056  0.00  0.00    +0.000 A 
ATOM      2  C   UNL     1      46.468   5.385  13.158  0.00  0.00    +0.000 A 
ATOM      3  C   UNL     1      45.658   4.253  13.113  0.00  0.00    +0.000 A 
ATOM      4  C   UNL     1      44.929   3.961  11.970  0.00  0.00    +0.000 A 
ATOM      5  C   UNL     1      45.010   4.805  10.851  0.00  0.00    +0.000 A 
ATOM      6  C   UNL     1      45.809   5.953  10.907  0.00  0.00    +0.000 A 
ENDROOT
BRANCH   1   7
ATOM      7  C   UNL     1      47.430   7.480  12.116  0.00  0.00    +0.000 C 
BRANCH   7   8
ATOM      8  C   UNL     1      46.676   8.715  12.616  0.00  0.00    +0.000 C 
BRANCH   8   9
ATOM      9  N   UNL     1      46.775   8.831  14.072  0.00  0.00    +0.000 NA
ATOM     10  H   UNL     1      47.279   8.022  14.440  0.00  0.00    +0.000 HD
ATOM     11  H   UNL     1      45.842   8.800  14.480  0.00  0.00    +0.000 HD
ENDBRANCH   8   9
ENDBRANCH   7   8
ENDBRANCH   1   7
BRANCH   5  12
ATOM     12  C   UNL     1      44.240   4.461   9.593  0.00  0.00    +0.000 C 
BRANCH  12  13
ATOM     13  N   UNL     1      44.665   3.216   8.966  0.00  0.00    +0.000 N 
ATOM     14  C   UNL     1      44.325   1.966   9.431  0.00  0.00    +0.000 A 
ATOM     15  C   UNL     1      45.044   1.035   8.721  0.00  0.00    +0.000 A 
ATOM     16  C   UNL     1      46.036   1.748   8.001  0.00  0.00    +0.000 A 
ATOM     17  C   UNL     1      47.221   1.367   7.346  0.00  0.00    +0.000 A 
ATOM     18  C   UNL     1      47.998   2.344   6.717  0.00  0.00    +0.000 A 
ATOM     19  C   UNL     1      47.548   3.658   6.637  0.00  0.00    +0.000 A 
ATOM     20  C   UNL     1      46.372   4.059   7.279  0.00  0.00    +0.000 A 
ATOM     21  C   UNL     1      45.682   3.098   8.037  0.00  0.00    +0.000 A 
ENDBRANCH  12  13
ENDBRANCH   5  12
TORSDOF 5
ENDMDL
MODEL 6
REMARK VINA RESULT:    -6.317      2.183      5.520
REMARK INTER + INTRA:          -8.673
REMARK INTER:                  -8.117
REMARK INTRA:                  -0.556
REMARK UNBOUND:                -0.695
REMARK  Name = 
REMARK  5 active torsions:
REMARK  status: ('A' for Active; 'I' for Inactive)
REMARK    1  A    between atoms: N_1  and  C_2
REMARK    2  A    between atoms: C_2  and  C_3
REMARK    3  A    between atoms: C_3  and  C_4
REMARK    4  A    between atoms: C_8  and  C_9
REMARK    5  A    between atoms: C_9  and  N_10
REMARK                            x       y       z     vdW  Elec       q    Type
REMARK                         _______ _______ _______ _____ _____    ______ ____
ROOT
ATOM      1  C   UNL     1      47.919   7.333  12.305  0.00  0.00    +0.000 A 
ATOM      2  C   UNL     1      48.265   6.457  13.344  0.00  0.00    +0.000 A 
ATOM      3  C   UNL     1      47.349   5.524  13.823  0.00  0.00    +0.000 A 
ATOM      4  C   UNL     1      46.079   5.447  13.272  0.00  0.00    +0.000 A 
ATOM      5  C   UNL     1      45.716   6.305  12.223  0.00  0.00    +0.000 A 
ATOM      6  C   UNL     1      46.632   7.255  11.757  0.00  0.00    +0.000 A 
ENDROOT
BRANCH   1   7
ATOM      7  C   UNL     1      48.917   8.349  11.795  0.00  0.00    +0.000 C 
BRANCH   7   8
ATOM      8  C   UNL     1      50.240   7.709  11.363  0.00  0.00    +0.000 C 
BRANCH   8   9
ATOM      9  N   UNL     1      51.252   7.848  12.413  0.00  0.00    +0.000 NA
ATOM     10  H   UNL     1      51.865   8.633  12.185  0.00  0.00    +0.000 HD
ATOM     11  H   UNL     1      51.840   7.017  12.430  0.00  0.00    +0.000 HD
ENDBRANCH   8   9
ENDBRANCH   7   8
ENDBRANCH   1   7
BRANCH   5  12
ATOM     12  C   UNL     1      44.339   6.190  11.599  0.00  0.00    +0.000 C 
BRANCH  12  13
ATOM     13  N   UNL     1      44.017   4.849  11.131  0.00  0.00    +0.000 N 
ATOM     14  C   UNL     1      43.396   3.894  11.903  0.00  0.00    +0.000 A 
ATOM     15  C   UNL     1      43.420   2.704  11.215  0.00  0.00    +0.000 A 
ATOM     16  C   UNL     1      44.311   2.882  10.126  0.00  0.00    +0.000 A 
ATOM     17  C   UNL     1      44.966   1.993   9.255  0.00  0.00    +0.000 A 
ATOM     18  C   UNL     1      45.804   2.505   8.260  0.00  0.00    +0.000 A 
ATOM     19  C   UNL     1      45.898   3.879   8.057  0.00  0.00    +0.000 A 
ATOM     20  C   UNL     1      45.252   4.781   8.909  0.00  0.00    +0.000 A 
ATOM     21  C   UNL     1      44.539   4.253   9.998  0.00  0.00    +0.000 A 
ENDBRANCH  12  13
ENDBRANCH   5  12
TORSDOF 5
ENDMDL
MODEL 7
REMARK VINA RESULT:    -5.755      1.998      3.976
REMARK INTER + INTRA:          -7.964
REMARK INTER:                  -7.394
REMARK INTRA:                  -0.569
REMARK UNBOUND:                -0.695
REMARK  Name = 
REMARK  5 active torsions:
REMARK  status: ('A' for Active; 'I' for Inactive)
REMARK    1  A    between atoms: N_1  and  C_2
REMARK    2  A    between atoms: C_2  and  C_3
REMARK    3  A    between atoms: C_3  and  C_4
REMARK    4  A    between atoms: C_8  and  C_9
REMARK    5  A    between atoms: C_9  and  N_10
REMARK                            x       y       z     vdW  Elec       q    Type
REMARK                         _______ _______ _______ _____ _____    ______ ____
ROOT
ATOM      1  C   UNL     1      44.581   3.634  10.918  0.00  0.00    +0.000 A 
ATOM      2  C   UNL     1      43.238   3.892  11.228  0.00  0.00    +0.000 A 
ATOM      3  C   UNL     1      42.900   4.710  12.303  0.00  0.00    +0.000 A 
ATOM      4  C   UNL     1      43.893   5.288  13.080  0.00  0.00    +0.000 A 
ATOM      5  C   UNL     1      45.244   5.053  12.780  0.00  0.00    +0.000 A 
ATOM      6  C   UNL     1      45.580   4.214  11.711  0.00  0.00    +0.000 A 
ENDROOT
BRANCH   1   7
ATOM      7  C   UNL     1      44.939   2.737   9.754  0.00  0.00    +0.000 C 
BRANCH   7   8
ATOM      8  C   UNL     1      44.728   3.419   8.399  0.00  0.00    +0.000 C 
BRANCH   8   9
ATOM      9  N   UNL     1      45.362   4.739   8.377  0.00  0.00    +0.000 NA
ATOM     10  H   UNL     1      46.366   4.632   8.535  0.00  0.00    +0.000 HD
ATOM     11  H   UNL     1      45.006   5.299   9.150  0.00  0.00    +0.000 HD
ENDBRANCH   8   9
ENDBRANCH   7   8
ENDBRANCH   1   7
BRANCH   5  12
ATOM     12  C   UNL     1      46.324   5.717  13.609  0.00  0.00    +0.000 C 
BRANCH  12  13
ATOM     13  N   UNL     1      47.136   6.669  12.863  0.00  0.00    +0.000 N 
ATOM     14  C   UNL     1      48.508   6.605  12.773  0.00  0.00    +0.000 A 
ATOM     15  C   UNL     1      48.952   7.752  12.160  0.00  0.00    +0.000 A 
ATOM     16  C   UNL     1      47.852   8.646  12.125  0.00  0.00    +0.000 A 
ATOM     17  C   UNL     1      47.733  10.030  11.901  0.00  0.00    +0.000 A 
ATOM     18  C   UNL     1      46.468  10.622  11.938  0.00  0.00    +0.000 A 
ATOM     19  C   UNL     1      45.327   9.837  12.077  0.00  0.00    +0.000 A 
ATOM     20  C   UNL     1      45.420   8.459  12.297  0.00  0.00    +0.000 A 
ATOM     21  C   UNL     1      46.705   7.902  12.412  0.00  0.00    +0.000 A 
ENDBRANCH  12  13
ENDBRANCH   5  12
TORSDOF 5
ENDMDL
MODEL 8
REMARK VINA RESULT:    -5.475      3.448      5.624
REMARK INTER + INTRA:          -7.610
REMARK INTER:                  -7.033
REMARK INTRA:                  -0.577
REMARK UNBOUND:                -0.695
REMARK  Name = 
REMARK  5 active torsions:
REMARK  status: ('A' for Active; 'I' for Inactive)
REMARK    1  A    between atoms: N_1  and  C_2
REMARK    2  A    between atoms: C_2  and  C_3
REMARK    3  A    between atoms: C_3  and  C_4
REMARK    4  A    between atoms: C_8  and  C_9
REMARK    5  A    between atoms: C_9  and  N_10
REMARK                            x       y       z     vdW  Elec       q    Type
REMARK                         _______ _______ _______ _____ _____    ______ ____
ROOT
ATOM      1  C   UNL     1      44.495   5.383  12.709  0.00  0.00    +0.000 A 
ATOM      2  C   UNL     1      44.243   6.619  12.096  0.00  0.00    +0.000 A 
ATOM      3  C   UNL     1      45.227   7.603  12.047  0.00  0.00    +0.000 A 
ATOM      4  C   UNL     1      46.477   7.368  12.601  0.00  0.00    +0.000 A 
ATOM      5  C   UNL     1      46.755   6.134  13.208  0.00  0.00    +0.000 A 
ATOM      6  C   UNL     1      45.757   5.154  13.274  0.00  0.00    +0.000 A 
ENDROOT
BRANCH   1   7
ATOM      7  C   UNL     1      43.418   4.323  12.765  0.00  0.00    +0.000 C 
BRANCH   7   8
ATOM      8  C   UNL     1      43.275   3.559  11.446  0.00  0.00    +0.000 C 
BRANCH   8   9
ATOM      9  N   UNL     1      43.025   2.137  11.693  0.00  0.00    +0.000 NA
ATOM     10  H   UNL     1      42.252   1.824  11.103  0.00  0.00    +0.000 HD
ATOM     11  H   UNL     1      42.723   2.008  12.658  0.00  0.00    +0.000 HD
ENDBRANCH   8   9
ENDBRANCH   7   8
ENDBRANCH   1   7
BRANCH   5  12
ATOM     12  C   UNL     1      48.133   5.870  13.779  0.00  0.00    +0.000 C 
BRANCH  12  13
ATOM     13  N   UNL     1      48.230   6.105  15.213  0.00  0.00    +0.000 N 
ATOM     14  C   UNL     1      48.800   7.227  15.771  0.00  0.00    +0.000 A 
ATOM     15  C   UNL     1      48.891   7.031  17.128  0.00  0.00    +0.000 A 
ATOM     16  C   UNL     1      48.620   5.659  17.361  0.00  0.00    +0.000 A 
ATOM     17  C   UNL     1      48.831   4.801  18.456  0.00  0.00    +0.000 A 
ATOM     18  C   UNL     1      48.441   3.463  18.359  0.00  0.00    +0.000 A 
ATOM     19  C   UNL     1      47.746   3.010  17.242  0.00  0.00    +0.000 A 
ATOM     20  C   UNL     1      47.522   3.846  16.143  0.00  0.00    +0.000 A 
ATOM     21  C   UNL     1      48.057   5.145  16.192  0.00  0.00    +0.000 A 
ENDBRANCH  12  13
ENDBRANCH   5  12
TORSDOF 5
ENDMDL
MODEL 9
REMARK VINA RESULT:    -5.193      3.833      7.600
REMARK INTER + INTRA:          -7.254
REMARK INTER:                  -6.578
REMARK INTRA:                  -0.676
REMARK UNBOUND:                -0.695
REMARK  Name = 
REMARK  5 active torsions:
REMARK  status: ('A' for Active; 'I' for Inactive)
REMARK    1  A    between atoms: N_1  and  C_2
REMARK    2  A    between atoms: C_2  and  C_3
REMARK    3  A    between atoms: C_3  and  C_4
REMARK    4  A    between atoms: C_8  and  C_9
REMARK    5  A    between atoms: C_9  and  N_10
REMARK                            x       y       z     vdW  Elec       q    Type
REMARK                         _______ _______ _______ _____ _____    ______ ____
ROOT
ATOM      1  C   UNL     1      50.059   4.657  17.282  0.00  0.00    +0.000 A 
ATOM      2  C   UNL     1      51.402   5.062  17.332  0.00  0.00    +0.000 A 
ATOM      3  C   UNL     1      51.809   6.250  16.730  0.00  0.00    +0.000 A 
ATOM      4  C   UNL     1      50.886   7.055  16.078  0.00  0.00    +0.000 A 
ATOM      5  C   UNL     1      49.536   6.675  16.028  0.00  0.00    +0.000 A 
ATOM      6  C   UNL     1      49.133   5.470  16.615  0.00  0.00    +0.000 A 
ENDROOT
BRANCH   1   7
ATOM      7  C   UNL     1      49.627   3.362  17.931  0.00  0.00    +0.000 C 
BRANCH   7   8
ATOM      8  C   UNL     1      50.278   2.134  17.287  0.00  0.00    +0.000 C 
BRANCH   8   9
ATOM      9  N   UNL     1      49.583   1.765  16.052  0.00  0.00    +0.000 NA
ATOM     10  H   UNL     1      48.620   1.505  16.273  0.00  0.00    +0.000 HD
ATOM     11  H   UNL     1      50.021   0.938  15.650  0.00  0.00    +0.000 HD
ENDBRANCH   8   9
ENDBRANCH   7   8
ENDBRANCH   1   7
BRANCH   5  12
ATOM     12  C   UNL     1      48.527   7.576  15.346  0.00  0.00    +0.000 C 
BRANCH  12  13
ATOM     13  N   UNL     1      48.399   7.337  13.914  0.00  0.00    +0.000 N 
ATOM     14  C   UNL     1      48.904   8.176  12.947  0.00  0.00    +0.000 A 
ATOM     15  C   UNL     1      48.441   7.749  11.725  0.00  0.00    +0.000 A 
ATOM     16  C   UNL     1      47.420   6.800  11.985  0.00  0.00    +0.000 A 
ATOM     17  C   UNL     1      46.398   6.236  11.201  0.00  0.00    +0.000 A 
ATOM     18  C   UNL     1      45.531   5.304  11.777  0.00  0.00    +0.000 A 
ATOM     19  C   UNL     1      45.746   4.850  13.075  0.00  0.00    +0.000 A 
ATOM     20  C   UNL     1      46.758   5.395  13.873  0.00  0.00    +0.000 A 
ATOM     21  C   UNL     1      47.523   6.441  13.331  0.00  0.00    +0.000 A 
ENDBRANCH  12  13
ENDBRANCH   5  12
TORSDOF 5
ENDMDL
