MODEL 1
REMARK VINA RESULT:    -9.325      0.000      0.000
REMARK INTER + INTRA:         -13.707
REMARK INTER:                 -12.596
REMARK INTRA:                  -1.110
REMARK UNBOUND:                -1.110
REMARK  Name = 
REMARK  6 active torsions:
REMARK  status: ('A' for Active; 'I' for Inactive)
REMARK    1  A    between atoms: C_2  and  C_4
REMARK    2  A    between atoms: C_7  and  N_8
REMARK    3  A    between atoms: N_8  and  C_9
REMARK    4  A    between atoms: C_9  and  C_10
REMARK    5  A    between atoms: C_10  and  C_13
REMARK    6  A    between atoms: C_17  and  C_18
REMARK                            x       y       z     vdW  Elec       q    Type
REMARK                         _______ _______ _______ _____ _____    ______ ____
ROOT
ATOM      1  C   UNL     1      43.486   5.548  12.117  0.00  0.00    +0.000 C 
ATOM      2  F   UNL     1      42.918   6.573  11.418  0.00  0.00    +0.000 F 
ATOM      3  F   UNL     1      42.773   5.463  13.280  0.00  0.00    +0.000 F 
ENDROOT
BRANCH   1   4
ATOM      4  C   UNL     1      44.966   5.781  12.361  0.00  0.00    +0.000 A 
ATOM      5  C   UNL     1      45.715   6.577  11.487  0.00  0.00    +0.000 A 
ATOM      6  C   UNL     1      47.056   6.835  11.754  0.00  0.00    +0.000 A 
ATOM      7  C   UNL     1      47.655   6.312  12.903  0.00  0.00    +0.000 A 
ATOM      8  C   UNL     1      46.931   5.526  13.818  0.00  0.00    +0.000 A 
ATOM      9  C   UNL     1      45.585   5.256  13.511  0.00  0.00    +0.000 A 
BRANCH   8  10
ATOM     10  C   UNL     1      47.542   5.049  15.076  0.00  0.00    +0.000 A 
ATOM     11  C   UNL     1      48.621   5.719  15.671  0.00  0.00    +0.000 A 
ATOM     12  N   UNL     1      49.214   5.371  16.842  0.00  0.00    +0.000 NA
ATOM     13  C   UNL     1      48.706   4.291  17.472  0.00  0.00    +0.000 A 
ATOM     14  C   UNL     1      47.646   3.555  16.979  0.00  0.00    +0.000 A 
ATOM     15  F   UNL     1      47.178   2.499  17.654  0.00  0.00    +0.000 F 
ATOM     16  C   UNL     1      47.062   3.930  15.774  0.00  0.00    +0.000 A 
ENDBRANCH   8  10
ENDBRANCH   1   4
BRANCH   1  17
ATOM     17  C   UNL     1      43.295   4.226  11.331  0.00  0.00    +0.000 C 
BRANCH  17  18
ATOM     18  N   UNL     1      43.447   4.379   9.876  0.00  0.00    +0.000 N 
ATOM     19  H   UNL     1      42.572   4.376   9.353  0.00  0.00    +0.000 HD
BRANCH  18  23
ATOM     20  C   UNL     1      46.516   2.492   7.683  0.00  0.00    +0.000 A 
ATOM     21  C   UNL     1      46.380   3.881   7.619  0.00  0.00    +0.000 A 
ATOM     22  C   UNL     1      45.382   4.521   8.363  0.00  0.00    +0.000 A 
ATOM     23  C   UNL     1      44.521   3.803   9.202  0.00  0.00    +0.000 A 
ATOM     24  C   UNL     1      44.666   2.410   9.246  0.00  0.00    +0.000 A 
ATOM     25  C   UNL     1      45.647   1.756   8.492  0.00  0.00    +0.000 A 
BRANCH  20  27
ATOM     26  N   UNL     1      48.611   2.482   6.444  0.00  0.00    +0.000 N 
ATOM     27  C   UNL     1      47.526   1.770   6.867  0.00  0.00    +0.000 C 
ATOM     28  O   UNL     1      47.410   0.580   6.606  0.00  0.00    +0.000 OA
ATOM     29  H   UNL     1      49.337   1.957   5.972  0.00  0.00    +0.000 HD
ATOM     30  H   UNL     1      48.863   3.379   6.841  0.00  0.00    +0.000 HD
ENDBRANCH  20  27
ENDBRANCH  18  23
ENDBRANCH  17  18
ENDBRANCH   1  17
TORSDOF 6
ENDMDL
MODEL 2
REMARK VINA RESULT:    -9.140      2.491      4.114
REMARK INTER + INTRA:         -13.456
REMARK INTER:                 -12.346
REMARK INTRA:                  -1.111
REMARK UNBOUND:                -1.110
REMARK  Name = 
REMARK  6 active torsions:
REMARK  status: ('A' for Active; 'I' for Inactive)
REMARK    1  A    between atoms: C_2  and  C_4
REMARK    2  A    between atoms: C_7  and  N_8
REMARK    3  A    between atoms: N_8  and  C_9
REMARK    4  A    between atoms: C_9  and  C_10
REMARK    5  A    between atoms: C_10  and  C_13
REMARK    6  A    between atoms: C_17  and  C_18
REMARK                            x       y       z     vdW  Elec       q    Type
REMARK                         _______ _______ _______ _____ _____    ______ ____
ROOT
ATOM      1  C   UNL     1      43.211   4.846  12.649  0.00  0.00    +0.000 C 
ATOM      2  F   UNL     1      42.356   5.873  12.373  0.00  0.00    +0.000 F 
ATOM      3  F   UNL     1      42.698   4.234  13.758  0.00  0.00    +0.000 F 
ENDROOT
BRANCH   1   4
ATOM      4  C   UNL     1      44.632   5.335  12.862  0.00  0.00    +0.000 A 
ATOM      5  C   UNL     1      45.627   4.457  13.307  0.00  0.00    +0.000 A 
ATOM      6  C   UNL     1      46.940   4.900  13.439  0.00  0.00    +0.000 A 
ATOM      7  C   UNL     1      47.271   6.218  13.113  0.00  0.00    +0.000 A 
ATOM      8  C   UNL     1      46.305   7.125  12.641  0.00  0.00    +0.000 A 
ATOM      9  C   UNL     1      44.981   6.661  12.544  0.00  0.00    +0.000 A 
BRANCH   8  10
ATOM     10  C   UNL     1      46.673   8.491  12.214  0.00  0.00    +0.000 A 
ATOM     11  C   UNL     1      45.710   9.497  12.055  0.00  0.00    +0.000 A 
ATOM     12  N   UNL     1      45.966  10.783  11.705  0.00  0.00    +0.000 NA
ATOM     13  C   UNL     1      47.262  11.101  11.502  0.00  0.00    +0.000 A 
ATOM     14  C   UNL     1      48.294  10.192  11.628  0.00  0.00    +0.000 A 
ATOM     15  F   UNL     1      49.562  10.567  11.424  0.00  0.00    +0.000 F 
ATOM     16  C   UNL     1      48.001   8.879  11.982  0.00  0.00    +0.000 A 
ENDBRANCH   8  10
ENDBRANCH   1   4
BRANCH   1  17
ATOM     17  C   UNL     1      43.186   3.831  11.477  0.00  0.00    +0.000 C 
BRANCH  17  18
ATOM     18  N   UNL     1      43.604   4.408  10.190  0.00  0.00    +0.000 N 
ATOM     19  H   UNL     1      42.849   4.814   9.639  0.00  0.00    +0.000 HD
BRANCH  18  23
ATOM     20  C   UNL     1      46.464   2.481   7.763  0.00  0.00    +0.000 A 
ATOM     21  C   UNL     1      46.342   3.870   7.708  0.00  0.00    +0.000 A 
ATOM     22  C   UNL     1      45.415   4.524   8.528  0.00  0.00    +0.000 A 
ATOM     23  C   UNL     1      44.614   3.818   9.435  0.00  0.00    +0.000 A 
ATOM     24  C   UNL     1      44.744   2.423   9.469  0.00  0.00    +0.000 A 
ATOM     25  C   UNL     1      45.654   1.756   8.640  0.00  0.00    +0.000 A 
BRANCH  20  27
ATOM     26  N   UNL     1      48.490   2.424   6.414  0.00  0.00    +0.000 N 
ATOM     27  C   UNL     1      47.397   1.744   6.870  0.00  0.00    +0.000 C 
ATOM     28  O   UNL     1      47.215   0.571   6.577  0.00  0.00    +0.000 OA
ATOM     29  H   UNL     1      49.166   1.885   5.887  0.00  0.00    +0.000 HD
ATOM     30  H   UNL     1      48.802   3.294   6.827  0.00  0.00    +0.000 HD
ENDBRANCH  20  27
ENDBRANCH  18  23
ENDBRANCH  17  18
ENDBRANCH   1  17
TORSDOF 6
ENDMDL
MODEL 3
REMARK VINA RESULT:    -8.586      1.402      1.999
REMARK INTER + INTRA:         -12.708
REMARK INTER:                 -11.952
REMARK INTRA:                  -0.756
REMARK UNBOUND:                -1.110
REMARK  Name = 
REMARK  6 active torsions:
REMARK  status: ('A' for Active; 'I' for Inactive)
REMARK    1  A    between atoms: C_2  and  C_4
REMARK    2  A    between atoms: C_7  and  N_8
REMARK    3  A    between atoms: N_8  and  C_9
REMARK    4  A    between atoms: C_9  and  C_10
REMARK    5  A    between atoms: C_10  and  C_13
REMARK    6  A    between atoms: C_17  and  C_18
REMARK                            x       y       z     vdW  Elec       q    Type
REMARK                         _______ _______ _______ _____ _____    ______ ____
ROOT
ATOM      1  C   UNL     1      44.661   4.864  12.455  0.00  0.00    +0.000 C 
ATOM      2  F   UNL     1      43.588   5.024  13.282  0.00  0.00    +0.000 F 
ATOM      3  F   UNL     1      44.722   3.522  12.195  0.00  0.00    +0.000 F 
ENDROOT
BRANCH   1   4
ATOM      4  C   UNL     1      45.940   5.391  13.078  0.00  0.00    +0.000 A 
ATOM      5  C   UNL     1      46.609   6.484  12.513  0.00  0.00    +0.000 A 
ATOM      6  C   UNL     1      47.746   6.999  13.127  0.00  0.00    +0.000 A 
ATOM      7  C   UNL     1      48.215   6.438  14.318  0.00  0.00    +0.000 A 
ATOM      8  C   UNL     1      47.558   5.355  14.930  0.00  0.00    +0.000 A 
ATOM      9  C   UNL     1      46.428   4.834  14.274  0.00  0.00    +0.000 A 
BRANCH   8  10
ATOM     10  C   UNL     1      48.004   4.820  16.234  0.00  0.00    +0.000 A 
ATOM     11  C   UNL     1      47.411   3.685  16.804  0.00  0.00    +0.000 A 
ATOM     12  N   UNL     1      47.784   3.107  17.975  0.00  0.00    +0.000 NA
ATOM     13  C   UNL     1      48.815   3.686  18.625  0.00  0.00    +0.000 A 
ATOM     14  C   UNL     1      49.473   4.806  18.158  0.00  0.00    +0.000 A 
ATOM     15  F   UNL     1      50.497   5.330  18.842  0.00  0.00    +0.000 F 
ATOM     16  C   UNL     1      49.065   5.381  16.959  0.00  0.00    +0.000 A 
ENDBRANCH   8  10
ENDBRANCH   1   4
BRANCH   1  17
ATOM     17  C   UNL     1      44.394   5.606  11.121  0.00  0.00    +0.000 C 
BRANCH  17  18
ATOM     18  N   UNL     1      43.798   4.753  10.081  0.00  0.00    +0.000 N 
ATOM     19  H   UNL     1      42.912   4.321  10.340  0.00  0.00    +0.000 HD
BRANCH  18  23
ATOM     20  C   UNL     1      46.439   2.492   7.694  0.00  0.00    +0.000 A 
ATOM     21  C   UNL     1      45.527   1.834   8.521  0.00  0.00    +0.000 A 
ATOM     22  C   UNL     1      44.626   2.573   9.298  0.00  0.00    +0.000 A 
ATOM     23  C   UNL     1      44.596   3.972   9.250  0.00  0.00    +0.000 A 
ATOM     24  C   UNL     1      45.525   4.616   8.422  0.00  0.00    +0.000 A 
ATOM     25  C   UNL     1      46.443   3.889   7.655  0.00  0.00    +0.000 A 
BRANCH  20  27
ATOM     26  N   UNL     1      48.538   2.445   6.461  0.00  0.00    +0.000 N 
ATOM     27  C   UNL     1      47.447   1.747   6.896  0.00  0.00    +0.000 C 
ATOM     28  O   UNL     1      47.326   0.552   6.660  0.00  0.00    +0.000 OA
ATOM     29  H   UNL     1      49.261   1.905   6.002  0.00  0.00    +0.000 HD
ATOM     30  H   UNL     1      48.793   3.348   6.839  0.00  0.00    +0.000 HD
ENDBRANCH  20  27
ENDBRANCH  18  23
ENDBRANCH  17  18
ENDBRANCH   1  17
TORSDOF 6
ENDMDL
MODEL 4
REMARK VINA RESULT:    -8.477      2.864      5.009
REMARK INTER + INTRA:         -12.561
REMARK INTER:                 -11.781
REMARK INTRA:                  -0.780
REMARK UNBOUND:                -1.110
REMARK  Name = 
REMARK  6 active torsions:
REMARK  status: ('A' for Active; 'I' for Inactive)
REMARK    1  A    between atoms: C_2  and  C_4
REMARK    2  A    between atoms: C_7  and  N_8
REMARK    3  A    between atoms: N_8  and  C_9
REMARK    4  A    between atoms: C_9  and  C_10
REMARK    5  A    between atoms: C_10  and  C_13
REMARK    6  A    between atoms: C_17  and  C_18
REMARK                            x       y       z     vdW  Elec       q    Type
REMARK                         _______ _______ _______ _____ _____    ______ ____
ROOT
ATOM      1  C   UNL     1      44.280   4.102  12.464  0.00  0.00    +0.000 C 
ATOM      2  F   UNL     1      43.564   4.020  13.623  0.00  0.00    +0.000 F 
ATOM      3  F   UNL     1      45.049   2.972  12.432  0.00  0.00    +0.000 F 
ENDROOT
BRANCH   1   4
ATOM      4  C   UNL     1      45.111   5.370  12.401  0.00  0.00    +0.000 A 
ATOM      5  C   UNL     1      46.504   5.316  12.529  0.00  0.00    +0.000 A 
ATOM      6  C   UNL     1      47.261   6.476  12.407  0.00  0.00    +0.000 A 
ATOM      7  C   UNL     1      46.636   7.697  12.141  0.00  0.00    +0.000 A 
ATOM      8  C   UNL     1      45.241   7.791  11.983  0.00  0.00    +0.000 A 
ATOM      9  C   UNL     1      44.495   6.609  12.139  0.00  0.00    +0.000 A 
BRANCH   8  10
ATOM     10  C   UNL     1      44.591   9.066  11.615  0.00  0.00    +0.000 A 
ATOM     11  C   UNL     1      45.066  10.297  12.089  0.00  0.00    +0.000 A 
ATOM     12  N   UNL     1      44.554  11.514  11.770  0.00  0.00    +0.000 NA
ATOM     13  C   UNL     1      43.504  11.516  10.922  0.00  0.00    +0.000 A 
ATOM     14  C   UNL     1      42.952  10.365  10.395  0.00  0.00    +0.000 A 
ATOM     15  F   UNL     1      41.917  10.430   9.551  0.00  0.00    +0.000 F 
ATOM     16  C   UNL     1      43.493   9.132  10.744  0.00  0.00    +0.000 A 
ENDBRANCH   8  10
ENDBRANCH   1   4
BRANCH   1  17
ATOM     17  C   UNL     1      43.308   4.063  11.258  0.00  0.00    +0.000 C 
BRANCH  17  18
ATOM     18  N   UNL     1      43.843   4.711  10.050  0.00  0.00    +0.000 N 
ATOM     19  H   UNL     1      43.156   5.232   9.505  0.00  0.00    +0.000 HD
BRANCH  18  23
ATOM     20  C   UNL     1      46.650   2.754   7.585  0.00  0.00    +0.000 A 
ATOM     21  C   UNL     1      46.657   4.148   7.661  0.00  0.00    +0.000 A 
ATOM     22  C   UNL     1      45.747   4.808   8.496  0.00  0.00    +0.000 A 
ATOM     23  C   UNL     1      44.835   4.100   9.289  0.00  0.00    +0.000 A 
ATOM     24  C   UNL     1      44.837   2.703   9.193  0.00  0.00    +0.000 A 
ATOM     25  C   UNL     1      45.729   2.032   8.348  0.00  0.00    +0.000 A 
BRANCH  20  27
ATOM     26  N   UNL     1      47.960   2.664   5.536  0.00  0.00    +0.000 N 
ATOM     27  C   UNL     1      47.561   2.018   6.671  0.00  0.00    +0.000 C 
ATOM     28  O   UNL     1      47.964   0.892   6.931  0.00  0.00    +0.000 OA
ATOM     29  H   UNL     1      48.654   2.191   4.971  0.00  0.00    +0.000 HD
ATOM     30  H   UNL     1      47.855   3.663   5.412  0.00  0.00    +0.000 HD
ENDBRANCH  20  27
ENDBRANCH  18  23
ENDBRANCH  17  18
ENDBRANCH   1  17
TORSDOF 6
ENDMDL
MODEL 5
REMARK VINA RESULT:    -8.270      2.457      3.616
REMARK INTER + INTRA:         -12.281
REMARK INTER:                 -11.495
REMARK INTRA:                  -0.786
REMARK UNBOUND:                -1.110
REMARK  Name = 
REMARK  6 active torsions:
REMARK  status: ('A' for Active; 'I' for Inactive)
REMARK    1  A    between atoms: C_2  and  C_4
REMARK    2  A    between atoms: C_7  and  N_8
REMARK    3  A    between atoms: N_8  and  C_9
REMARK    4  A    between atoms: C_9  and  C_10
REMARK    5  A    between atoms: C_10  and  C_13
REMARK    6  A    between atoms: C_17  and  C_18
REMARK                            x       y       z     vdW  Elec       q    Type
REMARK                         _______ _______ _______ _____ _____    ______ ____
ROOT
ATOM      1  C   UNL     1      44.568   4.317  12.282  0.00  0.00    +0.000 C 
ATOM      2  F   UNL     1      44.161   4.123  13.570  0.00  0.00    +0.000 F 
ATOM      3  F   UNL     1      45.529   3.370  12.058  0.00  0.00    +0.000 F 
ENDROOT
BRANCH   1   4
ATOM      4  C   UNL     1      45.083   5.727  12.057  0.00  0.00    +0.000 A 
ATOM      5  C   UNL     1      44.204   6.759  11.711  0.00  0.00    +0.000 A 
ATOM      6  C   UNL     1      44.676   8.060  11.569  0.00  0.00    +0.000 A 
ATOM      7  C   UNL     1      46.027   8.343  11.787  0.00  0.00    +0.000 A 
ATOM      8  C   UNL     1      46.939   7.339  12.159  0.00  0.00    +0.000 A 
ATOM      9  C   UNL     1      46.442   6.027  12.268  0.00  0.00    +0.000 A 
BRANCH   8  10
ATOM     10  C   UNL     1      48.347   7.655  12.476  0.00  0.00    +0.000 A 
ATOM     11  C   UNL     1      48.870   7.475  13.764  0.00  0.00    +0.000 A 
ATOM     12  N   UNL     1      50.157   7.704  14.130  0.00  0.00    +0.000 NA
ATOM     13  C   UNL     1      50.987   8.134  13.157  0.00  0.00    +0.000 A 
ATOM     14  C   UNL     1      50.582   8.347  11.854  0.00  0.00    +0.000 A 
ATOM     15  F   UNL     1      51.454   8.765  10.929  0.00  0.00    +0.000 F 
ATOM     16  C   UNL     1      49.256   8.112  11.509  0.00  0.00    +0.000 A 
ENDBRANCH   8  10
ENDBRANCH   1   4
BRANCH   1  17
ATOM     17  C   UNL     1      43.381   4.044  11.323  0.00  0.00    +0.000 C 
BRANCH  17  18
ATOM     18  N   UNL     1      43.635   4.465   9.937  0.00  0.00    +0.000 N 
ATOM     19  H   UNL     1      42.816   4.812   9.440  0.00  0.00    +0.000 HD
BRANCH  18  23
ATOM     20  C   UNL     1      46.603   2.522   7.657  0.00  0.00    +0.000 A 
ATOM     21  C   UNL     1      45.716   1.760   8.420  0.00  0.00    +0.000 A 
ATOM     22  C   UNL     1      44.709   2.392   9.160  0.00  0.00    +0.000 A 
ATOM     23  C   UNL     1      44.547   3.783   9.137  0.00  0.00    +0.000 A 
ATOM     24  C   UNL     1      45.453   4.531   8.373  0.00  0.00    +0.000 A 
ATOM     25  C   UNL     1      46.475   3.913   7.643  0.00  0.00    +0.000 A 
BRANCH  20  27
ATOM     26  N   UNL     1      48.601   2.732   6.282  0.00  0.00    +0.000 N 
ATOM     27  C   UNL     1      47.719   1.894   6.902  0.00  0.00    +0.000 C 
ATOM     28  O   UNL     1      47.863   0.680   6.857  0.00  0.00    +0.000 OA
ATOM     29  H   UNL     1      49.408   2.296   5.853  0.00  0.00    +0.000 HD
ATOM     30  H   UNL     1      48.660   3.719   6.499  0.00  0.00    +0.000 HD
ENDBRANCH  20  27
ENDBRANCH  18  23
ENDBRANCH  17  18
ENDBRANCH   1  17
TORSDOF 6
ENDMDL
MODEL 6
REMARK VINA RESULT:    -8.065      3.096      7.455
REMARK INTER + INTRA:         -12.004
REMARK INTER:                 -11.006
REMARK INTRA:                  -0.998
REMARK UNBOUND:                -1.110
REMARK  Name = 
REMARK  6 active torsions:
REMARK  status: ('A' for Active; 'I' for Inactive)
REMARK    1  A    between atoms: C_2  and  C_4
REMARK    2  A    between atoms: C_7  and  N_8
REMARK    3  A    between atoms: N_8  and  C_9
REMARK    4  A    between atoms: C_9  and  C_10
REMARK    5  A    between atoms: C_10  and  C_13
REMARK    6  A    between atoms: C_17  and  C_18
REMARK                            x       y       z     vdW  Elec       q    Type
REMARK                         _______ _______ _______ _____ _____    ______ ____
ROOT
ATOM      1  C   UNL     1      45.515   7.319  11.875  0.00  0.00    +0.000 C 
ATOM      2  F   UNL     1      45.094   7.667  13.126  0.00  0.00    +0.000 F 
ATOM      3  F   UNL     1      45.184   8.376  11.073  0.00  0.00    +0.000 F 
ENDROOT
BRANCH   1   4
ATOM      4  C   UNL     1      44.886   6.019  11.408  0.00  0.00    +0.000 A 
ATOM      5  C   UNL     1      43.629   5.625  11.881  0.00  0.00    +0.000 A 
ATOM      6  C   UNL     1      43.035   4.463  11.398  0.00  0.00    +0.000 A 
ATOM      7  C   UNL     1      43.684   3.694  10.429  0.00  0.00    +0.000 A 
ATOM      8  C   UNL     1      44.937   4.067   9.911  0.00  0.00    +0.000 A 
ATOM      9  C   UNL     1      45.530   5.230  10.436  0.00  0.00    +0.000 A 
BRANCH   8  10
ATOM     10  C   UNL     1      45.581   3.301   8.824  0.00  0.00    +0.000 A 
ATOM     11  C   UNL     1      46.155   3.939   7.715  0.00  0.00    +0.000 A 
ATOM     12  N   UNL     1      46.798   3.316   6.694  0.00  0.00    +0.000 NA
ATOM     13  C   UNL     1      46.884   1.971   6.775  0.00  0.00    +0.000 A 
ATOM     14  C   UNL     1      46.355   1.239   7.819  0.00  0.00    +0.000 A 
ATOM     15  F   UNL     1      46.481  -0.093   7.851  0.00  0.00    +0.000 F 
ATOM     16  C   UNL     1      45.696   1.903   8.848  0.00  0.00    +0.000 A 
ENDBRANCH   8  10
ENDBRANCH   1   4
BRANCH   1  17
ATOM     17  C   UNL     1      47.058   7.173  11.877  0.00  0.00    +0.000 C 
BRANCH  17  18
ATOM     18  N   UNL     1      47.663   7.330  13.208  0.00  0.00    +0.000 N 
ATOM     19  H   UNL     1      48.472   7.948  13.239  0.00  0.00    +0.000 HD
BRANCH  18  23
ATOM     20  C   UNL     1      47.708   4.255  16.094  0.00  0.00    +0.000 A 
ATOM     21  C   UNL     1      47.021   4.060  14.894  0.00  0.00    +0.000 A 
ATOM     22  C   UNL     1      47.020   5.063  13.917  0.00  0.00    +0.000 A 
ATOM     23  C   UNL     1      47.721   6.262  14.099  0.00  0.00    +0.000 A 
ATOM     24  C   UNL     1      48.397   6.443  15.313  0.00  0.00    +0.000 A 
ATOM     25  C   UNL     1      48.389   5.456  16.305  0.00  0.00    +0.000 A 
BRANCH  20  27
ATOM     26  N   UNL     1      48.890   2.871  17.711  0.00  0.00    +0.000 N 
ATOM     27  C   UNL     1      47.687   3.239  17.178  0.00  0.00    +0.000 C 
ATOM     28  O   UNL     1      46.639   2.769  17.601  0.00  0.00    +0.000 OA
ATOM     29  H   UNL     1      48.855   2.252  18.511  0.00  0.00    +0.000 HD
ATOM     30  H   UNL     1      49.736   3.407  17.567  0.00  0.00    +0.000 HD
ENDBRANCH  20  27
ENDBRANCH  18  23
ENDBRANCH  17  18
ENDBRANCH   1  17
TORSDOF 6
ENDMDL
MODEL 7
REMARK VINA RESULT:    -8.024      1.799      2.295
REMARK INTER + INTRA:         -11.949
REMARK INTER:                 -10.951
REMARK INTRA:                  -0.998
REMARK UNBOUND:                -1.110
REMARK  Name = 
REMARK  6 active torsions:
REMARK  status: ('A' for Active; 'I' for Inactive)
REMARK    1  A    between atoms: C_2  and  C_4
REMARK    2  A    between atoms: C_7  and  N_8
REMARK    3  A    between atoms: N_8  and  C_9
REMARK    4  A    between atoms: C_9  and  C_10
REMARK    5  A    between atoms: C_10  and  C_13
REMARK    6  A    between atoms: C_17  and  C_18
REMARK                            x       y       z     vdW  Elec       q    Type
REMARK                         _______ _______ _______ _____ _____    ______ ____
ROOT
ATOM      1  C   UNL     1      44.875   4.274  12.515  0.00  0.00    +0.000 C 
ATOM      2  F   UNL     1      44.152   4.059  13.652  0.00  0.00    +0.000 F 
ATOM      3  F   UNL     1      45.613   3.137  12.333  0.00  0.00    +0.000 F 
ENDROOT
BRANCH   1   4
ATOM      4  C   UNL     1      45.742   5.515  12.622  0.00  0.00    +0.000 A 
ATOM      5  C   UNL     1      45.414   6.675  11.911  0.00  0.00    +0.000 A 
ATOM      6  C   UNL     1      46.180   7.827  12.064  0.00  0.00    +0.000 A 
ATOM      7  C   UNL     1      47.269   7.833  12.940  0.00  0.00    +0.000 A 
ATOM      8  C   UNL     1      47.618   6.695  13.690  0.00  0.00    +0.000 A 
ATOM      9  C   UNL     1      46.846   5.536  13.495  0.00  0.00    +0.000 A 
BRANCH   8  10
ATOM     10  C   UNL     1      48.714   6.731  14.680  0.00  0.00    +0.000 A 
ATOM     11  C   UNL     1      49.908   7.422  14.430  0.00  0.00    +0.000 A 
ATOM     12  N   UNL     1      50.947   7.537  15.297  0.00  0.00    +0.000 NA
ATOM     13  C   UNL     1      50.795   6.933  16.495  0.00  0.00    +0.000 A 
ATOM     14  C   UNL     1      49.664   6.225  16.849  0.00  0.00    +0.000 A 
ATOM     15  F   UNL     1      49.566   5.656  18.056  0.00  0.00    +0.000 F 
ATOM     16  C   UNL     1      48.618   6.118  15.938  0.00  0.00    +0.000 A 
ENDBRANCH   8  10
ENDBRANCH   1   4
BRANCH   1  17
ATOM     17  C   UNL     1      43.908   4.423  11.314  0.00  0.00    +0.000 C 
BRANCH  17  18
ATOM     18  N   UNL     1      43.780   3.201  10.505  0.00  0.00    +0.000 N 
ATOM     19  H   UNL     1      43.558   2.360  11.035  0.00  0.00    +0.000 HD
BRANCH  18  23
ATOM     20  C   UNL     1      46.448   2.707   7.277  0.00  0.00    +0.000 A 
ATOM     21  C   UNL     1      46.069   1.595   8.030  0.00  0.00    +0.000 A 
ATOM     22  C   UNL     1      45.163   1.741   9.088  0.00  0.00    +0.000 A 
ATOM     23  C   UNL     1      44.597   2.984   9.400  0.00  0.00    +0.000 A 
ATOM     24  C   UNL     1      44.997   4.091   8.638  0.00  0.00    +0.000 A 
ATOM     25  C   UNL     1      45.916   3.960   7.591  0.00  0.00    +0.000 A 
BRANCH  20  27
ATOM     26  N   UNL     1      48.691   2.147   6.515  0.00  0.00    +0.000 N 
ATOM     27  C   UNL     1      47.448   2.604   6.182  0.00  0.00    +0.000 C 
ATOM     28  O   UNL     1      47.167   2.886   5.025  0.00  0.00    +0.000 OA
ATOM     29  H   UNL     1      49.332   1.990   5.747  0.00  0.00    +0.000 HD
ATOM     30  H   UNL     1      48.882   1.676   7.390  0.00  0.00    +0.000 HD
ENDBRANCH  20  27
ENDBRANCH  18  23
ENDBRANCH  17  18
ENDBRANCH   1  17
TORSDOF 6
ENDMDL
MODEL 8
REMARK VINA RESULT:    -7.411      3.271      7.858
REMARK INTER + INTRA:         -11.120
REMARK INTER:                 -10.182
REMARK INTRA:                  -0.938
REMARK UNBOUND:                -1.110
REMARK  Name = 
REMARK  6 active torsions:
REMARK  status: ('A' for Active; 'I' for Inactive)
REMARK    1  A    between atoms: C_2  and  C_4
REMARK    2  A    between atoms: C_7  and  N_8
REMARK    3  A    between atoms: N_8  and  C_9
REMARK    4  A    between atoms: C_9  and  C_10
REMARK    5  A    between atoms: C_10  and  C_13
REMARK    6  A    between atoms: C_17  and  C_18
REMARK                            x       y       z     vdW  Elec       q    Type
REMARK                         _______ _______ _______ _____ _____    ______ ____
ROOT
ATOM      1  C   UNL     1      44.736   6.658  11.412  0.00  0.00    +0.000 C 
ATOM      2  F   UNL     1      43.568   7.357  11.323  0.00  0.00    +0.000 F 
ATOM      3  F   UNL     1      45.610   7.302  10.580  0.00  0.00    +0.000 F 
ENDROOT
BRANCH   1   4
ATOM      4  C   UNL     1      44.551   5.198  11.038  0.00  0.00    +0.000 A 
ATOM      5  C   UNL     1      43.592   4.413  11.688  0.00  0.00    +0.000 A 
ATOM      6  C   UNL     1      43.388   3.094  11.296  0.00  0.00    +0.000 A 
ATOM      7  C   UNL     1      44.129   2.554  10.241  0.00  0.00    +0.000 A 
ATOM      8  C   UNL     1      45.086   3.316   9.547  0.00  0.00    +0.000 A 
ATOM      9  C   UNL     1      45.294   4.638   9.982  0.00  0.00    +0.000 A 
BRANCH   8  10
ATOM     10  C   UNL     1      45.804   2.771   8.376  0.00  0.00    +0.000 A 
ATOM     11  C   UNL     1      46.235   1.437   8.333  0.00  0.00    +0.000 A 
ATOM     12  N   UNL     1      46.865   0.847   7.285  0.00  0.00    +0.000 NA
ATOM     13  C   UNL     1      47.081   1.625   6.203  0.00  0.00    +0.000 A 
ATOM     14  C   UNL     1      46.701   2.951   6.135  0.00  0.00    +0.000 A 
ATOM     15  F   UNL     1      46.933   3.670   5.030  0.00  0.00    +0.000 F 
ATOM     16  C   UNL     1      46.063   3.531   7.226  0.00  0.00    +0.000 A 
ENDBRANCH   8  10
ENDBRANCH   1   4
BRANCH   1  17
ATOM     17  C   UNL     1      45.281   6.753  12.859  0.00  0.00    +0.000 C 
BRANCH  17  18
ATOM     18  N   UNL     1      46.690   6.350  12.986  0.00  0.00    +0.000 N 
ATOM     19  H   UNL     1      47.090   5.928  12.148  0.00  0.00    +0.000 HD
BRANCH  18  23
ATOM     20  C   UNL     1      48.292   4.574  16.459  0.00  0.00    +0.000 A 
ATOM     21  C   UNL     1      48.735   5.839  16.068  0.00  0.00    +0.000 A 
ATOM     22  C   UNL     1      48.192   6.451  14.932  0.00  0.00    +0.000 A 
ATOM     23  C   UNL     1      47.183   5.834  14.180  0.00  0.00    +0.000 A 
ATOM     24  C   UNL     1      46.759   4.560  14.583  0.00  0.00    +0.000 A 
ATOM     25  C   UNL     1      47.308   3.931  15.706  0.00  0.00    +0.000 A 
BRANCH  20  27
ATOM     26  N   UNL     1      50.221   4.032  17.842  0.00  0.00    +0.000 N 
ATOM     27  C   UNL     1      48.882   3.868  17.626  0.00  0.00    +0.000 C 
ATOM     28  O   UNL     1      48.199   3.191  18.382  0.00  0.00    +0.000 OA
ATOM     29  H   UNL     1      50.591   3.625  18.692  0.00  0.00    +0.000 HD
ATOM     30  H   UNL     1      50.758   4.767  17.400  0.00  0.00    +0.000 HD
ENDBRANCH  20  27
ENDBRANCH  18  23
ENDBRANCH  17  18
ENDBRANCH   1  17
TORSDOF 6
ENDMDL
MODEL 9
REMARK VINA RESULT:    -7.408      3.661      7.892
REMARK INTER + INTRA:         -11.116
REMARK INTER:                  -9.974
REMARK INTRA:                  -1.142
REMARK UNBOUND:                -1.110
REMARK  Name = 
REMARK  6 active torsions:
REMARK  status: ('A' for Active; 'I' for Inactive)
REMARK    1  A    between atoms: C_2  and  C_4
REMARK    2  A    between atoms: C_7  and  N_8
REMARK    3  A    between atoms: N_8  and  C_9
REMARK    4  A    between atoms: C_9  and  C_10
REMARK    5  A    between atoms: C_10  and  C_13
REMARK    6  A    between atoms: C_17  and  C_18
REMARK                            x       y       z     vdW  Elec       q    Type
REMARK                         _______ _______ _______ _____ _____    ______ ____
ROOT
ATOM      1  C   UNL     1      48.740   8.046  12.283  0.00  0.00    +0.000 C 
ATOM      2  F   UNL     1      49.186   9.023  11.442  0.00  0.00    +0.000 F 
ATOM      3  F   UNL     1      49.550   6.969  12.052  0.00  0.00    +0.000 F 
ENDROOT
BRANCH   1   4
ATOM      4  C   UNL     1      47.274   7.727  12.054  0.00  0.00    +0.000 A 
ATOM      5  C   UNL     1      46.282   8.655  12.392  0.00  0.00    +0.000 A 
ATOM      6  C   UNL     1      44.946   8.378  12.121  0.00  0.00    +0.000 A 
ATOM      7  C   UNL     1      44.592   7.180  11.495  0.00  0.00    +0.000 A 
ATOM      8  C   UNL     1      45.560   6.232  11.118  0.00  0.00    +0.000 A 
ATOM      9  C   UNL     1      46.900   6.522  11.430  0.00  0.00    +0.000 A 
BRANCH   8  10
ATOM     10  C   UNL     1      45.192   5.007  10.378  0.00  0.00    +0.000 A 
ATOM     11  C   UNL     1      44.397   4.008  10.958  0.00  0.00    +0.000 A 
ATOM     12  N   UNL     1      43.982   2.873  10.338  0.00  0.00    +0.000 NA
ATOM     13  C   UNL     1      44.373   2.716   9.055  0.00  0.00    +0.000 A 
ATOM     14  C   UNL     1      45.157   3.633   8.384  0.00  0.00    +0.000 A 
ATOM     15  F   UNL     1      45.506   3.428   7.109  0.00  0.00    +0.000 F 
ATOM     16  C   UNL     1      45.573   4.783   9.046  0.00  0.00    +0.000 A 
ENDBRANCH   8  10
ENDBRANCH   1   4
BRANCH   1  17
ATOM     17  C   UNL     1      48.944   8.503  13.751  0.00  0.00    +0.000 C 
BRANCH  17  18
ATOM     18  N   UNL     1      49.821   7.613  14.528  0.00  0.00    +0.000 N 
ATOM     19  H   UNL     1      50.655   7.299  14.034  0.00  0.00    +0.000 HD
BRANCH  18  23
ATOM     20  C   UNL     1      48.244   4.588  17.007  0.00  0.00    +0.000 A 
ATOM     21  C   UNL     1      49.429   5.228  17.374  0.00  0.00    +0.000 A 
ATOM     22  C   UNL     1      49.949   6.252  16.573  0.00  0.00    +0.000 A 
ATOM     23  C   UNL     1      49.291   6.678  15.412  0.00  0.00    +0.000 A 
ATOM     24  C   UNL     1      48.108   6.018  15.055  0.00  0.00    +0.000 A 
ATOM     25  C   UNL     1      47.589   4.980  15.837  0.00  0.00    +0.000 A 
BRANCH  20  27
ATOM     26  N   UNL     1      48.340   3.130  18.954  0.00  0.00    +0.000 N 
ATOM     27  C   UNL     1      47.689   3.460  17.800  0.00  0.00    +0.000 C 
ATOM     28  O   UNL     1      46.675   2.868  17.454  0.00  0.00    +0.000 OA
ATOM     29  H   UNL     1      47.898   2.426  19.532  0.00  0.00    +0.000 HD
ATOM     30  H   UNL     1      49.015   3.743  19.393  0.00  0.00    +0.000 HD
ENDBRANCH  20  27
ENDBRANCH  18  23
ENDBRANCH  17  18
ENDBRANCH   1  17
TORSDOF 6
ENDMDL
