MODEL 1
REMARK VINA RESULT:    -8.945      0.000      0.000
REMARK INTER + INTRA:         -11.951
REMARK INTER:                 -11.298
REMARK INTRA:                  -0.653
REMARK UNBOUND:                -0.653
REMARK  Name = 
REMARK  6 active torsions:
REMARK  status: ('A' for Active; 'I' for Inactive)
REMARK    1  A    between atoms: C_1  and  C_2
REMARK    2  A    between atoms: C_2  and  N_3
REMARK    3  A    between atoms: C_2  and  C_14
REMARK    4  A    between atoms: N_3  and  C_4
REMARK    5  A    between atoms: C_7  and  C_8
REMARK    6  A    between atoms: C_18  and  O_19
REMARK                            x       y       z     vdW  Elec       q    Type
REMARK                         _______ _______ _______ _____ _____    ______ ____
ROOT
ATOM      1  N   UNL     1      43.792   4.818   9.966  0.00  0.00    +0.000 N 
ATOM      2  H   UNL     1      43.921   5.816   9.780  0.00  0.00    +0.000 HD
ENDROOT
BRANCH   1   3
ATOM      3  C   UNL     1      44.733   4.092   9.222  0.00  0.00    +0.000 A 
ATOM      4  C   UNL     1      45.610   4.697   8.320  0.00  0.00    +0.000 A 
ATOM      5  C   UNL     1      46.517   3.944   7.561  0.00  0.00    +0.000 A 
ATOM      6  C   UNL     1      46.559   2.545   7.683  0.00  0.00    +0.000 A 
ATOM      7  C   UNL     1      45.674   1.923   8.564  0.00  0.00    +0.000 A 
ATOM      8  C   UNL     1      44.757   2.688   9.295  0.00  0.00    +0.000 A 
ATOM      9  F   UNL     1      43.887   2.040  10.088  0.00  0.00    +0.000 F 
BRANCH   6  10
ATOM     10  C   UNL     1      47.495   1.687   6.902  0.00  0.00    +0.000 C 
ATOM     11  N   UNL     1      48.626   2.237   6.374  0.00  0.00    +0.000 N 
ATOM     12  O   UNL     1      47.253   0.497   6.716  0.00  0.00    +0.000 OA
ATOM     13  H   UNL     1      48.888   3.212   6.434  0.00  0.00    +0.000 HD
ATOM     14  H   UNL     1      49.208   1.628   5.820  0.00  0.00    +0.000 HD
ENDBRANCH   6  10
ENDBRANCH   1   3
BRANCH   1  16
ATOM     15  C   UNL     1      42.430   5.440  11.956  0.00  0.00    +0.000 C 
ATOM     16  C   UNL     1      43.576   4.585  11.404  0.00  0.00    +0.000 C 
BRANCH  16  17
ATOM     17  C   UNL     1      44.870   4.927  12.127  0.00  0.00    +0.000 A 
ATOM     18  C   UNL     1      45.454   6.200  12.009  0.00  0.00    +0.000 A 
ATOM     19  C   UNL     1      46.678   6.481  12.618  0.00  0.00    +0.000 A 
ATOM     20  C   UNL     1      47.334   5.496  13.350  0.00  0.00    +0.000 A 
ATOM     21  C   UNL     1      46.745   4.244  13.494  0.00  0.00    +0.000 A 
ATOM     22  C   UNL     1      45.521   3.956  12.901  0.00  0.00    +0.000 A 
BRANCH  21  23
ATOM     23  O   UNL     1      47.353   3.249  14.201  0.00  0.00    +0.000 OA
ATOM     24  H   UNL     1      47.523   2.505  13.601  0.00  0.00    +0.000 HD
ENDBRANCH  21  23
ENDBRANCH  16  17
ENDBRANCH   1  16
TORSDOF 5
ENDMDL
MODEL 2
REMARK VINA RESULT:    -8.509      1.056      1.490
REMARK INTER + INTRA:         -11.400
REMARK INTER:                 -10.909
REMARK INTRA:                  -0.491
REMARK UNBOUND:                -0.653
REMARK  Name = 
REMARK  6 active torsions:
REMARK  status: ('A' for Active; 'I' for Inactive)
REMARK    1  A    between atoms: C_1  and  C_2
REMARK    2  A    between atoms: C_2  and  N_3
REMARK    3  A    between atoms: C_2  and  C_14
REMARK    4  A    between atoms: N_3  and  C_4
REMARK    5  A    between atoms: C_7  and  C_8
REMARK    6  A    between atoms: C_18  and  O_19
REMARK                            x       y       z     vdW  Elec       q    Type
REMARK                         _______ _______ _______ _____ _____    ______ ____
ROOT
ATOM      1  N   UNL     1      43.822   4.819   9.952  0.00  0.00    +0.000 N 
ATOM      2  H   UNL     1      44.052   5.806   9.810  0.00  0.00    +0.000 HD
ENDROOT
BRANCH   1   3
ATOM      3  C   UNL     1      44.732   4.034   9.230  0.00  0.00    +0.000 A 
ATOM      4  C   UNL     1      45.635   4.576   8.313  0.00  0.00    +0.000 A 
ATOM      5  C   UNL     1      46.509   3.765   7.577  0.00  0.00    +0.000 A 
ATOM      6  C   UNL     1      46.492   2.370   7.737  0.00  0.00    +0.000 A 
ATOM      7  C   UNL     1      45.580   1.810   8.633  0.00  0.00    +0.000 A 
ATOM      8  C   UNL     1      44.696   2.633   9.341  0.00  0.00    +0.000 A 
ATOM      9  F   UNL     1      43.799   2.044  10.149  0.00  0.00    +0.000 F 
BRANCH   6  10
ATOM     10  C   UNL     1      47.391   1.451   6.982  0.00  0.00    +0.000 C 
ATOM     11  N   UNL     1      48.476   1.961   6.331  0.00  0.00    +0.000 N 
ATOM     12  O   UNL     1      47.159   0.246   6.925  0.00  0.00    +0.000 OA
ATOM     13  H   UNL     1      48.724   2.941   6.280  0.00  0.00    +0.000 HD
ATOM     14  H   UNL     1      49.031   1.309   5.800  0.00  0.00    +0.000 HD
ENDBRANCH   6  10
ENDBRANCH   1   3
BRANCH   1  16
ATOM     15  C   UNL     1      42.376   5.459  11.876  0.00  0.00    +0.000 C 
ATOM     16  C   UNL     1      43.509   4.561  11.367  0.00  0.00    +0.000 C 
BRANCH  16  17
ATOM     17  C   UNL     1      44.772   4.817  12.175  0.00  0.00    +0.000 A 
ATOM     18  C   UNL     1      45.541   3.755  12.680  0.00  0.00    +0.000 A 
ATOM     19  C   UNL     1      46.658   4.000  13.481  0.00  0.00    +0.000 A 
ATOM     20  C   UNL     1      47.020   5.309  13.788  0.00  0.00    +0.000 A 
ATOM     21  C   UNL     1      46.278   6.364  13.266  0.00  0.00    +0.000 A 
ATOM     22  C   UNL     1      45.171   6.131  12.459  0.00  0.00    +0.000 A 
BRANCH  21  23
ATOM     23  O   UNL     1      46.596   7.661  13.543  0.00  0.00    +0.000 OA
ATOM     24  H   UNL     1      46.404   8.198  12.757  0.00  0.00    +0.000 HD
ENDBRANCH  21  23
ENDBRANCH  16  17
ENDBRANCH   1  16
TORSDOF 5
ENDMDL
MODEL 3
REMARK VINA RESULT:    -7.366      2.505      6.117
REMARK INTER + INTRA:          -9.957
REMARK INTER:                  -9.475
REMARK INTRA:                  -0.482
REMARK UNBOUND:                -0.653
REMARK  Name = 
REMARK  6 active torsions:
REMARK  status: ('A' for Active; 'I' for Inactive)
REMARK    1  A    between atoms: C_1  and  C_2
REMARK    2  A    between atoms: C_2  and  N_3
REMARK    3  A    between atoms: C_2  and  C_14
REMARK    4  A    between atoms: N_3  and  C_4
REMARK    5  A    between atoms: C_7  and  C_8
REMARK    6  A    between atoms: C_18  and  O_19
REMARK                            x       y       z     vdW  Elec       q    Type
REMARK                         _______ _______ _______ _____ _____    ______ ____
ROOT
ATOM      1  N   UNL     1      44.190   4.705   9.524  0.00  0.00    +0.000 N 
ATOM      2  H   UNL     1      43.252   5.094   9.399  0.00  0.00    +0.000 HD
ENDROOT
BRANCH   1   3
ATOM      3  C   UNL     1      44.835   5.398  10.557  0.00  0.00    +0.000 A 
ATOM      4  C   UNL     1      44.225   5.663  11.784  0.00  0.00    +0.000 A 
ATOM      5  C   UNL     1      44.880   6.390  12.788  0.00  0.00    +0.000 A 
ATOM      6  C   UNL     1      46.177   6.886  12.578  0.00  0.00    +0.000 A 
ATOM      7  C   UNL     1      46.793   6.648  11.348  0.00  0.00    +0.000 A 
ATOM      8  C   UNL     1      46.114   5.943  10.348  0.00  0.00    +0.000 A 
ATOM      9  F   UNL     1      46.726   5.789   9.161  0.00  0.00    +0.000 F 
BRANCH   6  10
ATOM     10  C   UNL     1      46.926   7.670  13.601  0.00  0.00    +0.000 C 
ATOM     11  N   UNL     1      47.720   7.015  14.496  0.00  0.00    +0.000 N 
ATOM     12  O   UNL     1      46.825   8.892  13.657  0.00  0.00    +0.000 OA
ATOM     13  H   UNL     1      47.831   6.012  14.560  0.00  0.00    +0.000 HD
ATOM     14  H   UNL     1      48.174   7.583  15.196  0.00  0.00    +0.000 HD
ENDBRANCH   6  10
ENDBRANCH   1   3
BRANCH   1  16
ATOM     15  C   UNL     1      44.400   2.602  10.841  0.00  0.00    +0.000 C 
ATOM     16  C   UNL     1      44.149   3.234   9.467  0.00  0.00    +0.000 C 
BRANCH  16  17
ATOM     17  C   UNL     1      45.220   2.779   8.487  0.00  0.00    +0.000 A 
ATOM     18  C   UNL     1      45.626   3.600   7.421  0.00  0.00    +0.000 A 
ATOM     19  C   UNL     1      46.556   3.145   6.485  0.00  0.00    +0.000 A 
ATOM     20  C   UNL     1      47.091   1.865   6.601  0.00  0.00    +0.000 A 
ATOM     21  C   UNL     1      46.713   1.061   7.671  0.00  0.00    +0.000 A 
ATOM     22  C   UNL     1      45.796   1.508   8.615  0.00  0.00    +0.000 A 
BRANCH  21  23
ATOM     23  O   UNL     1      47.210  -0.200   7.822  0.00  0.00    +0.000 OA
ATOM     24  H   UNL     1      46.698  -0.652   8.512  0.00  0.00    +0.000 HD
ENDBRANCH  21  23
ENDBRANCH  16  17
ENDBRANCH   1  16
TORSDOF 5
ENDMDL
MODEL 4
REMARK VINA RESULT:    -7.163      1.700      2.166
REMARK INTER + INTRA:          -9.701
REMARK INTER:                  -8.818
REMARK INTRA:                  -0.882
REMARK UNBOUND:                -0.653
REMARK  Name = 
REMARK  6 active torsions:
REMARK  status: ('A' for Active; 'I' for Inactive)
REMARK    1  A    between atoms: C_1  and  C_2
REMARK    2  A    between atoms: C_2  and  N_3
REMARK    3  A    between atoms: C_2  and  C_14
REMARK    4  A    between atoms: N_3  and  C_4
REMARK    5  A    between atoms: C_7  and  C_8
REMARK    6  A    between atoms: C_18  and  O_19
REMARK                            x       y       z     vdW  Elec       q    Type
REMARK                         _______ _______ _______ _____ _____    ______ ____
ROOT
ATOM      1  N   UNL     1      43.925   4.900  10.784  0.00  0.00    +0.000 N 
ATOM      2  H   UNL     1      43.948   5.856  10.419  0.00  0.00    +0.000 HD
ENDROOT
BRANCH   1   3
ATOM      3  C   UNL     1      44.584   4.055   9.881  0.00  0.00    +0.000 A 
ATOM      4  C   UNL     1      44.374   2.675   9.849  0.00  0.00    +0.000 A 
ATOM      5  C   UNL     1      45.073   1.847   8.959  0.00  0.00    +0.000 A 
ATOM      6  C   UNL     1      46.019   2.389   8.074  0.00  0.00    +0.000 A 
ATOM      7  C   UNL     1      46.256   3.764   8.108  0.00  0.00    +0.000 A 
ATOM      8  C   UNL     1      45.568   4.572   9.021  0.00  0.00    +0.000 A 
ATOM      9  F   UNL     1      45.871   5.881   9.055  0.00  0.00    +0.000 F 
BRANCH   6  10
ATOM     10  C   UNL     1      46.798   1.564   7.108  0.00  0.00    +0.000 C 
ATOM     11  N   UNL     1      47.006   0.242   7.371  0.00  0.00    +0.000 N 
ATOM     12  O   UNL     1      47.267   2.062   6.088  0.00  0.00    +0.000 OA
ATOM     13  H   UNL     1      46.701  -0.247   8.203  0.00  0.00    +0.000 HD
ATOM     14  H   UNL     1      47.574  -0.266   6.710  0.00  0.00    +0.000 HD
ENDBRANCH   6  10
ENDBRANCH   1   3
BRANCH   1  16
ATOM     15  C   UNL     1      42.977   5.222  13.064  0.00  0.00    +0.000 C 
ATOM     16  C   UNL     1      44.218   4.892  12.227  0.00  0.00    +0.000 C 
BRANCH  16  17
ATOM     17  C   UNL     1      45.303   5.927  12.485  0.00  0.00    +0.000 A 
ATOM     18  C   UNL     1      45.004   7.300  12.523  0.00  0.00    +0.000 A 
ATOM     19  C   UNL     1      46.017   8.245  12.688  0.00  0.00    +0.000 A 
ATOM     20  C   UNL     1      47.341   7.833  12.815  0.00  0.00    +0.000 A 
ATOM     21  C   UNL     1      47.637   6.474  12.806  0.00  0.00    +0.000 A 
ATOM     22  C   UNL     1      46.634   5.523  12.654  0.00  0.00    +0.000 A 
BRANCH  21  23
ATOM     23  O   UNL     1      48.919   6.025  12.926  0.00  0.00    +0.000 OA
ATOM     24  H   UNL     1      49.326   6.018  12.045  0.00  0.00    +0.000 HD
ENDBRANCH  21  23
ENDBRANCH  16  17
ENDBRANCH   1  16
TORSDOF 5
ENDMDL
MODEL 5
REMARK VINA RESULT:    -6.913      3.056      6.195
REMARK INTER + INTRA:          -9.385
REMARK INTER:                  -8.763
REMARK INTRA:                  -0.622
REMARK UNBOUND:                -0.653
REMARK  Name = 
REMARK  6 active torsions:
REMARK  status: ('A' for Active; 'I' for Inactive)
REMARK    1  A    between atoms: C_1  and  C_2
REMARK    2  A    between atoms: C_2  and  N_3
REMARK    3  A    between atoms: C_2  and  C_14
REMARK    4  A    between atoms: N_3  and  C_4
REMARK    5  A    between atoms: C_7  and  C_8
REMARK    6  A    between atoms: C_18  and  O_19
REMARK                            x       y       z     vdW  Elec       q    Type
REMARK                         _______ _______ _______ _____ _____    ______ ____
ROOT
ATOM      1  N   UNL     1      45.184   4.900  12.159  0.00  0.00    +0.000 N 
ATOM      2  H   UNL     1      45.441   3.911  12.202  0.00  0.00    +0.000 HD
ENDROOT
BRANCH   1   3
ATOM      3  C   UNL     1      46.294   5.673  12.526  0.00  0.00    +0.000 A 
ATOM      4  C   UNL     1      46.885   6.602  11.667  0.00  0.00    +0.000 A 
ATOM      5  C   UNL     1      48.017   7.336  12.047  0.00  0.00    +0.000 A 
ATOM      6  C   UNL     1      48.599   7.146  13.310  0.00  0.00    +0.000 A 
ATOM      7  C   UNL     1      48.034   6.205  14.173  0.00  0.00    +0.000 A 
ATOM      8  C   UNL     1      46.919   5.463  13.768  0.00  0.00    +0.000 A 
ATOM      9  F   UNL     1      46.445   4.529  14.611  0.00  0.00    +0.000 F 
BRANCH   6  10
ATOM     10  C   UNL     1      49.806   7.890  13.773  0.00  0.00    +0.000 C 
ATOM     11  N   UNL     1      50.972   7.774  13.075  0.00  0.00    +0.000 N 
ATOM     12  O   UNL     1      49.767   8.591  14.780  0.00  0.00    +0.000 OA
ATOM     13  H   UNL     1      51.116   7.187  12.264  0.00  0.00    +0.000 HD
ATOM     14  H   UNL     1      51.771   8.262  13.449  0.00  0.00    +0.000 HD
ENDBRANCH   6  10
ENDBRANCH   1   3
BRANCH   1  16
ATOM     15  C   UNL     1      42.895   4.997  11.184  0.00  0.00    +0.000 C 
ATOM     16  C   UNL     1      44.398   5.177  10.945  0.00  0.00    +0.000 C 
BRANCH  16  17
ATOM     17  C   UNL     1      44.867   4.218   9.862  0.00  0.00    +0.000 A 
ATOM     18  C   UNL     1      44.610   2.839   9.951  0.00  0.00    +0.000 A 
ATOM     19  C   UNL     1      45.106   1.958   8.989  0.00  0.00    +0.000 A 
ATOM     20  C   UNL     1      45.866   2.442   7.928  0.00  0.00    +0.000 A 
ATOM     21  C   UNL     1      46.099   3.809   7.821  0.00  0.00    +0.000 A 
ATOM     22  C   UNL     1      45.600   4.697   8.767  0.00  0.00    +0.000 A 
BRANCH  21  23
ATOM     23  O   UNL     1      46.840   4.326   6.800  0.00  0.00    +0.000 OA
ATOM     24  H   UNL     1      46.997   5.267   6.980  0.00  0.00    +0.000 HD
ENDBRANCH  21  23
ENDBRANCH  16  17
ENDBRANCH   1  16
TORSDOF 5
ENDMDL
MODEL 6
REMARK VINA RESULT:    -6.861      3.150      6.510
REMARK INTER + INTRA:          -9.319
REMARK INTER:                  -8.689
REMARK INTRA:                  -0.629
REMARK UNBOUND:                -0.653
REMARK  Name = 
REMARK  6 active torsions:
REMARK  status: ('A' for Active; 'I' for Inactive)
REMARK    1  A    between atoms: C_1  and  C_2
REMARK    2  A    between atoms: C_2  and  N_3
REMARK    3  A    between atoms: C_2  and  C_14
REMARK    4  A    between atoms: N_3  and  C_4
REMARK    5  A    between atoms: C_7  and  C_8
REMARK    6  A    between atoms: C_18  and  O_19
REMARK                            x       y       z     vdW  Elec       q    Type
REMARK                         _______ _______ _______ _____ _____    ______ ____
ROOT
ATOM      1  N   UNL     1      45.278   4.646  11.623  0.00  0.00    +0.000 N 
ATOM      2  H   UNL     1      46.190   4.223  11.433  0.00  0.00    +0.000 HD
ENDROOT
BRANCH   1   3
ATOM      3  C   UNL     1      45.440   6.032  11.752  0.00  0.00    +0.000 A 
ATOM      4  C   UNL     1      44.470   6.947  11.337  0.00  0.00    +0.000 A 
ATOM      5  C   UNL     1      44.672   8.330  11.445  0.00  0.00    +0.000 A 
ATOM      6  C   UNL     1      45.873   8.836  11.968  0.00  0.00    +0.000 A 
ATOM      7  C   UNL     1      46.861   7.935  12.368  0.00  0.00    +0.000 A 
ATOM      8  C   UNL     1      46.653   6.558  12.230  0.00  0.00    +0.000 A 
ATOM      9  F   UNL     1      47.656   5.733  12.574  0.00  0.00    +0.000 F 
BRANCH   6  10
ATOM     10  C   UNL     1      46.152  10.294  12.105  0.00  0.00    +0.000 C 
ATOM     11  N   UNL     1      45.114  11.179  12.093  0.00  0.00    +0.000 N 
ATOM     12  O   UNL     1      47.303  10.709  12.211  0.00  0.00    +0.000 OA
ATOM     13  H   UNL     1      44.140  10.940  11.964  0.00  0.00    +0.000 HD
ATOM     14  H   UNL     1      45.354  12.157  12.146  0.00  0.00    +0.000 HD
ENDBRANCH   6  10
ENDBRANCH   1   3
BRANCH   1  16
ATOM     15  C   UNL     1      43.413   3.000  11.509  0.00  0.00    +0.000 C 
ATOM     16  C   UNL     1      44.243   4.050  10.763  0.00  0.00    +0.000 C 
BRANCH  16  17
ATOM     17  C   UNL     1      44.944   3.405   9.576  0.00  0.00    +0.000 A 
ATOM     18  C   UNL     1      45.024   2.007   9.451  0.00  0.00    +0.000 A 
ATOM     19  C   UNL     1      45.730   1.425   8.397  0.00  0.00    +0.000 A 
ATOM     20  C   UNL     1      46.367   2.230   7.458  0.00  0.00    +0.000 A 
ATOM     21  C   UNL     1      46.267   3.614   7.562  0.00  0.00    +0.000 A 
ATOM     22  C   UNL     1      45.556   4.204   8.601  0.00  0.00    +0.000 A 
BRANCH  21  23
ATOM     23  O   UNL     1      46.876   4.441   6.665  0.00  0.00    +0.000 OA
ATOM     24  H   UNL     1      46.261   4.607   5.933  0.00  0.00    +0.000 HD
ENDBRANCH  21  23
ENDBRANCH  16  17
ENDBRANCH   1  16
TORSDOF 5
ENDMDL
MODEL 7
REMARK VINA RESULT:    -6.555      3.065      6.704
REMARK INTER + INTRA:          -8.932
REMARK INTER:                  -8.498
REMARK INTRA:                  -0.434
REMARK UNBOUND:                -0.653
REMARK  Name = 
REMARK  6 active torsions:
REMARK  status: ('A' for Active; 'I' for Inactive)
REMARK    1  A    between atoms: C_1  and  C_2
REMARK    2  A    between atoms: C_2  and  N_3
REMARK    3  A    between atoms: C_2  and  C_14
REMARK    4  A    between atoms: N_3  and  C_4
REMARK    5  A    between atoms: C_7  and  C_8
REMARK    6  A    between atoms: C_18  and  O_19
REMARK                            x       y       z     vdW  Elec       q    Type
REMARK                         _______ _______ _______ _____ _____    ______ ____
ROOT
ATOM      1  N   UNL     1      45.210   6.280  10.432  0.00  0.00    +0.000 N 
ATOM      2  H   UNL     1      44.605   7.016  10.058  0.00  0.00    +0.000 HD
ENDROOT
BRANCH   1   3
ATOM      3  C   UNL     1      45.980   6.813  11.474  0.00  0.00    +0.000 A 
ATOM      4  C   UNL     1      47.197   6.257  11.873  0.00  0.00    +0.000 A 
ATOM      5  C   UNL     1      47.931   6.789  12.943  0.00  0.00    +0.000 A 
ATOM      6  C   UNL     1      47.450   7.899  13.656  0.00  0.00    +0.000 A 
ATOM      7  C   UNL     1      46.224   8.453  13.283  0.00  0.00    +0.000 A 
ATOM      8  C   UNL     1      45.493   7.894  12.229  0.00  0.00    +0.000 A 
ATOM      9  F   UNL     1      44.292   8.427  11.945  0.00  0.00    +0.000 F 
BRANCH   6  10
ATOM     10  C   UNL     1      48.178   8.508  14.805  0.00  0.00    +0.000 C 
ATOM     11  N   UNL     1      47.502   9.312  15.675  0.00  0.00    +0.000 N 
ATOM     12  O   UNL     1      49.379   8.309  14.969  0.00  0.00    +0.000 OA
ATOM     13  H   UNL     1      46.527   9.572  15.599  0.00  0.00    +0.000 HD
ATOM     14  H   UNL     1      48.044   9.735  16.413  0.00  0.00    +0.000 HD
ENDBRANCH   6  10
ENDBRANCH   1   3
BRANCH   1  16
ATOM     15  C   UNL     1      44.589   4.430  11.978  0.00  0.00    +0.000 C 
ATOM     16  C   UNL     1      44.463   5.019  10.569  0.00  0.00    +0.000 C 
BRANCH  16  17
ATOM     17  C   UNL     1      45.019   4.038   9.548  0.00  0.00    +0.000 A 
ATOM     18  C   UNL     1      44.900   2.650   9.733  0.00  0.00    +0.000 A 
ATOM     19  C   UNL     1      45.477   1.758   8.828  0.00  0.00    +0.000 A 
ATOM     20  C   UNL     1      46.181   2.240   7.728  0.00  0.00    +0.000 A 
ATOM     21  C   UNL     1      46.277   3.613   7.526  0.00  0.00    +0.000 A 
ATOM     22  C   UNL     1      45.697   4.511   8.415  0.00  0.00    +0.000 A 
BRANCH  21  23
ATOM     23  O   UNL     1      46.958   4.130   6.464  0.00  0.00    +0.000 OA
ATOM     24  H   UNL     1      46.818   3.550   5.698  0.00  0.00    +0.000 HD
ENDBRANCH  21  23
ENDBRANCH  16  17
ENDBRANCH   1  16
TORSDOF 5
ENDMDL
MODEL 8
REMARK VINA RESULT:    -6.439      4.131      6.055
REMARK INTER + INTRA:          -8.786
REMARK INTER:                  -8.161
REMARK INTRA:                  -0.625
REMARK UNBOUND:                -0.653
REMARK  Name = 
REMARK  6 active torsions:
REMARK  status: ('A' for Active; 'I' for Inactive)
REMARK    1  A    between atoms: C_1  and  C_2
REMARK    2  A    between atoms: C_2  and  N_3
REMARK    3  A    between atoms: C_2  and  C_14
REMARK    4  A    between atoms: N_3  and  C_4
REMARK    5  A    between atoms: C_7  and  C_8
REMARK    6  A    between atoms: C_18  and  O_19
REMARK                            x       y       z     vdW  Elec       q    Type
REMARK                         _______ _______ _______ _____ _____    ______ ____
ROOT
ATOM      1  N   UNL     1      48.240   5.825  14.023  0.00  0.00    +0.000 N 
ATOM      2  H   UNL     1      48.713   4.918  14.024  0.00  0.00    +0.000 HD
ENDROOT
BRANCH   1   3
ATOM      3  C   UNL     1      46.975   5.676  13.438  0.00  0.00    +0.000 A 
ATOM      4  C   UNL     1      46.167   6.763  13.100  0.00  0.00    +0.000 A 
ATOM      5  C   UNL     1      44.890   6.584  12.549  0.00  0.00    +0.000 A 
ATOM      6  C   UNL     1      44.382   5.294  12.331  0.00  0.00    +0.000 A 
ATOM      7  C   UNL     1      45.169   4.196  12.684  0.00  0.00    +0.000 A 
ATOM      8  C   UNL     1      46.430   4.392  13.256  0.00  0.00    +0.000 A 
ATOM      9  F   UNL     1      47.127   3.306  13.632  0.00  0.00    +0.000 F 
BRANCH   6  10
ATOM     10  C   UNL     1      43.032   5.036  11.754  0.00  0.00    +0.000 C 
ATOM     11  N   UNL     1      42.098   6.030  11.763  0.00  0.00    +0.000 N 
ATOM     12  O   UNL     1      42.745   3.937  11.286  0.00  0.00    +0.000 OA
ATOM     13  H   UNL     1      42.223   6.950  12.166  0.00  0.00    +0.000 HD
ATOM     14  H   UNL     1      41.187   5.797  11.400  0.00  0.00    +0.000 HD
ENDBRANCH   6  10
ENDBRANCH   1   3
BRANCH   1  16
ATOM     15  C   UNL     1      49.704   7.374  15.311  0.00  0.00    +0.000 C 
ATOM     16  C   UNL     1      48.437   6.512  15.310  0.00  0.00    +0.000 C 
BRANCH  16  17
ATOM     17  C   UNL     1      48.538   5.446  16.391  0.00  0.00    +0.000 A 
ATOM     18  C   UNL     1      49.721   5.270  17.130  0.00  0.00    +0.000 A 
ATOM     19  C   UNL     1      49.827   4.243  18.070  0.00  0.00    +0.000 A 
ATOM     20  C   UNL     1      48.757   3.379  18.282  0.00  0.00    +0.000 A 
ATOM     21  C   UNL     1      47.575   3.568  17.573  0.00  0.00    +0.000 A 
ATOM     22  C   UNL     1      47.454   4.594  16.643  0.00  0.00    +0.000 A 
BRANCH  21  23
ATOM     23  O   UNL     1      46.502   2.745  17.747  0.00  0.00    +0.000 OA
ATOM     24  H   UNL     1      46.278   2.347  16.890  0.00  0.00    +0.000 HD
ENDBRANCH  21  23
ENDBRANCH  16  17
ENDBRANCH   1  16
TORSDOF 5
ENDMDL
MODEL 9
REMARK VINA RESULT:    -6.018      3.474      6.837
REMARK INTER + INTRA:          -8.254
REMARK INTER:                  -7.543
REMARK INTRA:                  -0.712
REMARK UNBOUND:                -0.653
REMARK  Name = 
REMARK  6 active torsions:
REMARK  status: ('A' for Active; 'I' for Inactive)
REMARK    1  A    between atoms: C_1  and  C_2
REMARK    2  A    between atoms: C_2  and  N_3
REMARK    3  A    between atoms: C_2  and  C_14
REMARK    4  A    between atoms: N_3  and  C_4
REMARK    5  A    between atoms: C_7  and  C_8
REMARK    6  A    between atoms: C_18  and  O_19
REMARK                            x       y       z     vdW  Elec       q    Type
REMARK                         _______ _______ _______ _____ _____    ______ ____
ROOT
ATOM      1  N   UNL     1      47.338   6.245  12.306  0.00  0.00    +0.000 N 
ATOM      2  H   UNL     1      48.202   6.643  11.929  0.00  0.00    +0.000 HD
ENDROOT
BRANCH   1   3
ATOM      3  C   UNL     1      47.552   5.883  13.643  0.00  0.00    +0.000 A 
ATOM      4  C   UNL     1      48.331   6.645  14.516  0.00  0.00    +0.000 A 
ATOM      5  C   UNL     1      48.559   6.241  15.839  0.00  0.00    +0.000 A 
ATOM      6  C   UNL     1      48.012   5.041  16.323  0.00  0.00    +0.000 A 
ATOM      7  C   UNL     1      47.249   4.257  15.456  0.00  0.00    +0.000 A 
ATOM      8  C   UNL     1      47.053   4.662  14.131  0.00  0.00    +0.000 A 
ATOM      9  F   UNL     1      46.358   3.846  13.320  0.00  0.00    +0.000 F 
BRANCH   6  10
ATOM     10  C   UNL     1      48.220   4.553  17.715  0.00  0.00    +0.000 C 
ATOM     11  N   UNL     1      47.219   4.694  18.631  0.00  0.00    +0.000 N 
ATOM     12  O   UNL     1      49.284   4.041  18.052  0.00  0.00    +0.000 OA
ATOM     13  H   UNL     1      46.328   5.143  18.463  0.00  0.00    +0.000 HD
ATOM     14  H   UNL     1      47.420   4.387  19.570  0.00  0.00    +0.000 HD
ENDBRANCH   6  10
ENDBRANCH   1   3
BRANCH   1  16
ATOM     15  C   UNL     1      45.835   8.141  12.895  0.00  0.00    +0.000 C 
ATOM     16  C   UNL     1      46.175   7.042  11.883  0.00  0.00    +0.000 C 
BRANCH  16  17
ATOM     17  C   UNL     1      44.994   6.094  11.735  0.00  0.00    +0.000 A 
ATOM     18  C   UNL     1      43.995   6.018  12.720  0.00  0.00    +0.000 A 
ATOM     19  C   UNL     1      42.954   5.094  12.610  0.00  0.00    +0.000 A 
ATOM     20  C   UNL     1      42.899   4.235  11.516  0.00  0.00    +0.000 A 
ATOM     21  C   UNL     1      43.871   4.327  10.525  0.00  0.00    +0.000 A 
ATOM     22  C   UNL     1      44.905   5.250  10.619  0.00  0.00    +0.000 A 
BRANCH  21  23
ATOM     23  O   UNL     1      43.857   3.504   9.438  0.00  0.00    +0.000 OA
ATOM     24  H   UNL     1      44.603   3.740   8.863  0.00  0.00    +0.000 HD
ENDBRANCH  21  23
ENDBRANCH  16  17
ENDBRANCH   1  16
TORSDOF 5
ENDMDL
