MODEL 1
REMARK VINA RESULT:    -8.553      0.000      0.000
REMARK INTER + INTRA:         -11.154
REMARK INTER:                 -10.553
REMARK INTRA:                  -0.601
REMARK UNBOUND:                -0.601
REMARK  Name = 
REMARK  4 active torsions:
REMARK  status: ('A' for Active; 'I' for Inactive)
REMARK    1  A    between atoms: C_2  and  C_4
REMARK    2  A    between atoms: C_7  and  C_8
REMARK    3  A    between atoms: C_8  and  C_9
REMARK    4  A    between atoms: C_9  and  C_10
REMARK                            x       y       z     vdW  Elec       q    Type
REMARK                         _______ _______ _______ _____ _____    ______ ____
ROOT
ATOM      1  C   UNL     1      46.616   2.781   7.544  0.00  0.00    +0.000 A 
ATOM      2  C   UNL     1      45.943   1.961   8.430  0.00  0.00    +0.000 A 
ATOM      3  C   UNL     1      45.037   2.549   9.310  0.00  0.00    +0.000 A 
ATOM      4  C   UNL     1      44.869   3.929   9.297  0.00  0.00    +0.000 A 
ATOM      5  N   UNL     1      45.553   4.692   8.410  0.00  0.00    +0.000 NA
ATOM      6  N   UNL     1      46.435   4.119   7.523  0.00  0.00    +0.000 NA
ENDROOT
BRANCH   1   8
ATOM      7  N   UNL     1      47.835   2.981   5.446  0.00  0.00    +0.000 N 
ATOM      8  C   UNL     1      47.559   2.204   6.543  0.00  0.00    +0.000 C 
ATOM      9  O   UNL     1      48.059   1.094   6.678  0.00  0.00    +0.000 OA
ATOM     10  H   UNL     1      48.463   2.626   4.740  0.00  0.00    +0.000 HD
ATOM     11  H   UNL     1      47.419   3.899   5.340  0.00  0.00    +0.000 HD
ENDBRANCH   1   8
BRANCH   4  12
ATOM     12  C   UNL     1      43.851   4.652  10.147  0.00  0.00    +0.000 C 
BRANCH  12  13
ATOM     13  C   UNL     1      44.131   4.667  11.649  0.00  0.00    +0.000 C 
ATOM     14  C   UNL     1      43.410   3.636  12.508  0.00  0.00    +0.000 C 
ATOM     15  C   UNL     1      42.966   5.062  12.560  0.00  0.00    +0.000 C 
BRANCH  13  16
ATOM     16  C   UNL     1      45.490   5.203  12.091  0.00  0.00    +0.000 A 
ATOM     17  C   UNL     1      46.007   6.407  11.584  0.00  0.00    +0.000 A 
ATOM     18  C   UNL     1      47.212   6.919  12.062  0.00  0.00    +0.000 A 
ATOM     19  C   UNL     1      47.885   6.206  13.036  0.00  0.00    +0.000 A 
ATOM     20  F   UNL     1      49.030   6.707  13.519  0.00  0.00    +0.000 F 
ATOM     21  N   UNL     1      47.451   5.039  13.545  0.00  0.00    +0.000 NA
ATOM     22  C   UNL     1      46.274   4.576  13.063  0.00  0.00    +0.000 A 
ENDBRANCH  13  16
ENDBRANCH  12  13
ENDBRANCH   4  12
TORSDOF 4
ENDMDL
MODEL 2
REMARK VINA RESULT:    -7.301      2.097      2.360
REMARK INTER + INTRA:          -9.610
REMARK INTER:                  -9.169
REMARK INTRA:                  -0.441
REMARK UNBOUND:                -0.601
REMARK  Name = 
REMARK  4 active torsions:
REMARK  status: ('A' for Active; 'I' for Inactive)
REMARK    1  A    between atoms: C_2  and  C_4
REMARK    2  A    between atoms: C_7  and  C_8
REMARK    3  A    between atoms: C_8  and  C_9
REMARK    4  A    between atoms: C_9  and  C_10
REMARK                            x       y       z     vdW  Elec       q    Type
REMARK                         _______ _______ _______ _____ _____    ______ ____
ROOT
ATOM      1  C   UNL     1      46.386   2.991   7.560  0.00  0.00    +0.000 A 
ATOM      2  C   UNL     1      45.723   2.078   8.360  0.00  0.00    +0.000 A 
ATOM      3  C   UNL     1      44.854   2.566   9.333  0.00  0.00    +0.000 A 
ATOM      4  C   UNL     1      44.710   3.940   9.493  0.00  0.00    +0.000 A 
ATOM      5  N   UNL     1      45.381   4.797   8.685  0.00  0.00    +0.000 NA
ATOM      6  N   UNL     1      46.227   4.324   7.708  0.00  0.00    +0.000 NA
ENDROOT
BRANCH   1   8
ATOM      7  N   UNL     1      48.305   1.681   6.835  0.00  0.00    +0.000 N 
ATOM      8  C   UNL     1      47.289   2.527   6.468  0.00  0.00    +0.000 C 
ATOM      9  O   UNL     1      47.147   2.884   5.305  0.00  0.00    +0.000 OA
ATOM     10  H   UNL     1      48.945   1.349   6.128  0.00  0.00    +0.000 HD
ATOM     11  H   UNL     1      48.418   1.390   7.799  0.00  0.00    +0.000 HD
ENDBRANCH   1   8
BRANCH   4  12
ATOM     12  C   UNL     1      43.729   4.569  10.455  0.00  0.00    +0.000 C 
BRANCH  12  13
ATOM     13  C   UNL     1      44.306   4.997  11.804  0.00  0.00    +0.000 C 
ATOM     14  C   UNL     1      45.065   3.949  12.608  0.00  0.00    +0.000 C 
ATOM     15  C   UNL     1      43.694   4.349  13.048  0.00  0.00    +0.000 C 
BRANCH  13  16
ATOM     16  C   UNL     1      44.655   6.474  11.966  0.00  0.00    +0.000 A 
ATOM     17  C   UNL     1      45.654   6.900  12.858  0.00  0.00    +0.000 A 
ATOM     18  C   UNL     1      46.012   8.245  12.930  0.00  0.00    +0.000 A 
ATOM     19  C   UNL     1      45.353   9.143  12.114  0.00  0.00    +0.000 A 
ATOM     20  F   UNL     1      45.713  10.433  12.159  0.00  0.00    +0.000 F 
ATOM     21  N   UNL     1      44.376   8.798  11.256  0.00  0.00    +0.000 NA
ATOM     22  C   UNL     1      44.059   7.484  11.207  0.00  0.00    +0.000 A 
ENDBRANCH  13  16
ENDBRANCH  12  13
ENDBRANCH   4  12
TORSDOF 4
ENDMDL
MODEL 3
REMARK VINA RESULT:    -6.957      3.355      6.520
REMARK INTER + INTRA:          -9.185
REMARK INTER:                  -9.012
REMARK INTRA:                  -0.173
REMARK UNBOUND:                -0.601
REMARK  Name = 
REMARK  4 active torsions:
REMARK  status: ('A' for Active; 'I' for Inactive)
REMARK    1  A    between atoms: C_2  and  C_4
REMARK    2  A    between atoms: C_7  and  C_8
REMARK    3  A    between atoms: C_8  and  C_9
REMARK    4  A    between atoms: C_9  and  C_10
REMARK                            x       y       z     vdW  Elec       q    Type
REMARK                         _______ _______ _______ _____ _____    ______ ____
ROOT
ATOM      1  C   UNL     1      47.991   5.915  14.655  0.00  0.00    +0.000 A 
ATOM      2  C   UNL     1      47.501   6.402  13.458  0.00  0.00    +0.000 A 
ATOM      3  C   UNL     1      46.609   5.608  12.741  0.00  0.00    +0.000 A 
ATOM      4  C   UNL     1      46.273   4.349  13.227  0.00  0.00    +0.000 A 
ATOM      5  N   UNL     1      46.780   3.913  14.406  0.00  0.00    +0.000 NA
ATOM      6  N   UNL     1      47.647   4.699  15.131  0.00  0.00    +0.000 NA
ENDROOT
BRANCH   1   8
ATOM      7  N   UNL     1      48.317   7.659  16.321  0.00  0.00    +0.000 N 
ATOM      8  C   UNL     1      48.909   6.741  15.492  0.00  0.00    +0.000 C 
ATOM      9  O   UNL     1      50.127   6.621  15.441  0.00  0.00    +0.000 OA
ATOM     10  H   UNL     1      48.902   8.245  16.900  0.00  0.00    +0.000 HD
ATOM     11  H   UNL     1      47.309   7.755  16.358  0.00  0.00    +0.000 HD
ENDBRANCH   1   8
BRANCH   4  12
ATOM     12  C   UNL     1      45.250   3.449  12.574  0.00  0.00    +0.000 C 
BRANCH  12  13
ATOM     13  C   UNL     1      44.508   4.047  11.380  0.00  0.00    +0.000 C 
ATOM     14  C   UNL     1      43.684   5.305  11.622  0.00  0.00    +0.000 C 
ATOM     15  C   UNL     1      42.979   4.002  11.430  0.00  0.00    +0.000 C 
BRANCH  13  16
ATOM     16  C   UNL     1      45.103   3.788   9.998  0.00  0.00    +0.000 A 
ATOM     17  C   UNL     1      45.169   2.494   9.456  0.00  0.00    +0.000 A 
ATOM     18  C   UNL     1      45.641   2.291   8.161  0.00  0.00    +0.000 A 
ATOM     19  C   UNL     1      46.052   3.391   7.434  0.00  0.00    +0.000 A 
ATOM     20  F   UNL     1      46.481   3.205   6.178  0.00  0.00    +0.000 F 
ATOM     21  N   UNL     1      46.032   4.651   7.906  0.00  0.00    +0.000 NA
ATOM     22  C   UNL     1      45.560   4.812   9.164  0.00  0.00    +0.000 A 
ENDBRANCH  13  16
ENDBRANCH  12  13
ENDBRANCH   4  12
TORSDOF 4
ENDMDL
MODEL 4
REMARK VINA RESULT:    -6.188      3.610      6.394
REMARK INTER + INTRA:          -8.237
REMARK INTER:                  -8.555
REMARK INTRA:                   0.318
REMARK UNBOUND:                -0.601
REMARK  Name = 
REMARK  4 active torsions:
REMARK  status: ('A' for Active; 'I' for Inactive)
REMARK    1  A    between atoms: C_2  and  C_4
REMARK    2  A    between atoms: C_7  and  C_8
REMARK    3  A    between atoms: C_8  and  C_9
REMARK    4  A    between atoms: C_9  and  C_10
REMARK                            x       y       z     vdW  Elec       q    Type
REMARK                         _______ _______ _______ _____ _____    ______ ____
ROOT
ATOM      1  C   UNL     1      46.700   8.013  12.782  0.00  0.00    +0.000 A 
ATOM      2  C   UNL     1      47.275   7.132  11.885  0.00  0.00    +0.000 A 
ATOM      3  C   UNL     1      46.440   6.243  11.212  0.00  0.00    +0.000 A 
ATOM      4  C   UNL     1      45.078   6.242  11.487  0.00  0.00    +0.000 A 
ATOM      5  N   UNL     1      44.560   7.125  12.376  0.00  0.00    +0.000 NA
ATOM      6  N   UNL     1      45.373   8.021  13.032  0.00  0.00    +0.000 NA
ENDROOT
BRANCH   1   8
ATOM      7  N   UNL     1      47.418   9.057  14.860  0.00  0.00    +0.000 N 
ATOM      8  C   UNL     1      47.535   9.023  13.494  0.00  0.00    +0.000 C 
ATOM      9  O   UNL     1      48.282   9.791  12.900  0.00  0.00    +0.000 OA
ATOM     10  H   UNL     1      47.960   9.731  15.382  0.00  0.00    +0.000 HD
ATOM     11  H   UNL     1      46.799   8.419  15.347  0.00  0.00    +0.000 HD
ENDBRANCH   1   8
BRANCH   4  12
ATOM     12  C   UNL     1      44.078   5.382  10.750  0.00  0.00    +0.000 C 
BRANCH  12  13
ATOM     13  C   UNL     1      44.415   3.894  10.671  0.00  0.00    +0.000 C 
ATOM     14  C   UNL     1      43.500   2.926  11.411  0.00  0.00    +0.000 C 
ATOM     15  C   UNL     1      44.852   3.220  11.974  0.00  0.00    +0.000 C 
BRANCH  13  16
ATOM     16  C   UNL     1      45.170   3.423   9.431  0.00  0.00    +0.000 A 
ATOM     17  C   UNL     1      45.444   2.063   9.209  0.00  0.00    +0.000 A 
ATOM     18  C   UNL     1      46.062   1.648   8.031  0.00  0.00    +0.000 A 
ATOM     19  C   UNL     1      46.406   2.607   7.099  0.00  0.00    +0.000 A 
ATOM     20  F   UNL     1      46.976   2.211   5.952  0.00  0.00    +0.000 F 
ATOM     21  N   UNL     1      46.188   3.924   7.264  0.00  0.00    +0.000 NA
ATOM     22  C   UNL     1      45.580   4.291   8.416  0.00  0.00    +0.000 A 
ENDBRANCH  13  16
ENDBRANCH  12  13
ENDBRANCH   4  12
TORSDOF 4
ENDMDL
MODEL 5
REMARK VINA RESULT:    -6.146      3.733      6.697
REMARK INTER + INTRA:          -8.185
REMARK INTER:                  -7.875
REMARK INTRA:                  -0.309
REMARK UNBOUND:                -0.601
REMARK  Name = 
REMARK  4 active torsions:
REMARK  status: ('A' for Active; 'I' for Inactive)
REMARK    1  A    between atoms: C_2  and  C_4
REMARK    2  A    between atoms: C_7  and  C_8
REMARK    3  A    between atoms: C_8  and  C_9
REMARK    4  A    between atoms: C_9  and  C_10
REMARK                            x       y       z     vdW  Elec       q    Type
REMARK                         _______ _______ _______ _____ _____    ______ ____
ROOT
ATOM      1  C   UNL     1      48.139   3.383  15.838  0.00  0.00    +0.000 A 
ATOM      2  C   UNL     1      47.926   4.708  16.166  0.00  0.00    +0.000 A 
ATOM      3  C   UNL     1      47.040   5.445  15.382  0.00  0.00    +0.000 A 
ATOM      4  C   UNL     1      46.436   4.843  14.285  0.00  0.00    +0.000 A 
ATOM      5  N   UNL     1      46.678   3.539  14.001  0.00  0.00    +0.000 NA
ATOM      6  N   UNL     1      47.535   2.798  14.781  0.00  0.00    +0.000 NA
ENDROOT
BRANCH   1   8
ATOM      7  N   UNL     1      49.080   2.818  18.011  0.00  0.00    +0.000 N 
ATOM      8  C   UNL     1      49.036   2.530  16.671  0.00  0.00    +0.000 C 
ATOM      9  O   UNL     1      49.707   1.624  16.192  0.00  0.00    +0.000 OA
ATOM     10  H   UNL     1      49.680   2.271  18.610  0.00  0.00    +0.000 HD
ATOM     11  H   UNL     1      48.523   3.569  18.401  0.00  0.00    +0.000 HD
ENDBRANCH   1   8
BRANCH   4  12
ATOM     12  C   UNL     1      45.397   5.525  13.427  0.00  0.00    +0.000 C 
BRANCH  12  13
ATOM     13  C   UNL     1      45.856   5.932  12.027  0.00  0.00    +0.000 C 
ATOM     14  C   UNL     1      47.173   6.690  11.912  0.00  0.00    +0.000 C 
ATOM     15  C   UNL     1      45.889   7.432  11.725  0.00  0.00    +0.000 C 
BRANCH  13  16
ATOM     16  C   UNL     1      45.380   5.063  10.866  0.00  0.00    +0.000 A 
ATOM     17  C   UNL     1      45.804   5.299   9.547  0.00  0.00    +0.000 A 
ATOM     18  C   UNL     1      45.422   4.445   8.515  0.00  0.00    +0.000 A 
ATOM     19  C   UNL     1      44.608   3.371   8.822  0.00  0.00    +0.000 A 
ATOM     20  F   UNL     1      44.260   2.530   7.839  0.00  0.00    +0.000 F 
ATOM     21  N   UNL     1      44.153   3.105  10.060  0.00  0.00    +0.000 NA
ATOM     22  C   UNL     1      44.550   3.952  11.038  0.00  0.00    +0.000 A 
ENDBRANCH  13  16
ENDBRANCH  12  13
ENDBRANCH   4  12
TORSDOF 4
ENDMDL
MODEL 6
REMARK VINA RESULT:    -5.846      1.777      2.408
REMARK INTER + INTRA:          -7.815
REMARK INTER:                  -8.398
REMARK INTRA:                   0.583
REMARK UNBOUND:                -0.601
REMARK  Name = 
REMARK  4 active torsions:
REMARK  status: ('A' for Active; 'I' for Inactive)
REMARK    1  A    between atoms: C_2  and  C_4
REMARK    2  A    between atoms: C_7  and  C_8
REMARK    3  A    between atoms: C_8  and  C_9
REMARK    4  A    between atoms: C_9  and  C_10
REMARK                            x       y       z     vdW  Elec       q    Type
REMARK                         _______ _______ _______ _____ _____    ______ ____
ROOT
ATOM      1  C   UNL     1      46.021   3.181   7.894  0.00  0.00    +0.000 A 
ATOM      2  C   UNL     1      45.237   2.520   8.821  0.00  0.00    +0.000 A 
ATOM      3  C   UNL     1      44.689   3.261   9.865  0.00  0.00    +0.000 A 
ATOM      4  C   UNL     1      44.975   4.618   9.964  0.00  0.00    +0.000 A 
ATOM      5  N   UNL     1      45.750   5.223   9.031  0.00  0.00    +0.000 NA
ATOM      6  N   UNL     1      46.280   4.504   7.984  0.00  0.00    +0.000 NA
ENDROOT
BRANCH   1   8
ATOM      7  N   UNL     1      47.110   1.207   6.977  0.00  0.00    +0.000 N 
ATOM      8  C   UNL     1      46.592   2.452   6.725  0.00  0.00    +0.000 C 
ATOM      9  O   UNL     1      46.611   2.933   5.599  0.00  0.00    +0.000 OA
ATOM     10  H   UNL     1      47.515   0.681   6.216  0.00  0.00    +0.000 HD
ATOM     11  H   UNL     1      47.093   0.814   7.911  0.00  0.00    +0.000 HD
ENDBRANCH   1   8
BRANCH   4  12
ATOM     12  C   UNL     1      44.361   5.525  11.004  0.00  0.00    +0.000 C 
BRANCH  12  13
ATOM     13  C   UNL     1      45.345   6.198  11.961  0.00  0.00    +0.000 C 
ATOM     14  C   UNL     1      45.068   7.644  12.352  0.00  0.00    +0.000 C 
ATOM     15  C   UNL     1      46.175   7.351  11.392  0.00  0.00    +0.000 C 
BRANCH  13  16
ATOM     16  C   UNL     1      46.104   5.287  12.922  0.00  0.00    +0.000 A 
ATOM     17  C   UNL     1      46.871   5.807  13.978  0.00  0.00    +0.000 A 
ATOM     18  C   UNL     1      47.489   4.955  14.892  0.00  0.00    +0.000 A 
ATOM     19  C   UNL     1      47.336   3.593  14.723  0.00  0.00    +0.000 A 
ATOM     20  F   UNL     1      47.905   2.770  15.615  0.00  0.00    +0.000 F 
ATOM     21  N   UNL     1      46.632   3.036  13.722  0.00  0.00    +0.000 NA
ATOM     22  C   UNL     1      46.040   3.893  12.857  0.00  0.00    +0.000 A 
ENDBRANCH  13  16
ENDBRANCH  12  13
ENDBRANCH   4  12
TORSDOF 4
ENDMDL
MODEL 7
REMARK VINA RESULT:    -5.559      3.175      5.124
REMARK INTER + INTRA:          -7.460
REMARK INTER:                  -7.596
REMARK INTRA:                   0.136
REMARK UNBOUND:                -0.601
REMARK  Name = 
REMARK  4 active torsions:
REMARK  status: ('A' for Active; 'I' for Inactive)
REMARK    1  A    between atoms: C_2  and  C_4
REMARK    2  A    between atoms: C_7  and  C_8
REMARK    3  A    between atoms: C_8  and  C_9
REMARK    4  A    between atoms: C_9  and  C_10
REMARK                            x       y       z     vdW  Elec       q    Type
REMARK                         _______ _______ _______ _____ _____    ______ ____
ROOT
ATOM      1  C   UNL     1      44.732   5.112  10.941  0.00  0.00    +0.000 A 
ATOM      2  C   UNL     1      45.864   5.715  10.425  0.00  0.00    +0.000 A 
ATOM      3  C   UNL     1      46.560   6.608  11.236  0.00  0.00    +0.000 A 
ATOM      4  C   UNL     1      46.080   6.892  12.509  0.00  0.00    +0.000 A 
ATOM      5  N   UNL     1      44.964   6.276  12.972  0.00  0.00    +0.000 NA
ATOM      6  N   UNL     1      44.281   5.377  12.185  0.00  0.00    +0.000 NA
ENDROOT
BRANCH   1   8
ATOM      7  N   UNL     1      43.973   4.290   8.779  0.00  0.00    +0.000 N 
ATOM      8  C   UNL     1      43.975   4.108  10.139  0.00  0.00    +0.000 C 
ATOM      9  O   UNL     1      43.375   3.174  10.657  0.00  0.00    +0.000 OA
ATOM     10  H   UNL     1      43.466   3.638   8.198  0.00  0.00    +0.000 HD
ATOM     11  H   UNL     1      44.470   5.065   8.356  0.00  0.00    +0.000 HD
ENDBRANCH   1   8
BRANCH   4  12
ATOM     12  C   UNL     1      46.806   7.774  13.497  0.00  0.00    +0.000 C 
BRANCH  12  13
ATOM     13  C   UNL     1      48.120   7.217  14.042  0.00  0.00    +0.000 C 
ATOM     14  C   UNL     1      49.256   8.203  14.283  0.00  0.00    +0.000 C 
ATOM     15  C   UNL     1      49.332   7.282  13.109  0.00  0.00    +0.000 C 
BRANCH  13  16
ATOM     16  C   UNL     1      48.035   5.944  14.880  0.00  0.00    +0.000 A 
ATOM     17  C   UNL     1      48.473   5.910  16.215  0.00  0.00    +0.000 A 
ATOM     18  C   UNL     1      48.311   4.761  16.986  0.00  0.00    +0.000 A 
ATOM     19  C   UNL     1      47.719   3.658  16.400  0.00  0.00    +0.000 A 
ATOM     20  F   UNL     1      47.535   2.560  17.145  0.00  0.00    +0.000 F 
ATOM     21  N   UNL     1      47.298   3.624  15.123  0.00  0.00    +0.000 NA
ATOM     22  C   UNL     1      47.465   4.759  14.406  0.00  0.00    +0.000 A 
ENDBRANCH  13  16
ENDBRANCH  12  13
ENDBRANCH   4  12
TORSDOF 4
ENDMDL
