MODEL 1
REMARK VINA RESULT:    -7.904      0.000      0.000
REMARK INTER + INTRA:         -11.758
REMARK INTER:                 -10.907
REMARK INTRA:                  -0.851
REMARK UNBOUND:                -0.851
REMARK  Name = 
REMARK  7 active torsions:
REMARK  status: ('A' for Active; 'I' for Inactive)
REMARK    1  A    between atoms: C_2  and  C_19
REMARK    2  A    between atoms: N_3  and  C_4
REMARK    3  A    between atoms: C_4  and  C_5
REMARK    4  A    between atoms: C_8  and  C_9
REMARK    5  A    between atoms: C_9  and  N_10
REMARK    6  A    between atoms: N_10  and  C_11
REMARK    7  A    between atoms: C_14  and  O_15
REMARK                            x       y       z     vdW  Elec       q    Type
REMARK                         _______ _______ _______ _____ _____    ______ ____
ROOT
ATOM      1  C   UNL     1      46.489   7.522  13.171  0.00  0.00    +0.000 C 
ENDROOT
BRANCH   1   2
ATOM      2  C   UNL     1      45.967   6.347  12.392  0.00  0.00    +0.000 A 
ATOM      3  C   UNL     1      46.015   6.335  11.002  0.00  0.00    +0.000 A 
ATOM      4  N   UNL     1      45.548   5.304  10.257  0.00  0.00    +0.000 NA
ATOM      5  C   UNL     1      45.023   4.262  10.956  0.00  0.00    +0.000 A 
ATOM      6  C   UNL     1      44.941   4.295  12.345  0.00  0.00    +0.000 A 
ATOM      7  N   UNL     1      45.411   5.322  13.088  0.00  0.00    +0.000 NA
BRANCH   5   8
ATOM      8  C   UNL     1      44.455   3.071  10.215  0.00  0.00    +0.000 C 
BRANCH   8   9
ATOM      9  N   UNL     1      45.427   2.158   9.594  0.00  0.00    +0.000 NA
ATOM     10  H   UNL     1      45.282   1.246  10.038  0.00  0.00    +0.000 HD
BRANCH   9  11
ATOM     11  C   UNL     1      45.279   1.967   8.144  0.00  0.00    +0.000 C 
ATOM     12  C   UNL     1      45.316   3.261   7.303  0.00  0.00    +0.000 C 
ATOM     13  C   UNL     1      46.642   3.259   6.544  0.00  0.00    +0.000 C 
ATOM     14  C   UNL     1      47.504   2.249   7.282  0.00  0.00    +0.000 C 
ATOM     15  C   UNL     1      46.499   1.172   7.655  0.00  0.00    +0.000 C 
BRANCH  14  16
ATOM     16  O   UNL     1      48.547   1.752   6.466  0.00  0.00    +0.000 OA
ATOM     17  H   UNL     1      48.934   0.975   6.905  0.00  0.00    +0.000 HD
ENDBRANCH  14  16
ENDBRANCH   9  11
ENDBRANCH   8   9
ENDBRANCH   5   8
ENDBRANCH   1   2
BRANCH   1  20
ATOM     18  O   UNL     1      49.030   6.381  13.314  0.00  0.00    +0.000 OA
ATOM     19  C   UNL     1      48.429   6.596  14.362  0.00  0.00    +0.000 C 
ATOM     20  N   UNL     1      47.160   7.108  14.380  0.00  0.00    +0.000 N 
ATOM     21  H   UNL     1      46.801   7.519  15.237  0.00  0.00    +0.000 HD
BRANCH  19  22
ATOM     22  C   UNL     1      49.015   6.277  15.664  0.00  0.00    +0.000 A 
ATOM     23  C   UNL     1      50.085   7.016  16.149  0.00  0.00    +0.000 A 
ATOM     24  S   UNL     1      50.614   6.511  17.690  0.00  0.00    +0.000 S 
ATOM     25  C   UNL     1      49.413   5.307  17.772  0.00  0.00    +0.000 A 
ATOM     26  N   UNL     1      49.280   4.516  18.870  0.00  0.00    +0.000 NA
ATOM     27  C   UNL     1      48.307   3.669  18.803  0.00  0.00    +0.000 A 
ATOM     28  N   UNL     1      47.467   3.527  17.732  0.00  0.00    +0.000 N 
ATOM     29  C   UNL     1      47.604   4.259  16.577  0.00  0.00    +0.000 A 
ATOM     30  O   UNL     1      46.913   4.028  15.596  0.00  0.00    +0.000 OA
ATOM     31  C   UNL     1      48.646   5.264  16.622  0.00  0.00    +0.000 A 
ATOM     32  H   UNL     1      46.745   2.821  17.723  0.00  0.00    +0.000 HD
ENDBRANCH  19  22
ENDBRANCH   1  20
TORSDOF 7
ENDMDL
MODEL 2
REMARK VINA RESULT:    -7.387      3.300      4.799
REMARK INTER + INTRA:         -11.045
REMARK INTER:                 -10.425
REMARK INTRA:                  -0.620
REMARK UNBOUND:                -0.851
REMARK  Name = 
REMARK  7 active torsions:
REMARK  status: ('A' for Active; 'I' for Inactive)
REMARK    1  A    between atoms: C_2  and  C_19
REMARK    2  A    between atoms: N_3  and  C_4
REMARK    3  A    between atoms: C_4  and  C_5
REMARK    4  A    between atoms: C_8  and  C_9
REMARK    5  A    between atoms: C_9  and  N_10
REMARK    6  A    between atoms: N_10  and  C_11
REMARK    7  A    between atoms: C_14  and  O_15
REMARK                            x       y       z     vdW  Elec       q    Type
REMARK                         _______ _______ _______ _____ _____    ______ ____
ROOT
ATOM      1  C   UNL     1      48.948   5.984  17.443  0.00  0.00    +0.000 C 
ENDROOT
BRANCH   1   2
ATOM      2  C   UNL     1      48.205   5.550  16.210  0.00  0.00    +0.000 A 
ATOM      3  C   UNL     1      47.403   4.414  16.225  0.00  0.00    +0.000 A 
ATOM      4  N   UNL     1      46.722   3.978  15.136  0.00  0.00    +0.000 NA
ATOM      5  C   UNL     1      46.869   4.726  14.010  0.00  0.00    +0.000 A 
ATOM      6  C   UNL     1      47.704   5.840  13.990  0.00  0.00    +0.000 A 
ATOM      7  N   UNL     1      48.379   6.278  15.077  0.00  0.00    +0.000 NA
BRANCH   5   8
ATOM      8  C   UNL     1      46.167   4.310  12.736  0.00  0.00    +0.000 C 
BRANCH   8   9
ATOM      9  N   UNL     1      45.333   3.102  12.809  0.00  0.00    +0.000 NA
ATOM     10  H   UNL     1      45.354   2.802  13.789  0.00  0.00    +0.000 HD
BRANCH   9  11
ATOM     11  C   UNL     1      43.922   3.282  12.438  0.00  0.00    +0.000 C 
ATOM     12  C   UNL     1      43.358   4.699  12.674  0.00  0.00    +0.000 C 
ATOM     13  C   UNL     1      43.159   5.333  11.299  0.00  0.00    +0.000 C 
ATOM     14  C   UNL     1      44.008   4.491  10.363  0.00  0.00    +0.000 C 
ATOM     15  C   UNL     1      43.815   3.089  10.918  0.00  0.00    +0.000 C 
BRANCH  14  16
ATOM     16  O   UNL     1      43.580   4.601   9.019  0.00  0.00    +0.000 OA
ATOM     17  H   UNL     1      43.740   3.750   8.577  0.00  0.00    +0.000 HD
ENDBRANCH  14  16
ENDBRANCH   9  11
ENDBRANCH   8   9
ENDBRANCH   5   8
ENDBRANCH   1   2
BRANCH   1  20
ATOM     18  O   UNL     1      51.578   6.195  16.536  0.00  0.00    +0.000 OA
ATOM     19  C   UNL     1      51.300   5.284  17.310  0.00  0.00    +0.000 C 
ATOM     20  N   UNL     1      50.026   5.080  17.766  0.00  0.00    +0.000 N 
ATOM     21  H   UNL     1      49.878   4.506  18.592  0.00  0.00    +0.000 HD
BRANCH  19  22
ATOM     22  C   UNL     1      52.309   4.327  17.765  0.00  0.00    +0.000 A 
ATOM     23  C   UNL     1      53.512   4.777  18.291  0.00  0.00    +0.000 A 
ATOM     24  S   UNL     1      54.549   3.517  18.787  0.00  0.00    +0.000 S 
ATOM     25  C   UNL     1      53.413   2.330  18.341  0.00  0.00    +0.000 A 
ATOM     26  N   UNL     1      53.660   1.006  18.539  0.00  0.00    +0.000 NA
ATOM     27  C   UNL     1      52.696   0.224  18.181  0.00  0.00    +0.000 A 
ATOM     28  N   UNL     1      51.516   0.641  17.626  0.00  0.00    +0.000 N 
ATOM     29  C   UNL     1      51.250   1.961  17.349  0.00  0.00    +0.000 A 
ATOM     30  O   UNL     1      50.238   2.289  16.747  0.00  0.00    +0.000 OA
ATOM     31  C   UNL     1      52.277   2.886  17.784  0.00  0.00    +0.000 A 
ATOM     32  H   UNL     1      50.813  -0.021  17.333  0.00  0.00    +0.000 HD
ENDBRANCH  19  22
ENDBRANCH   1  20
TORSDOF 7
ENDMDL
MODEL 3
REMARK VINA RESULT:    -7.302      2.097      3.596
REMARK INTER + INTRA:         -10.928
REMARK INTER:                 -10.102
REMARK INTRA:                  -0.826
REMARK UNBOUND:                -0.851
REMARK  Name = 
REMARK  7 active torsions:
REMARK  status: ('A' for Active; 'I' for Inactive)
REMARK    1  A    between atoms: C_2  and  C_19
REMARK    2  A    between atoms: N_3  and  C_4
REMARK    3  A    between atoms: C_4  and  C_5
REMARK    4  A    between atoms: C_8  and  C_9
REMARK    5  A    between atoms: C_9  and  N_10
REMARK    6  A    between atoms: N_10  and  C_11
REMARK    7  A    between atoms: C_14  and  O_15
REMARK                            x       y       z     vdW  Elec       q    Type
REMARK                         _______ _______ _______ _____ _____    ______ ____
ROOT
ATOM      1  C   UNL     1      46.769   4.393  14.363  0.00  0.00    +0.000 C 
ENDROOT
BRANCH   1   2
ATOM      2  C   UNL     1      46.020   4.363  13.061  0.00  0.00    +0.000 A 
ATOM      3  C   UNL     1      46.064   5.445  12.188  0.00  0.00    +0.000 A 
ATOM      4  N   UNL     1      45.397   5.467  11.007  0.00  0.00    +0.000 NA
ATOM      5  C   UNL     1      44.672   4.354  10.719  0.00  0.00    +0.000 A 
ATOM      6  C   UNL     1      44.599   3.290  11.613  0.00  0.00    +0.000 A 
ATOM      7  N   UNL     1      45.268   3.265  12.788  0.00  0.00    +0.000 NA
BRANCH   5   8
ATOM      8  C   UNL     1      43.874   4.290   9.435  0.00  0.00    +0.000 C 
BRANCH   8   9
ATOM      9  N   UNL     1      44.565   3.744   8.257  0.00  0.00    +0.000 NA
ATOM     10  H   UNL     1      44.634   4.516   7.586  0.00  0.00    +0.000 HD
BRANCH   9  11
ATOM     11  C   UNL     1      45.929   3.250   8.495  0.00  0.00    +0.000 C 
ATOM     12  C   UNL     1      46.109   1.724   8.349  0.00  0.00    +0.000 C 
ATOM     13  C   UNL     1      46.913   1.492   7.071  0.00  0.00    +0.000 C 
ATOM     14  C   UNL     1      46.783   2.793   6.297  0.00  0.00    +0.000 C 
ATOM     15  C   UNL     1      46.832   3.837   7.400  0.00  0.00    +0.000 C 
BRANCH  14  16
ATOM     16  O   UNL     1      47.829   2.953   5.358  0.00  0.00    +0.000 OA
ATOM     17  H   UNL     1      47.790   2.214   4.728  0.00  0.00    +0.000 HD
ENDBRANCH  14  16
ENDBRANCH   9  11
ENDBRANCH   8   9
ENDBRANCH   5   8
ENDBRANCH   1   2
BRANCH   1  20
ATOM     18  O   UNL     1      48.732   4.939  16.270  0.00  0.00    +0.000 OA
ATOM     19  C   UNL     1      48.369   5.849  15.530  0.00  0.00    +0.000 C 
ATOM     20  N   UNL     1      47.379   5.680  14.601  0.00  0.00    +0.000 N 
ATOM     21  H   UNL     1      47.290   6.349  13.841  0.00  0.00    +0.000 HD
BRANCH  19  22
ATOM     22  C   UNL     1      48.944   7.192  15.624  0.00  0.00    +0.000 A 
ATOM     23  C   UNL     1      48.918   7.880  16.828  0.00  0.00    +0.000 A 
ATOM     24  S   UNL     1      49.656   9.416  16.747  0.00  0.00    +0.000 S 
ATOM     25  C   UNL     1      50.058   9.200  15.107  0.00  0.00    +0.000 A 
ATOM     26  N   UNL     1      50.751  10.147  14.418  0.00  0.00    +0.000 NA
ATOM     27  C   UNL     1      51.011   9.832  13.193  0.00  0.00    +0.000 A 
ATOM     28  N   UNL     1      50.626   8.667  12.586  0.00  0.00    +0.000 N 
ATOM     29  C   UNL     1      49.870   7.711  13.222  0.00  0.00    +0.000 A 
ATOM     30  O   UNL     1      49.444   6.738  12.620  0.00  0.00    +0.000 OA
ATOM     31  C   UNL     1      49.599   7.990  14.618  0.00  0.00    +0.000 A 
ATOM     32  H   UNL     1      50.828   8.492  11.613  0.00  0.00    +0.000 HD
ENDBRANCH  19  22
ENDBRANCH   1  20
TORSDOF 7
ENDMDL
MODEL 4
REMARK VINA RESULT:    -7.214      4.195      8.878
REMARK INTER + INTRA:         -10.806
REMARK INTER:                  -9.991
REMARK INTRA:                  -0.815
REMARK UNBOUND:                -0.851
REMARK  Name = 
REMARK  7 active torsions:
REMARK  status: ('A' for Active; 'I' for Inactive)
REMARK    1  A    between atoms: C_2  and  C_19
REMARK    2  A    between atoms: N_3  and  C_4
REMARK    3  A    between atoms: C_4  and  C_5
REMARK    4  A    between atoms: C_8  and  C_9
REMARK    5  A    between atoms: C_9  and  N_10
REMARK    6  A    between atoms: N_10  and  C_11
REMARK    7  A    between atoms: C_14  and  O_15
REMARK                            x       y       z     vdW  Elec       q    Type
REMARK                         _______ _______ _______ _____ _____    ______ ____
ROOT
ATOM      1  C   UNL     1      47.158   3.302  16.880  0.00  0.00    +0.000 C 
ENDROOT
BRANCH   1   2
ATOM      2  C   UNL     1      48.619   3.291  17.232  0.00  0.00    +0.000 A 
ATOM      3  C   UNL     1      49.181   4.322  17.977  0.00  0.00    +0.000 A 
ATOM      4  N   UNL     1      50.495   4.361  18.310  0.00  0.00    +0.000 NA
ATOM      5  C   UNL     1      51.245   3.316  17.869  0.00  0.00    +0.000 A 
ATOM      6  C   UNL     1      50.687   2.306  17.090  0.00  0.00    +0.000 A 
ATOM      7  N   UNL     1      49.376   2.266  16.762  0.00  0.00    +0.000 NA
BRANCH   5   8
ATOM      8  C   UNL     1      52.727   3.278  18.170  0.00  0.00    +0.000 C 
BRANCH   8   9
ATOM      9  N   UNL     1      53.213   2.121  18.937  0.00  0.00    +0.000 NA
ATOM     10  H   UNL     1      52.520   1.379  18.800  0.00  0.00    +0.000 HD
BRANCH   9  11
ATOM     11  C   UNL     1      54.516   1.584  18.516  0.00  0.00    +0.000 C 
ATOM     12  C   UNL     1      54.924   0.254  19.185  0.00  0.00    +0.000 C 
ATOM     13  C   UNL     1      54.826  -0.830  18.112  0.00  0.00    +0.000 C 
ATOM     14  C   UNL     1      53.957  -0.217  17.027  0.00  0.00    +0.000 C 
ATOM     15  C   UNL     1      54.412   1.233  17.025  0.00  0.00    +0.000 C 
BRANCH  14  16
ATOM     16  O   UNL     1      54.157  -0.846  15.776  0.00  0.00    +0.000 OA
ATOM     17  H   UNL     1      54.007  -0.187  15.077  0.00  0.00    +0.000 HD
ENDBRANCH  14  16
ENDBRANCH   9  11
ENDBRANCH   8   9
ENDBRANCH   5   8
ENDBRANCH   1   2
BRANCH   1  20
ATOM     18  O   UNL     1      47.280   3.040  14.105  0.00  0.00    +0.000 OA
ATOM     19  C   UNL     1      46.890   4.107  14.573  0.00  0.00    +0.000 C 
ATOM     20  N   UNL     1      46.845   4.335  15.922  0.00  0.00    +0.000 N 
ATOM     21  H   UNL     1      46.280   5.101  16.278  0.00  0.00    +0.000 HD
BRANCH  19  22
ATOM     22  C   UNL     1      46.487   5.221  13.715  0.00  0.00    +0.000 A 
ATOM     23  C   UNL     1      47.360   6.274  13.481  0.00  0.00    +0.000 A 
ATOM     24  S   UNL     1      46.723   7.465  12.439  0.00  0.00    +0.000 S 
ATOM     25  C   UNL     1      45.270   6.599  12.245  0.00  0.00    +0.000 A 
ATOM     26  N   UNL     1      44.281   7.053  11.429  0.00  0.00    +0.000 NA
ATOM     27  C   UNL     1      43.251   6.277  11.355  0.00  0.00    +0.000 A 
ATOM     28  N   UNL     1      43.111   5.098  12.037  0.00  0.00    +0.000 N 
ATOM     29  C   UNL     1      44.055   4.632  12.920  0.00  0.00    +0.000 A 
ATOM     30  O   UNL     1      43.848   3.639  13.600  0.00  0.00    +0.000 OA
ATOM     31  C   UNL     1      45.256   5.439  12.997  0.00  0.00    +0.000 A 
ATOM     32  H   UNL     1      42.265   4.551  11.967  0.00  0.00    +0.000 HD
ENDBRANCH  19  22
ENDBRANCH   1  20
TORSDOF 7
ENDMDL
MODEL 5
REMARK VINA RESULT:    -7.168      2.692      3.191
REMARK INTER + INTRA:         -10.743
REMARK INTER:                  -9.963
REMARK INTRA:                  -0.780
REMARK UNBOUND:                -0.851
REMARK  Name = 
REMARK  7 active torsions:
REMARK  status: ('A' for Active; 'I' for Inactive)
REMARK    1  A    between atoms: C_2  and  C_19
REMARK    2  A    between atoms: N_3  and  C_4
REMARK    3  A    between atoms: C_4  and  C_5
REMARK    4  A    between atoms: C_8  and  C_9
REMARK    5  A    between atoms: C_9  and  N_10
REMARK    6  A    between atoms: N_10  and  C_11
REMARK    7  A    between atoms: C_14  and  O_15
REMARK                            x       y       z     vdW  Elec       q    Type
REMARK                         _______ _______ _______ _____ _____    ______ ____
ROOT
ATOM      1  C   UNL     1      48.576   6.643  14.413  0.00  0.00    +0.000 C 
ENDROOT
BRANCH   1   2
ATOM      2  C   UNL     1      47.528   5.928  13.606  0.00  0.00    +0.000 A 
ATOM      3  C   UNL     1      46.892   6.561  12.544  0.00  0.00    +0.000 A 
ATOM      4  N   UNL     1      45.935   5.961  11.794  0.00  0.00    +0.000 NA
ATOM      5  C   UNL     1      45.628   4.683  12.143  0.00  0.00    +0.000 A 
ATOM      6  C   UNL     1      46.239   4.067  13.232  0.00  0.00    +0.000 A 
ATOM      7  N   UNL     1      47.197   4.664  13.976  0.00  0.00    +0.000 NA
BRANCH   5   8
ATOM      8  C   UNL     1      44.557   3.934  11.381  0.00  0.00    +0.000 C 
BRANCH   8   9
ATOM      9  N   UNL     1      44.994   2.756  10.618  0.00  0.00    +0.000 NA
ATOM     10  H   UNL     1      44.623   1.941  11.117  0.00  0.00    +0.000 HD
BRANCH   9  11
ATOM     11  C   UNL     1      44.505   2.680   9.234  0.00  0.00    +0.000 C 
ATOM     12  C   UNL     1      44.893   3.873   8.334  0.00  0.00    +0.000 C 
ATOM     13  C   UNL     1      45.933   3.359   7.340  0.00  0.00    +0.000 C 
ATOM     14  C   UNL     1      46.445   2.068   7.955  0.00  0.00    +0.000 C 
ATOM     15  C   UNL     1      45.186   1.476   8.567  0.00  0.00    +0.000 C 
BRANCH  14  16
ATOM     16  O   UNL     1      47.024   1.216   6.985  0.00  0.00    +0.000 OA
ATOM     17  H   UNL     1      46.986   1.665   6.124  0.00  0.00    +0.000 HD
ENDBRANCH  14  16
ENDBRANCH   9  11
ENDBRANCH   8   9
ENDBRANCH   5   8
ENDBRANCH   1   2
BRANCH   1  20
ATOM     18  O   UNL     1      49.966   5.521  16.556  0.00  0.00    +0.000 OA
ATOM     19  C   UNL     1      48.970   6.198  16.798  0.00  0.00    +0.000 C 
ATOM     20  N   UNL     1      48.204   6.744  15.804  0.00  0.00    +0.000 N 
ATOM     21  H   UNL     1      47.565   7.502  16.029  0.00  0.00    +0.000 HD
BRANCH  19  22
ATOM     22  C   UNL     1      48.512   6.429  18.168  0.00  0.00    +0.000 A 
ATOM     23  C   UNL     1      48.516   5.392  19.091  0.00  0.00    +0.000 A 
ATOM     24  S   UNL     1      47.971   5.859  20.638  0.00  0.00    +0.000 S 
ATOM     25  C   UNL     1      47.736   7.468  20.133  0.00  0.00    +0.000 A 
ATOM     26  N   UNL     1      47.308   8.426  20.999  0.00  0.00    +0.000 NA
ATOM     27  C   UNL     1      47.206   9.605  20.483  0.00  0.00    +0.000 A 
ATOM     28  N   UNL     1      47.475   9.913  19.177  0.00  0.00    +0.000 N 
ATOM     29  C   UNL     1      47.847   8.968  18.251  0.00  0.00    +0.000 A 
ATOM     30  O   UNL     1      47.965   9.253  17.069  0.00  0.00    +0.000 OA
ATOM     31  C   UNL     1      48.032   7.637  18.792  0.00  0.00    +0.000 A 
ATOM     32  H   UNL     1      47.341  10.848  18.821  0.00  0.00    +0.000 HD
ENDBRANCH  19  22
ENDBRANCH   1  20
TORSDOF 7
ENDMDL
MODEL 6
REMARK VINA RESULT:    -7.162      3.425      8.070
REMARK INTER + INTRA:         -10.734
REMARK INTER:                  -9.748
REMARK INTRA:                  -0.986
REMARK UNBOUND:                -0.851
REMARK  Name = 
REMARK  7 active torsions:
REMARK  status: ('A' for Active; 'I' for Inactive)
REMARK    1  A    between atoms: C_2  and  C_19
REMARK    2  A    between atoms: N_3  and  C_4
REMARK    3  A    between atoms: C_4  and  C_5
REMARK    4  A    between atoms: C_8  and  C_9
REMARK    5  A    between atoms: C_9  and  N_10
REMARK    6  A    between atoms: N_10  and  C_11
REMARK    7  A    between atoms: C_14  and  O_15
REMARK                            x       y       z     vdW  Elec       q    Type
REMARK                         _______ _______ _______ _____ _____    ______ ____
ROOT
ATOM      1  C   UNL     1      48.417   7.901  11.990  0.00  0.00    +0.000 C 
ENDROOT
BRANCH   1   2
ATOM      2  C   UNL     1      48.950   7.573  13.357  0.00  0.00    +0.000 A 
ATOM      3  C   UNL     1      50.230   7.961  13.736  0.00  0.00    +0.000 A 
ATOM      4  N   UNL     1      50.757   7.680  14.953  0.00  0.00    +0.000 NA
ATOM      5  C   UNL     1      49.949   6.986  15.798  0.00  0.00    +0.000 A 
ATOM      6  C   UNL     1      48.683   6.565  15.401  0.00  0.00    +0.000 A 
ATOM      7  N   UNL     1      48.156   6.850  14.189  0.00  0.00    +0.000 NA
BRANCH   5   8
ATOM      8  C   UNL     1      50.453   6.604  17.173  0.00  0.00    +0.000 C 
BRANCH   8   9
ATOM      9  N   UNL     1      50.422   5.174  17.511  0.00  0.00    +0.000 NA
ATOM     10  H   UNL     1      51.381   4.924  17.772  0.00  0.00    +0.000 HD
BRANCH   9  11
ATOM     11  C   UNL     1      49.553   4.808  18.639  0.00  0.00    +0.000 C 
ATOM     12  C   UNL     1      48.454   5.836  18.980  0.00  0.00    +0.000 C 
ATOM     13  C   UNL     1      47.122   5.218  18.558  0.00  0.00    +0.000 C 
ATOM     14  C   UNL     1      47.505   4.102  17.601  0.00  0.00    +0.000 C 
ATOM     15  C   UNL     1      48.772   3.550  18.234  0.00  0.00    +0.000 C 
BRANCH  14  16
ATOM     16  O   UNL     1      46.487   3.125  17.497  0.00  0.00    +0.000 OA
ATOM     17  H   UNL     1      46.864   2.264  17.744  0.00  0.00    +0.000 HD
ENDBRANCH  14  16
ENDBRANCH   9  11
ENDBRANCH   8   9
ENDBRANCH   5   8
ENDBRANCH   1   2
BRANCH   1  20
ATOM     18  O   UNL     1      45.633   7.765  11.871  0.00  0.00    +0.000 OA
ATOM     19  C   UNL     1      46.283   6.846  11.381  0.00  0.00    +0.000 C 
ATOM     20  N   UNL     1      47.650   6.810  11.438  0.00  0.00    +0.000 N 
ATOM     21  H   UNL     1      48.158   6.198  10.806  0.00  0.00    +0.000 HD
BRANCH  19  22
ATOM     22  C   UNL     1      45.633   5.703  10.738  0.00  0.00    +0.000 A 
ATOM     23  C   UNL     1      45.811   5.470   9.382  0.00  0.00    +0.000 A 
ATOM     24  S   UNL     1      44.996   4.081   8.820  0.00  0.00    +0.000 S 
ATOM     25  C   UNL     1      44.402   3.730  10.376  0.00  0.00    +0.000 A 
ATOM     26  N   UNL     1      43.644   2.625  10.610  0.00  0.00    +0.000 NA
ATOM     27  C   UNL     1      43.291   2.471  11.843  0.00  0.00    +0.000 A 
ATOM     28  N   UNL     1      43.609   3.330  12.860  0.00  0.00    +0.000 N 
ATOM     29  C   UNL     1      44.317   4.491  12.660  0.00  0.00    +0.000 A 
ATOM     30  O   UNL     1      44.483   5.294  13.565  0.00  0.00    +0.000 OA
ATOM     31  C   UNL     1      44.786   4.682  11.302  0.00  0.00    +0.000 A 
ATOM     32  H   UNL     1      43.273   3.176  13.800  0.00  0.00    +0.000 HD
ENDBRANCH  19  22
ENDBRANCH   1  20
TORSDOF 7
ENDMDL
MODEL 7
REMARK VINA RESULT:    -6.881      2.659      3.442
REMARK INTER + INTRA:         -10.347
REMARK INTER:                  -8.964
REMARK INTRA:                  -1.383
REMARK UNBOUND:                -0.851
REMARK  Name = 
REMARK  7 active torsions:
REMARK  status: ('A' for Active; 'I' for Inactive)
REMARK    1  A    between atoms: C_2  and  C_19
REMARK    2  A    between atoms: N_3  and  C_4
REMARK    3  A    between atoms: C_4  and  C_5
REMARK    4  A    between atoms: C_8  and  C_9
REMARK    5  A    between atoms: C_9  and  N_10
REMARK    6  A    between atoms: N_10  and  C_11
REMARK    7  A    between atoms: C_14  and  O_15
REMARK                            x       y       z     vdW  Elec       q    Type
REMARK                         _______ _______ _______ _____ _____    ______ ____
ROOT
ATOM      1  C   UNL     1      49.095   8.188  13.772  0.00  0.00    +0.000 C 
ENDROOT
BRANCH   1   2
ATOM      2  C   UNL     1      47.782   7.918  13.092  0.00  0.00    +0.000 A 
ATOM      3  C   UNL     1      47.668   6.918  12.132  0.00  0.00    +0.000 A 
ATOM      4  N   UNL     1      46.508   6.644  11.486  0.00  0.00    +0.000 NA
ATOM      5  C   UNL     1      45.443   7.413  11.836  0.00  0.00    +0.000 A 
ATOM      6  C   UNL     1      45.570   8.438  12.769  0.00  0.00    +0.000 A 
ATOM      7  N   UNL     1      46.726   8.708  13.417  0.00  0.00    +0.000 NA
BRANCH   5   8
ATOM      8  C   UNL     1      44.108   7.200  11.156  0.00  0.00    +0.000 C 
BRANCH   8   9
ATOM      9  N   UNL     1      43.136   6.354  11.864  0.00  0.00    +0.000 NA
ATOM     10  H   UNL     1      42.247   6.862  11.838  0.00  0.00    +0.000 HD
BRANCH   9  11
ATOM     11  C   UNL     1      42.900   5.029  11.272  0.00  0.00    +0.000 C 
ATOM     12  C   UNL     1      43.790   4.684  10.060  0.00  0.00    +0.000 C 
ATOM     13  C   UNL     1      44.779   3.616  10.524  0.00  0.00    +0.000 C 
ATOM     14  C   UNL     1      44.750   3.702  12.040  0.00  0.00    +0.000 C 
ATOM     15  C   UNL     1      43.282   3.977  12.324  0.00  0.00    +0.000 C 
BRANCH  14  16
ATOM     16  O   UNL     1      45.199   2.504  12.644  0.00  0.00    +0.000 OA
ATOM     17  H   UNL     1      45.328   2.671  13.593  0.00  0.00    +0.000 HD
ENDBRANCH  14  16
ENDBRANCH   9  11
ENDBRANCH   8   9
ENDBRANCH   5   8
ENDBRANCH   1   2
BRANCH   1  20
ATOM     18  O   UNL     1      48.368   8.639  16.427  0.00  0.00    +0.000 OA
ATOM     19  C   UNL     1      48.894   7.567  16.141  0.00  0.00    +0.000 C 
ATOM     20  N   UNL     1      49.325   7.284  14.873  0.00  0.00    +0.000 N 
ATOM     21  H   UNL     1      49.501   6.318  14.612  0.00  0.00    +0.000 HD
BRANCH  19  22
ATOM     22  C   UNL     1      49.136   6.536  17.150  0.00  0.00    +0.000 A 
ATOM     23  C   UNL     1      49.932   6.810  18.254  0.00  0.00    +0.000 A 
ATOM     24  S   UNL     1      50.077   5.494  19.329  0.00  0.00    +0.000 S 
ATOM     25  C   UNL     1      49.059   4.523  18.369  0.00  0.00    +0.000 A 
ATOM     26  N   UNL     1      48.729   3.258  18.745  0.00  0.00    +0.000 NA
ATOM     27  C   UNL     1      47.924   2.653  17.935  0.00  0.00    +0.000 A 
ATOM     28  N   UNL     1      47.435   3.189  16.775  0.00  0.00    +0.000 N 
ATOM     29  C   UNL     1      47.791   4.438  16.323  0.00  0.00    +0.000 A 
ATOM     30  O   UNL     1      47.430   4.840  15.227  0.00  0.00    +0.000 OA
ATOM     31  C   UNL     1      48.648   5.181  17.224  0.00  0.00    +0.000 A 
ATOM     32  H   UNL     1      46.837   2.654  16.162  0.00  0.00    +0.000 HD
ENDBRANCH  19  22
ENDBRANCH   1  20
TORSDOF 7
ENDMDL
MODEL 8
REMARK VINA RESULT:    -6.696      4.474      8.718
REMARK INTER + INTRA:         -10.091
REMARK INTER:                  -9.189
REMARK INTRA:                  -0.902
REMARK UNBOUND:                -0.851
REMARK  Name = 
REMARK  7 active torsions:
REMARK  status: ('A' for Active; 'I' for Inactive)
REMARK    1  A    between atoms: C_2  and  C_19
REMARK    2  A    between atoms: N_3  and  C_4
REMARK    3  A    between atoms: C_4  and  C_5
REMARK    4  A    between atoms: C_8  and  C_9
REMARK    5  A    between atoms: C_9  and  N_10
REMARK    6  A    between atoms: N_10  and  C_11
REMARK    7  A    between atoms: C_14  and  O_15
REMARK                            x       y       z     vdW  Elec       q    Type
REMARK                         _______ _______ _______ _____ _____    ______ ____
ROOT
ATOM      1  C   UNL     1      47.264   3.811  16.859  0.00  0.00    +0.000 C 
ENDROOT
BRANCH   1   2
ATOM      2  C   UNL     1      48.696   3.481  17.175  0.00  0.00    +0.000 A 
ATOM      3  C   UNL     1      49.493   4.373  17.886  0.00  0.00    +0.000 A 
ATOM      4  N   UNL     1      50.791   4.124  18.186  0.00  0.00    +0.000 NA
ATOM      5  C   UNL     1      51.280   2.933  17.748  0.00  0.00    +0.000 A 
ATOM      6  C   UNL     1      50.491   2.061  17.003  0.00  0.00    +0.000 A 
ATOM      7  N   UNL     1      49.194   2.307  16.708  0.00  0.00    +0.000 NA
BRANCH   5   8
ATOM      8  C   UNL     1      52.725   2.572  18.014  0.00  0.00    +0.000 C 
BRANCH   8   9
ATOM      9  N   UNL     1      52.985   1.203  18.485  0.00  0.00    +0.000 NA
ATOM     10  H   UNL     1      52.481   0.583  17.843  0.00  0.00    +0.000 HD
BRANCH   9  11
ATOM     11  C   UNL     1      54.395   0.788  18.475  0.00  0.00    +0.000 C 
ATOM     12  C   UNL     1      54.635  -0.722  18.687  0.00  0.00    +0.000 C 
ATOM     13  C   UNL     1      55.102  -1.290  17.347  0.00  0.00    +0.000 C 
ATOM     14  C   UNL     1      54.692  -0.243  16.325  0.00  0.00    +0.000 C 
ATOM     15  C   UNL     1      54.948   1.058  17.068  0.00  0.00    +0.000 C 
BRANCH  14  16
ATOM     16  O   UNL     1      55.452  -0.342  15.136  0.00  0.00    +0.000 OA
ATOM     17  H   UNL     1      56.348  -0.634  15.371  0.00  0.00    +0.000 HD
ENDBRANCH  14  16
ENDBRANCH   9  11
ENDBRANCH   8   9
ENDBRANCH   5   8
ENDBRANCH   1   2
BRANCH   1  20
ATOM     18  O   UNL     1      47.255   3.150  14.149  0.00  0.00    +0.000 OA
ATOM     19  C   UNL     1      47.118   4.329  14.461  0.00  0.00    +0.000 C 
ATOM     20  N   UNL     1      47.159   4.746  15.764  0.00  0.00    +0.000 N 
ATOM     21  H   UNL     1      46.782   5.657  16.007  0.00  0.00    +0.000 HD
BRANCH  19  22
ATOM     22  C   UNL     1      46.945   5.377  13.454  0.00  0.00    +0.000 A 
ATOM     23  C   UNL     1      45.927   5.283  12.516  0.00  0.00    +0.000 A 
ATOM     24  S   UNL     1      45.869   6.607  11.442  0.00  0.00    +0.000 S 
ATOM     25  C   UNL     1      47.186   7.362  12.213  0.00  0.00    +0.000 A 
ATOM     26  N   UNL     1      47.639   8.579  11.806  0.00  0.00    +0.000 NA
ATOM     27  C   UNL     1      48.623   9.042  12.503  0.00  0.00    +0.000 A 
ATOM     28  N   UNL     1      49.208   8.394  13.557  0.00  0.00    +0.000 N 
ATOM     29  C   UNL     1      48.826   7.137  13.962  0.00  0.00    +0.000 A 
ATOM     30  O   UNL     1      49.444   6.537  14.829  0.00  0.00    +0.000 OA
ATOM     31  C   UNL     1      47.688   6.595  13.248  0.00  0.00    +0.000 A 
ATOM     32  H   UNL     1      49.999   8.791  14.042  0.00  0.00    +0.000 HD
ENDBRANCH  19  22
ENDBRANCH   1  20
TORSDOF 7
ENDMDL
MODEL 9
REMARK VINA RESULT:    -6.397      3.892      8.742
REMARK INTER + INTRA:          -9.679
REMARK INTER:                  -8.856
REMARK INTRA:                  -0.822
REMARK UNBOUND:                -0.851
REMARK  Name = 
REMARK  7 active torsions:
REMARK  status: ('A' for Active; 'I' for Inactive)
REMARK    1  A    between atoms: C_2  and  C_19
REMARK    2  A    between atoms: N_3  and  C_4
REMARK    3  A    between atoms: C_4  and  C_5
REMARK    4  A    between atoms: C_8  and  C_9
REMARK    5  A    between atoms: C_9  and  N_10
REMARK    6  A    between atoms: N_10  and  C_11
REMARK    7  A    between atoms: C_14  and  O_15
REMARK                            x       y       z     vdW  Elec       q    Type
REMARK                         _______ _______ _______ _____ _____    ______ ____
ROOT
ATOM      1  C   UNL     1      47.290   3.414  16.526  0.00  0.00    +0.000 C 
ENDROOT
BRANCH   1   2
ATOM      2  C   UNL     1      48.531   3.880  17.235  0.00  0.00    +0.000 A 
ATOM      3  C   UNL     1      48.493   4.972  18.095  0.00  0.00    +0.000 A 
ATOM      4  N   UNL     1      49.587   5.435  18.748  0.00  0.00    +0.000 NA
ATOM      5  C   UNL     1      50.744   4.760  18.512  0.00  0.00    +0.000 A 
ATOM      6  C   UNL     1      50.785   3.692  17.620  0.00  0.00    +0.000 A 
ATOM      7  N   UNL     1      49.693   3.227  16.973  0.00  0.00    +0.000 NA
BRANCH   5   8
ATOM      8  C   UNL     1      52.025   5.213  19.177  0.00  0.00    +0.000 C 
BRANCH   8   9
ATOM      9  N   UNL     1      53.136   5.579  18.285  0.00  0.00    +0.000 NA
ATOM     10  H   UNL     1      53.141   4.878  17.537  0.00  0.00    +0.000 HD
BRANCH   9  11
ATOM     11  C   UNL     1      53.027   6.899  17.646  0.00  0.00    +0.000 C 
ATOM     12  C   UNL     1      54.306   7.760  17.697  0.00  0.00    +0.000 C 
ATOM     13  C   UNL     1      54.868   7.806  16.277  0.00  0.00    +0.000 C 
ATOM     14  C   UNL     1      54.198   6.644  15.564  0.00  0.00    +0.000 C 
ATOM     15  C   UNL     1      52.793   6.669  16.146  0.00  0.00    +0.000 C 
BRANCH  14  16
ATOM     16  O   UNL     1      54.200   6.816  14.160  0.00  0.00    +0.000 OA
ATOM     17  H   UNL     1      53.309   7.087  13.884  0.00  0.00    +0.000 HD
ENDBRANCH  14  16
ENDBRANCH   9  11
ENDBRANCH   8   9
ENDBRANCH   5   8
ENDBRANCH   1   2
BRANCH   1  20
ATOM     18  O   UNL     1      47.176   3.168  13.749  0.00  0.00    +0.000 OA
ATOM     19  C   UNL     1      46.728   4.189  14.263  0.00  0.00    +0.000 C 
ATOM     20  N   UNL     1      46.788   4.411  15.612  0.00  0.00    +0.000 N 
ATOM     21  H   UNL     1      46.185   5.116  16.027  0.00  0.00    +0.000 HD
BRANCH  19  22
ATOM     22  C   UNL     1      46.138   5.259  13.458  0.00  0.00    +0.000 A 
ATOM     23  C   UNL     1      46.863   6.410  13.185  0.00  0.00    +0.000 A 
ATOM     24  S   UNL     1      46.019   7.531  12.215  0.00  0.00    +0.000 S 
ATOM     25  C   UNL     1      44.666   6.502  12.105  0.00  0.00    +0.000 A 
ATOM     26  N   UNL     1      43.575   6.847  11.369  0.00  0.00    +0.000 NA
ATOM     27  C   UNL     1      42.640   5.956  11.352  0.00  0.00    +0.000 A 
ATOM     28  N   UNL     1      42.687   4.761  12.018  0.00  0.00    +0.000 N 
ATOM     29  C   UNL     1      43.739   4.398  12.824  0.00  0.00    +0.000 A 
ATOM     30  O   UNL     1      43.699   3.379  13.496  0.00  0.00    +0.000 OA
ATOM     31  C   UNL     1      44.841   5.339  12.832  0.00  0.00    +0.000 A 
ATOM     32  H   UNL     1      41.908   4.118  11.996  0.00  0.00    +0.000 HD
ENDBRANCH  19  22
ENDBRANCH   1  20
TORSDOF 7
ENDMDL
