MODEL 1
REMARK VINA RESULT:    -8.393      0.000      0.000
REMARK INTER + INTRA:         -13.747
REMARK INTER:                 -12.319
REMARK INTRA:                  -1.429
REMARK UNBOUND:                -1.429
REMARK  Name = 
REMARK  9 active torsions:
REMARK  status: ('A' for Active; 'I' for Inactive)
REMARK    1  A    between atoms: C_1  and  O_2
REMARK    2  A    between atoms: O_2  and  C_3
REMARK    3  A    between atoms: C_10  and  C_11
REMARK    4  A    between atoms: N_13  and  C_14
REMARK    5  A    between atoms: C_14  and  C_15
REMARK    6  A    between atoms: C_18  and  C_19
REMARK    7  A    between atoms: C_19  and  O_20
REMARK    8  A    between atoms: O_20  and  C_21
REMARK    9  A    between atoms: C_21  and  C_22
REMARK                            x       y       z     vdW  Elec       q    Type
REMARK                         _______ _______ _______ _____ _____    ______ ____
ROOT
ATOM      1  C   UNL     1      47.621   7.064  13.136  0.00  0.00    +0.000 C 
ENDROOT
BRANCH   1   2
ATOM      2  C   UNL     1      46.641   6.031  12.634  0.00  0.00    +0.000 A 
ATOM      3  C   UNL     1      46.536   4.778  13.252  0.00  0.00    +0.000 A 
ATOM      4  C   UNL     1      45.616   3.828  12.791  0.00  0.00    +0.000 A 
ATOM      5  C   UNL     1      44.789   4.106  11.692  0.00  0.00    +0.000 A 
ATOM      6  C   UNL     1      44.916   5.350  11.059  0.00  0.00    +0.000 A 
ATOM      7  C   UNL     1      45.836   6.298  11.519  0.00  0.00    +0.000 A 
BRANCH   5   8
ATOM      8  C   UNL     1      43.793   3.086  11.195  0.00  0.00    +0.000 C 
BRANCH   8   9
ATOM      9  O   UNL     1      43.861   3.020   9.772  0.00  0.00    +0.000 OA
BRANCH   9  10
ATOM     10  C   UNL     1      44.548   1.848   9.326  0.00  0.00    +0.000 C 
BRANCH  10  11
ATOM     11  C   UNL     1      45.641   2.222   8.360  0.00  0.00    +0.000 A 
ATOM     12  C   UNL     1      45.901   3.558   8.019  0.00  0.00    +0.000 A 
ATOM     13  C   UNL     1      46.948   3.881   7.150  0.00  0.00    +0.000 A 
ATOM     14  C   UNL     1      47.756   2.875   6.622  0.00  0.00    +0.000 A 
ATOM     15  C   UNL     1      47.517   1.545   6.962  0.00  0.00    +0.000 A 
ATOM     16  C   UNL     1      46.470   1.232   7.826  0.00  0.00    +0.000 A 
ATOM     17  F   UNL     1      46.265  -0.055   8.148  0.00  0.00    +0.000 F 
ENDBRANCH  10  11
ENDBRANCH   9  10
ENDBRANCH   8   9
ENDBRANCH   5   8
ENDBRANCH   1   2
BRANCH   1  20
ATOM     18  C   UNL     1      48.797   6.936  15.298  0.00  0.00    +0.000 C 
ATOM     19  O   UNL     1      49.876   6.736  14.746  0.00  0.00    +0.000 OA
ATOM     20  N   UNL     1      47.646   7.102  14.576  0.00  0.00    +0.000 N 
ATOM     21  H   UNL     1      46.758   7.159  15.053  0.00  0.00    +0.000 HD
BRANCH  18  29
ATOM     22  C   UNL     1      48.819   4.584  17.814  0.00  0.00    +0.000 A 
ATOM     23  N   UNL     1      48.737   3.886  18.963  0.00  0.00    +0.000 NA
ATOM     24  C   UNL     1      48.524   4.562  20.095  0.00  0.00    +0.000 A 
ATOM     25  N   UNL     1      48.390   5.878  20.228  0.00  0.00    +0.000 NA
ATOM     26  C   UNL     1      48.479   6.536  19.060  0.00  0.00    +0.000 A 
ATOM     27  S   UNL     1      48.343   8.228  19.040  0.00  0.00    +0.000 S 
ATOM     28  C   UNL     1      48.526   8.273  17.351  0.00  0.00    +0.000 A 
ATOM     29  C   UNL     1      48.687   7.022  16.768  0.00  0.00    +0.000 A 
ATOM     30  C   UNL     1      48.684   5.984  17.797  0.00  0.00    +0.000 A 
BRANCH  22  32
ATOM     31  C   UNL     1      48.069   3.037  16.227  0.00  0.00    +0.000 C 
ATOM     32  O   UNL     1      49.125   3.891  16.661  0.00  0.00    +0.000 OA
ENDBRANCH  22  32
ENDBRANCH  18  29
ENDBRANCH   1  20
TORSDOF 8
ENDMDL
MODEL 2
REMARK VINA RESULT:    -7.833      1.865      3.032
REMARK INTER + INTRA:         -12.925
REMARK INTER:                 -11.530
REMARK INTRA:                  -1.395
REMARK UNBOUND:                -1.429
REMARK  Name = 
REMARK  9 active torsions:
REMARK  status: ('A' for Active; 'I' for Inactive)
REMARK    1  A    between atoms: C_1  and  O_2
REMARK    2  A    between atoms: O_2  and  C_3
REMARK    3  A    between atoms: C_10  and  C_11
REMARK    4  A    between atoms: N_13  and  C_14
REMARK    5  A    between atoms: C_14  and  C_15
REMARK    6  A    between atoms: C_18  and  C_19
REMARK    7  A    between atoms: C_19  and  O_20
REMARK    8  A    between atoms: O_20  and  C_21
REMARK    9  A    between atoms: C_21  and  C_22
REMARK                            x       y       z     vdW  Elec       q    Type
REMARK                         _______ _______ _______ _____ _____    ______ ____
ROOT
ATOM      1  C   UNL     1      48.558   6.730  14.244  0.00  0.00    +0.000 C 
ENDROOT
BRANCH   1   2
ATOM      2  C   UNL     1      47.474   6.066  13.431  0.00  0.00    +0.000 A 
ATOM      3  C   UNL     1      46.913   6.707  12.317  0.00  0.00    +0.000 A 
ATOM      4  C   UNL     1      45.918   6.079  11.558  0.00  0.00    +0.000 A 
ATOM      5  C   UNL     1      45.452   4.802  11.902  0.00  0.00    +0.000 A 
ATOM      6  C   UNL     1      45.995   4.175  13.032  0.00  0.00    +0.000 A 
ATOM      7  C   UNL     1      46.989   4.802  13.791  0.00  0.00    +0.000 A 
BRANCH   5   8
ATOM      8  C   UNL     1      44.382   4.121  11.084  0.00  0.00    +0.000 C 
BRANCH   8   9
ATOM      9  O   UNL     1      44.841   2.829  10.692  0.00  0.00    +0.000 OA
BRANCH   9  10
ATOM     10  C   UNL     1      44.397   2.481   9.379  0.00  0.00    +0.000 C 
BRANCH  10  11
ATOM     11  C   UNL     1      45.567   2.428   8.432  0.00  0.00    +0.000 A 
ATOM     12  C   UNL     1      46.207   1.221   8.113  0.00  0.00    +0.000 A 
ATOM     13  C   UNL     1      47.265   1.194   7.200  0.00  0.00    +0.000 A 
ATOM     14  C   UNL     1      47.689   2.370   6.583  0.00  0.00    +0.000 A 
ATOM     15  C   UNL     1      47.054   3.575   6.881  0.00  0.00    +0.000 A 
ATOM     16  C   UNL     1      46.002   3.593   7.794  0.00  0.00    +0.000 A 
ATOM     17  F   UNL     1      45.399   4.763   8.057  0.00  0.00    +0.000 F 
ENDBRANCH  10  11
ENDBRANCH   9  10
ENDBRANCH   8   9
ENDBRANCH   5   8
ENDBRANCH   1   2
BRANCH   1  20
ATOM     18  C   UNL     1      49.073   6.244  16.605  0.00  0.00    +0.000 C 
ATOM     19  O   UNL     1      50.163   5.761  16.311  0.00  0.00    +0.000 OA
ATOM     20  N   UNL     1      48.228   6.736  15.647  0.00  0.00    +0.000 N 
ATOM     21  H   UNL     1      47.297   7.030  15.901  0.00  0.00    +0.000 HD
BRANCH  18  29
ATOM     22  C   UNL     1      47.784   8.801  18.519  0.00  0.00    +0.000 A 
ATOM     23  N   UNL     1      47.330   9.617  19.489  0.00  0.00    +0.000 NA
ATOM     24  C   UNL     1      47.179   9.113  20.717  0.00  0.00    +0.000 A 
ATOM     25  N   UNL     1      47.423   7.864  21.104  0.00  0.00    +0.000 NA
ATOM     26  C   UNL     1      47.873   7.083  20.108  0.00  0.00    +0.000 A 
ATOM     27  S   UNL     1      48.225   5.452  20.417  0.00  0.00    +0.000 S 
ATOM     28  C   UNL     1      48.710   5.199  18.808  0.00  0.00    +0.000 A 
ATOM     29  C   UNL     1      48.622   6.333  18.008  0.00  0.00    +0.000 A 
ATOM     30  C   UNL     1      48.096   7.454  18.784  0.00  0.00    +0.000 A 
BRANCH  22  32
ATOM     31  C   UNL     1      48.941  10.207  17.051  0.00  0.00    +0.000 C 
ATOM     32  O   UNL     1      47.855   9.303  17.237  0.00  0.00    +0.000 OA
ENDBRANCH  22  32
ENDBRANCH  18  29
ENDBRANCH   1  20
TORSDOF 8
ENDMDL
MODEL 3
REMARK VINA RESULT:    -7.556      1.613      2.412
REMARK INTER + INTRA:         -12.518
REMARK INTER:                 -11.332
REMARK INTRA:                  -1.186
REMARK UNBOUND:                -1.429
REMARK  Name = 
REMARK  9 active torsions:
REMARK  status: ('A' for Active; 'I' for Inactive)
REMARK    1  A    between atoms: C_1  and  O_2
REMARK    2  A    between atoms: O_2  and  C_3
REMARK    3  A    between atoms: C_10  and  C_11
REMARK    4  A    between atoms: N_13  and  C_14
REMARK    5  A    between atoms: C_14  and  C_15
REMARK    6  A    between atoms: C_18  and  C_19
REMARK    7  A    between atoms: C_19  and  O_20
REMARK    8  A    between atoms: O_20  and  C_21
REMARK    9  A    between atoms: C_21  and  C_22
REMARK                            x       y       z     vdW  Elec       q    Type
REMARK                         _______ _______ _______ _____ _____    ______ ____
ROOT
ATOM      1  C   UNL     1      47.522   4.177  15.256  0.00  0.00    +0.000 C 
ENDROOT
BRANCH   1   2
ATOM      2  C   UNL     1      46.691   4.347  14.007  0.00  0.00    +0.000 A 
ATOM      3  C   UNL     1      46.234   3.234  13.288  0.00  0.00    +0.000 A 
ATOM      4  C   UNL     1      45.452   3.398  12.138  0.00  0.00    +0.000 A 
ATOM      5  C   UNL     1      45.119   4.679  11.675  0.00  0.00    +0.000 A 
ATOM      6  C   UNL     1      45.600   5.791  12.380  0.00  0.00    +0.000 A 
ATOM      7  C   UNL     1      46.383   5.626  13.528  0.00  0.00    +0.000 A 
BRANCH   5   8
ATOM      8  C   UNL     1      44.272   4.860  10.438  0.00  0.00    +0.000 C 
BRANCH   8   9
ATOM      9  O   UNL     1      45.115   4.853   9.288  0.00  0.00    +0.000 OA
BRANCH   9  10
ATOM     10  C   UNL     1      44.579   4.042   8.240  0.00  0.00    +0.000 C 
BRANCH  10  11
ATOM     11  C   UNL     1      45.632   3.097   7.723  0.00  0.00    +0.000 A 
ATOM     12  C   UNL     1      46.570   3.492   6.758  0.00  0.00    +0.000 A 
ATOM     13  C   UNL     1      47.562   2.607   6.324  0.00  0.00    +0.000 A 
ATOM     14  C   UNL     1      47.639   1.322   6.860  0.00  0.00    +0.000 A 
ATOM     15  C   UNL     1      46.722   0.921   7.830  0.00  0.00    +0.000 A 
ATOM     16  C   UNL     1      45.734   1.808   8.254  0.00  0.00    +0.000 A 
ATOM     17  F   UNL     1      44.869   1.404   9.196  0.00  0.00    +0.000 F 
ENDBRANCH  10  11
ENDBRANCH   9  10
ENDBRANCH   8   9
ENDBRANCH   5   8
ENDBRANCH   1   2
BRANCH   1  20
ATOM     18  C   UNL     1      48.715   5.812  16.663  0.00  0.00    +0.000 C 
ATOM     19  O   UNL     1      49.745   5.143  16.638  0.00  0.00    +0.000 OA
ATOM     20  N   UNL     1      47.582   5.401  16.013  0.00  0.00    +0.000 N 
ATOM     21  H   UNL     1      46.720   5.911  16.136  0.00  0.00    +0.000 HD
BRANCH  18  29
ATOM     22  C   UNL     1      47.826   6.683  19.874  0.00  0.00    +0.000 A 
ATOM     23  N   UNL     1      47.481   7.296  21.023  0.00  0.00    +0.000 NA
ATOM     24  C   UNL     1      47.548   8.629  21.070  0.00  0.00    +0.000 A 
ATOM     25  N   UNL     1      47.935   9.445  20.094  0.00  0.00    +0.000 NA
ATOM     26  C   UNL     1      48.271   8.795  18.967  0.00  0.00    +0.000 A 
ATOM     27  S   UNL     1      48.801   9.679  17.618  0.00  0.00    +0.000 S 
ATOM     28  C   UNL     1      48.985   8.261  16.699  0.00  0.00    +0.000 A 
ATOM     29  C   UNL     1      48.648   7.098  17.383  0.00  0.00    +0.000 A 
ATOM     30  C   UNL     1      48.245   7.419  18.750  0.00  0.00    +0.000 A 
BRANCH  22  32
ATOM     31  C   UNL     1      49.087   4.754  20.274  0.00  0.00    +0.000 C 
ATOM     32  O   UNL     1      47.839   5.304  19.859  0.00  0.00    +0.000 OA
ENDBRANCH  22  32
ENDBRANCH  18  29
ENDBRANCH   1  20
TORSDOF 8
ENDMDL
MODEL 4
REMARK VINA RESULT:    -7.543      1.648      3.078
REMARK INTER + INTRA:         -12.499
REMARK INTER:                 -11.091
REMARK INTRA:                  -1.408
REMARK UNBOUND:                -1.429
REMARK  Name = 
REMARK  9 active torsions:
REMARK  status: ('A' for Active; 'I' for Inactive)
REMARK    1  A    between atoms: C_1  and  O_2
REMARK    2  A    between atoms: O_2  and  C_3
REMARK    3  A    between atoms: C_10  and  C_11
REMARK    4  A    between atoms: N_13  and  C_14
REMARK    5  A    between atoms: C_14  and  C_15
REMARK    6  A    between atoms: C_18  and  C_19
REMARK    7  A    between atoms: C_19  and  O_20
REMARK    8  A    between atoms: O_20  and  C_21
REMARK    9  A    between atoms: C_21  and  C_22
REMARK                            x       y       z     vdW  Elec       q    Type
REMARK                         _______ _______ _______ _____ _____    ______ ____
ROOT
ATOM      1  C   UNL     1      47.426   3.963  15.403  0.00  0.00    +0.000 C 
ENDROOT
BRANCH   1   2
ATOM      2  C   UNL     1      46.661   4.268  14.138  0.00  0.00    +0.000 A 
ATOM      3  C   UNL     1      46.262   3.241  13.272  0.00  0.00    +0.000 A 
ATOM      4  C   UNL     1      45.540   3.528  12.107  0.00  0.00    +0.000 A 
ATOM      5  C   UNL     1      45.211   4.851  11.776  0.00  0.00    +0.000 A 
ATOM      6  C   UNL     1      45.634   5.878  12.630  0.00  0.00    +0.000 A 
ATOM      7  C   UNL     1      46.357   5.591  13.793  0.00  0.00    +0.000 A 
BRANCH   5   8
ATOM      8  C   UNL     1      44.429   5.165  10.523  0.00  0.00    +0.000 C 
BRANCH   8   9
ATOM      9  O   UNL     1      45.261   4.949   9.386  0.00  0.00    +0.000 OA
BRANCH   9  10
ATOM     10  C   UNL     1      44.639   4.093   8.425  0.00  0.00    +0.000 C 
BRANCH  10  11
ATOM     11  C   UNL     1      45.652   3.141   7.844  0.00  0.00    +0.000 A 
ATOM     12  C   UNL     1      46.571   3.547   6.864  0.00  0.00    +0.000 A 
ATOM     13  C   UNL     1      47.527   2.654   6.371  0.00  0.00    +0.000 A 
ATOM     14  C   UNL     1      47.586   1.350   6.859  0.00  0.00    +0.000 A 
ATOM     15  C   UNL     1      46.689   0.937   7.842  0.00  0.00    +0.000 A 
ATOM     16  C   UNL     1      45.737   1.832   8.327  0.00  0.00    +0.000 A 
ATOM     17  F   UNL     1      44.890   1.416   9.280  0.00  0.00    +0.000 F 
ENDBRANCH  10  11
ENDBRANCH   9  10
ENDBRANCH   8   9
ENDBRANCH   5   8
ENDBRANCH   1   2
BRANCH   1  20
ATOM     18  C   UNL     1      48.736   5.418  16.900  0.00  0.00    +0.000 C 
ATOM     19  O   UNL     1      49.701   4.659  16.862  0.00  0.00    +0.000 OA
ATOM     20  N   UNL     1      47.583   5.143  16.215  0.00  0.00    +0.000 N 
ATOM     21  H   UNL     1      46.770   5.726  16.346  0.00  0.00    +0.000 HD
BRANCH  18  29
ATOM     22  C   UNL     1      48.678   8.746  16.016  0.00  0.00    +0.000 A 
ATOM     23  N   UNL     1      48.731  10.090  15.949  0.00  0.00    +0.000 NA
ATOM     24  C   UNL     1      48.868  10.773  17.089  0.00  0.00    +0.000 A 
ATOM     25  N   UNL     1      48.950  10.269  18.317  0.00  0.00    +0.000 NA
ATOM     26  C   UNL     1      48.892   8.927  18.340  0.00  0.00    +0.000 A 
ATOM     27  S   UNL     1      48.970   8.112  19.827  0.00  0.00    +0.000 S 
ATOM     28  C   UNL     1      48.865   6.599  19.060  0.00  0.00    +0.000 A 
ATOM     29  C   UNL     1      48.774   6.674  17.675  0.00  0.00    +0.000 A 
ATOM     30  C   UNL     1      48.765   8.072  17.248  0.00  0.00    +0.000 A 
BRANCH  22  32
ATOM     31  C   UNL     1      49.652   7.685  14.173  0.00  0.00    +0.000 C 
ATOM     32  O   UNL     1      48.450   8.052  14.846  0.00  0.00    +0.000 OA
ENDBRANCH  22  32
ENDBRANCH  18  29
ENDBRANCH   1  20
TORSDOF 8
ENDMDL
MODEL 5
REMARK VINA RESULT:    -7.490      1.964      2.707
REMARK INTER + INTRA:         -12.422
REMARK INTER:                 -11.142
REMARK INTRA:                  -1.279
REMARK UNBOUND:                -1.429
REMARK  Name = 
REMARK  9 active torsions:
REMARK  status: ('A' for Active; 'I' for Inactive)
REMARK    1  A    between atoms: C_1  and  O_2
REMARK    2  A    between atoms: O_2  and  C_3
REMARK    3  A    between atoms: C_10  and  C_11
REMARK    4  A    between atoms: N_13  and  C_14
REMARK    5  A    between atoms: C_14  and  C_15
REMARK    6  A    between atoms: C_18  and  C_19
REMARK    7  A    between atoms: C_19  and  O_20
REMARK    8  A    between atoms: O_20  and  C_21
REMARK    9  A    between atoms: C_21  and  C_22
REMARK                            x       y       z     vdW  Elec       q    Type
REMARK                         _______ _______ _______ _____ _____    ______ ____
ROOT
ATOM      1  C   UNL     1      47.275   4.017  15.502  0.00  0.00    +0.000 C 
ENDROOT
BRANCH   1   2
ATOM      2  C   UNL     1      46.756   4.534  14.182  0.00  0.00    +0.000 A 
ATOM      3  C   UNL     1      47.236   5.734  13.639  0.00  0.00    +0.000 A 
ATOM      4  C   UNL     1      46.761   6.202  12.408  0.00  0.00    +0.000 A 
ATOM      5  C   UNL     1      45.786   5.487  11.697  0.00  0.00    +0.000 A 
ATOM      6  C   UNL     1      45.288   4.302  12.254  0.00  0.00    +0.000 A 
ATOM      7  C   UNL     1      45.762   3.835  13.485  0.00  0.00    +0.000 A 
BRANCH   5   8
ATOM      8  C   UNL     1      45.275   5.986  10.367  0.00  0.00    +0.000 C 
BRANCH   8   9
ATOM      9  O   UNL     1      45.936   5.285   9.317  0.00  0.00    +0.000 OA
BRANCH   9  10
ATOM     10  C   UNL     1      45.048   4.408   8.619  0.00  0.00    +0.000 C 
BRANCH  10  11
ATOM     11  C   UNL     1      45.827   3.312   7.940  0.00  0.00    +0.000 A 
ATOM     12  C   UNL     1      46.648   3.567   6.831  0.00  0.00    +0.000 A 
ATOM     13  C   UNL     1      47.391   2.539   6.244  0.00  0.00    +0.000 A 
ATOM     14  C   UNL     1      47.335   1.247   6.764  0.00  0.00    +0.000 A 
ATOM     15  C   UNL     1      46.533   0.982   7.874  0.00  0.00    +0.000 A 
ATOM     16  C   UNL     1      45.793   2.012   8.452  0.00  0.00    +0.000 A 
ATOM     17  F   UNL     1      45.037   1.736   9.525  0.00  0.00    +0.000 F 
ENDBRANCH  10  11
ENDBRANCH   9  10
ENDBRANCH   8   9
ENDBRANCH   5   8
ENDBRANCH   1   2
BRANCH   1  20
ATOM     18  C   UNL     1      47.646   5.367  17.530  0.00  0.00    +0.000 C 
ATOM     19  O   UNL     1      46.752   4.780  18.134  0.00  0.00    +0.000 OA
ATOM     20  N   UNL     1      47.958   5.052  16.235  0.00  0.00    +0.000 N 
ATOM     21  H   UNL     1      48.622   5.617  15.726  0.00  0.00    +0.000 HD
BRANCH  18  29
ATOM     22  C   UNL     1      51.029   5.923  17.861  0.00  0.00    +0.000 A 
ATOM     23  N   UNL     1      52.267   6.343  18.184  0.00  0.00    +0.000 NA
ATOM     24  C   UNL     1      52.384   7.440  18.937  0.00  0.00    +0.000 A 
ATOM     25  N   UNL     1      51.396   8.193  19.411  0.00  0.00    +0.000 NA
ATOM     26  C   UNL     1      50.178   7.742  19.066  0.00  0.00    +0.000 A 
ATOM     27  S   UNL     1      48.797   8.587  19.574  0.00  0.00    +0.000 S 
ATOM     28  C   UNL     1      47.770   7.465  18.818  0.00  0.00    +0.000 A 
ATOM     29  C   UNL     1      48.441   6.432  18.173  0.00  0.00    +0.000 A 
ATOM     30  C   UNL     1      49.885   6.614  18.302  0.00  0.00    +0.000 A 
BRANCH  22  32
ATOM     31  C   UNL     1      51.273   3.608  17.632  0.00  0.00    +0.000 C 
ATOM     32  O   UNL     1      50.916   4.842  17.013  0.00  0.00    +0.000 OA
ENDBRANCH  22  32
ENDBRANCH  18  29
ENDBRANCH   1  20
TORSDOF 8
ENDMDL
MODEL 6
REMARK VINA RESULT:    -7.424      1.958      2.295
REMARK INTER + INTRA:         -12.324
REMARK INTER:                 -11.508
REMARK INTRA:                  -0.816
REMARK UNBOUND:                -1.429
REMARK  Name = 
REMARK  9 active torsions:
REMARK  status: ('A' for Active; 'I' for Inactive)
REMARK    1  A    between atoms: C_1  and  O_2
REMARK    2  A    between atoms: O_2  and  C_3
REMARK    3  A    between atoms: C_10  and  C_11
REMARK    4  A    between atoms: N_13  and  C_14
REMARK    5  A    between atoms: C_14  and  C_15
REMARK    6  A    between atoms: C_18  and  C_19
REMARK    7  A    between atoms: C_19  and  O_20
REMARK    8  A    between atoms: O_20  and  C_21
REMARK    9  A    between atoms: C_21  and  C_22
REMARK                            x       y       z     vdW  Elec       q    Type
REMARK                         _______ _______ _______ _____ _____    ______ ____
ROOT
ATOM      1  C   UNL     1      46.772   7.814  13.279  0.00  0.00    +0.000 C 
ENDROOT
BRANCH   1   2
ATOM      2  C   UNL     1      45.957   6.664  12.740  0.00  0.00    +0.000 A 
ATOM      3  C   UNL     1      46.234   5.344  13.119  0.00  0.00    +0.000 A 
ATOM      4  C   UNL     1      45.465   4.282  12.626  0.00  0.00    +0.000 A 
ATOM      5  C   UNL     1      44.410   4.516  11.733  0.00  0.00    +0.000 A 
ATOM      6  C   UNL     1      44.152   5.834  11.334  0.00  0.00    +0.000 A 
ATOM      7  C   UNL     1      44.921   6.894  11.826  0.00  0.00    +0.000 A 
BRANCH   5   8
ATOM      8  C   UNL     1      43.576   3.374  11.203  0.00  0.00    +0.000 C 
BRANCH   8   9
ATOM      9  O   UNL     1      43.876   3.176   9.823  0.00  0.00    +0.000 OA
BRANCH   9  10
ATOM     10  C   UNL     1      44.659   1.999   9.612  0.00  0.00    +0.000 C 
BRANCH  10  11
ATOM     11  C   UNL     1      45.635   2.220   8.486  0.00  0.00    +0.000 A 
ATOM     12  C   UNL     1      46.417   1.176   7.969  0.00  0.00    +0.000 A 
ATOM     13  C   UNL     1      47.286   1.399   6.898  0.00  0.00    +0.000 A 
ATOM     14  C   UNL     1      47.376   2.664   6.320  0.00  0.00    +0.000 A 
ATOM     15  C   UNL     1      46.597   3.708   6.814  0.00  0.00    +0.000 A 
ATOM     16  C   UNL     1      45.734   3.478   7.885  0.00  0.00    +0.000 A 
ATOM     17  F   UNL     1      44.986   4.495   8.337  0.00  0.00    +0.000 F 
ENDBRANCH  10  11
ENDBRANCH   9  10
ENDBRANCH   8   9
ENDBRANCH   5   8
ENDBRANCH   1   2
BRANCH   1  20
ATOM     18  C   UNL     1      48.654   8.092  14.847  0.00  0.00    +0.000 C 
ATOM     19  O   UNL     1      48.275   9.216  15.167  0.00  0.00    +0.000 OA
ATOM     20  N   UNL     1      47.972   7.345  13.925  0.00  0.00    +0.000 N 
ATOM     21  H   UNL     1      48.360   6.472  13.600  0.00  0.00    +0.000 HD
BRANCH  18  29
ATOM     22  C   UNL     1      49.198   5.194  16.626  0.00  0.00    +0.000 A 
ATOM     23  N   UNL     1      49.670   4.182  17.378  0.00  0.00    +0.000 NA
ATOM     24  C   UNL     1      50.959   4.205  17.727  0.00  0.00    +0.000 A 
ATOM     25  N   UNL     1      51.859   5.129  17.403  0.00  0.00    +0.000 NA
ATOM     26  C   UNL     1      51.348   6.120  16.653  0.00  0.00    +0.000 A 
ATOM     27  S   UNL     1      52.357   7.383  16.135  0.00  0.00    +0.000 S 
ATOM     28  C   UNL     1      51.068   8.154  15.340  0.00  0.00    +0.000 A 
ATOM     29  C   UNL     1      49.855   7.484  15.451  0.00  0.00    +0.000 A 
ATOM     30  C   UNL     1      50.032   6.251  16.217  0.00  0.00    +0.000 A 
BRANCH  22  32
ATOM     31  C   UNL     1      47.185   4.009  16.744  0.00  0.00    +0.000 C 
ATOM     32  O   UNL     1      47.889   5.121  16.197  0.00  0.00    +0.000 OA
ENDBRANCH  22  32
ENDBRANCH  18  29
ENDBRANCH   1  20
TORSDOF 8
ENDMDL
MODEL 7
REMARK VINA RESULT:    -7.178      1.928      3.296
REMARK INTER + INTRA:         -11.964
REMARK INTER:                 -10.659
REMARK INTRA:                  -1.305
REMARK UNBOUND:                -1.429
REMARK  Name = 
REMARK  9 active torsions:
REMARK  status: ('A' for Active; 'I' for Inactive)
REMARK    1  A    between atoms: C_1  and  O_2
REMARK    2  A    between atoms: O_2  and  C_3
REMARK    3  A    between atoms: C_10  and  C_11
REMARK    4  A    between atoms: N_13  and  C_14
REMARK    5  A    between atoms: C_14  and  C_15
REMARK    6  A    between atoms: C_18  and  C_19
REMARK    7  A    between atoms: C_19  and  O_20
REMARK    8  A    between atoms: O_20  and  C_21
REMARK    9  A    between atoms: C_21  and  C_22
REMARK                            x       y       z     vdW  Elec       q    Type
REMARK                         _______ _______ _______ _____ _____    ______ ____
ROOT
ATOM      1  C   UNL     1      47.236   4.342  15.591  0.00  0.00    +0.000 C 
ENDROOT
BRANCH   1   2
ATOM      2  C   UNL     1      46.688   4.554  14.200  0.00  0.00    +0.000 A 
ATOM      3  C   UNL     1      46.233   3.473  13.433  0.00  0.00    +0.000 A 
ATOM      4  C   UNL     1      45.713   3.677  12.148  0.00  0.00    +0.000 A 
ATOM      5  C   UNL     1      45.648   4.965  11.598  0.00  0.00    +0.000 A 
ATOM      6  C   UNL     1      46.129   6.041  12.356  0.00  0.00    +0.000 A 
ATOM      7  C   UNL     1      46.649   5.837  13.639  0.00  0.00    +0.000 A 
BRANCH   5   8
ATOM      8  C   UNL     1      45.084   5.190  10.215  0.00  0.00    +0.000 C 
BRANCH   8   9
ATOM      9  O   UNL     1      44.517   3.972   9.737  0.00  0.00    +0.000 OA
BRANCH   9  10
ATOM     10  C   UNL     1      44.498   3.918   8.309  0.00  0.00    +0.000 C 
BRANCH  10  11
ATOM     11  C   UNL     1      45.616   3.044   7.806  0.00  0.00    +0.000 A 
ATOM     12  C   UNL     1      46.645   3.550   6.997  0.00  0.00    +0.000 A 
ATOM     13  C   UNL     1      47.693   2.725   6.577  0.00  0.00    +0.000 A 
ATOM     14  C   UNL     1      47.734   1.388   6.971  0.00  0.00    +0.000 A 
ATOM     15  C   UNL     1      46.726   0.876   7.786  0.00  0.00    +0.000 A 
ATOM     16  C   UNL     1      45.684   1.704   8.198  0.00  0.00    +0.000 A 
ATOM     17  F   UNL     1      44.730   1.191   8.990  0.00  0.00    +0.000 F 
ENDBRANCH  10  11
ENDBRANCH   9  10
ENDBRANCH   8   9
ENDBRANCH   5   8
ENDBRANCH   1   2
BRANCH   1  20
ATOM     18  C   UNL     1      49.011   5.361  16.963  0.00  0.00    +0.000 C 
ATOM     19  O   UNL     1      49.260   4.290  17.511  0.00  0.00    +0.000 OA
ATOM     20  N   UNL     1      48.029   5.467  16.015  0.00  0.00    +0.000 N 
ATOM     21  H   UNL     1      47.772   6.376  15.658  0.00  0.00    +0.000 HD
BRANCH  18  29
ATOM     22  C   UNL     1      50.544   7.776  15.045  0.00  0.00    +0.000 A 
ATOM     23  N   UNL     1      51.262   8.802  14.549  0.00  0.00    +0.000 NA
ATOM     24  C   UNL     1      51.852   9.633  15.412  0.00  0.00    +0.000 A 
ATOM     25  N   UNL     1      51.807   9.571  16.740  0.00  0.00    +0.000 NA
ATOM     26  C   UNL     1      51.082   8.535  17.194  0.00  0.00    +0.000 A 
ATOM     27  S   UNL     1      50.905   8.306  18.866  0.00  0.00    +0.000 S 
ATOM     28  C   UNL     1      49.963   6.912  18.627  0.00  0.00    +0.000 A 
ATOM     29  C   UNL     1      49.767   6.587  17.289  0.00  0.00    +0.000 A 
ATOM     30  C   UNL     1      50.417   7.576  16.432  0.00  0.00    +0.000 A 
BRANCH  22  32
ATOM     31  C   UNL     1      49.760   7.552  12.852  0.00  0.00    +0.000 C 
ATOM     32  O   UNL     1      49.866   6.974  14.152  0.00  0.00    +0.000 OA
ENDBRANCH  22  32
ENDBRANCH  18  29
ENDBRANCH   1  20
TORSDOF 8
ENDMDL
MODEL 8
REMARK VINA RESULT:    -6.879      2.596      3.660
REMARK INTER + INTRA:         -11.525
REMARK INTER:                 -10.274
REMARK INTRA:                  -1.251
REMARK UNBOUND:                -1.429
REMARK  Name = 
REMARK  9 active torsions:
REMARK  status: ('A' for Active; 'I' for Inactive)
REMARK    1  A    between atoms: C_1  and  O_2
REMARK    2  A    between atoms: O_2  and  C_3
REMARK    3  A    between atoms: C_10  and  C_11
REMARK    4  A    between atoms: N_13  and  C_14
REMARK    5  A    between atoms: C_14  and  C_15
REMARK    6  A    between atoms: C_18  and  C_19
REMARK    7  A    between atoms: C_19  and  O_20
REMARK    8  A    between atoms: O_20  and  C_21
REMARK    9  A    between atoms: C_21  and  C_22
REMARK                            x       y       z     vdW  Elec       q    Type
REMARK                         _______ _______ _______ _____ _____    ______ ____
ROOT
ATOM      1  C   UNL     1      46.797   8.073  13.360  0.00  0.00    +0.000 C 
ENDROOT
BRANCH   1   2
ATOM      2  C   UNL     1      46.055   6.877  12.813  0.00  0.00    +0.000 A 
ATOM      3  C   UNL     1      46.480   5.573  13.100  0.00  0.00    +0.000 A 
ATOM      4  C   UNL     1      45.779   4.467  12.602  0.00  0.00    +0.000 A 
ATOM      5  C   UNL     1      44.646   4.642  11.795  0.00  0.00    +0.000 A 
ATOM      6  C   UNL     1      44.240   5.947  11.486  0.00  0.00    +0.000 A 
ATOM      7  C   UNL     1      44.940   7.051  11.983  0.00  0.00    +0.000 A 
BRANCH   5   8
ATOM      8  C   UNL     1      43.886   3.452  11.259  0.00  0.00    +0.000 C 
BRANCH   8   9
ATOM      9  O   UNL     1      44.052   3.388   9.844  0.00  0.00    +0.000 OA
BRANCH   9  10
ATOM     10  C   UNL     1      44.606   2.138   9.428  0.00  0.00    +0.000 C 
BRANCH  10  11
ATOM     11  C   UNL     1      45.665   2.362   8.381  0.00  0.00    +0.000 A 
ATOM     12  C   UNL     1      46.004   3.648   7.935  0.00  0.00    +0.000 A 
ATOM     13  C   UNL     1      47.019   3.831   6.991  0.00  0.00    +0.000 A 
ATOM     14  C   UNL     1      47.718   2.733   6.492  0.00  0.00    +0.000 A 
ATOM     15  C   UNL     1      47.402   1.451   6.936  0.00  0.00    +0.000 A 
ATOM     16  C   UNL     1      46.386   1.277   7.875  0.00  0.00    +0.000 A 
ATOM     17  F   UNL     1      46.106   0.034   8.296  0.00  0.00    +0.000 F 
ENDBRANCH  10  11
ENDBRANCH   9  10
ENDBRANCH   8   9
ENDBRANCH   5   8
ENDBRANCH   1   2
BRANCH   1  20
ATOM     18  C   UNL     1      48.523   8.161  15.117  0.00  0.00    +0.000 C 
ATOM     19  O   UNL     1      47.863   8.953  15.784  0.00  0.00    +0.000 OA
ATOM     20  N   UNL     1      48.070   7.688  13.915  0.00  0.00    +0.000 N 
ATOM     21  H   UNL     1      48.675   7.123  13.337  0.00  0.00    +0.000 HD
BRANCH  18  29
ATOM     22  C   UNL     1      51.729   8.443  13.891  0.00  0.00    +0.000 A 
ATOM     23  N   UNL     1      53.043   8.347  13.610  0.00  0.00    +0.000 NA
ATOM     24  C   UNL     1      53.811   7.623  14.428  0.00  0.00    +0.000 A 
ATOM     25  N   UNL     1      53.424   6.976  15.523  0.00  0.00    +0.000 NA
ATOM     26  C   UNL     1      52.109   7.097  15.769  0.00  0.00    +0.000 A 
ATOM     27  S   UNL     1      51.439   6.344  17.135  0.00  0.00    +0.000 S 
ATOM     28  C   UNL     1      49.884   6.908  16.746  0.00  0.00    +0.000 A 
ATOM     29  C   UNL     1      49.834   7.667  15.583  0.00  0.00    +0.000 A 
ATOM     30  C   UNL     1      51.173   7.800  15.012  0.00  0.00    +0.000 A 
BRANCH  22  32
ATOM     31  C   UNL     1      50.836   8.782  11.756  0.00  0.00    +0.000 C 
ATOM     32  O   UNL     1      50.958   9.262  13.093  0.00  0.00    +0.000 OA
ENDBRANCH  22  32
ENDBRANCH  18  29
ENDBRANCH   1  20
TORSDOF 8
ENDMDL
MODEL 9
REMARK VINA RESULT:    -6.877      2.303      3.077
REMARK INTER + INTRA:         -11.522
REMARK INTER:                 -10.739
REMARK INTRA:                  -0.783
REMARK UNBOUND:                -1.429
REMARK  Name = 
REMARK  9 active torsions:
REMARK  status: ('A' for Active; 'I' for Inactive)
REMARK    1  A    between atoms: C_1  and  O_2
REMARK    2  A    between atoms: O_2  and  C_3
REMARK    3  A    between atoms: C_10  and  C_11
REMARK    4  A    between atoms: N_13  and  C_14
REMARK    5  A    between atoms: C_14  and  C_15
REMARK    6  A    between atoms: C_18  and  C_19
REMARK    7  A    between atoms: C_19  and  O_20
REMARK    8  A    between atoms: O_20  and  C_21
REMARK    9  A    between atoms: C_21  and  C_22
REMARK                            x       y       z     vdW  Elec       q    Type
REMARK                         _______ _______ _______ _____ _____    ______ ____
ROOT
ATOM      1  C   UNL     1      46.757   7.827  13.175  0.00  0.00    +0.000 C 
ENDROOT
BRANCH   1   2
ATOM      2  C   UNL     1      45.891   6.710  12.645  0.00  0.00    +0.000 A 
ATOM      3  C   UNL     1      45.885   5.450  13.259  0.00  0.00    +0.000 A 
ATOM      4  C   UNL     1      45.069   4.421  12.771  0.00  0.00    +0.000 A 
ATOM      5  C   UNL     1      44.250   4.626  11.651  0.00  0.00    +0.000 A 
ATOM      6  C   UNL     1      44.279   5.878  11.022  0.00  0.00    +0.000 A 
ATOM      7  C   UNL     1      45.095   6.905  11.509  0.00  0.00    +0.000 A 
BRANCH   5   8
ATOM      8  C   UNL     1      43.366   3.521  11.125  0.00  0.00    +0.000 C 
BRANCH   8   9
ATOM      9  O   UNL     1      43.863   3.085   9.862  0.00  0.00    +0.000 OA
BRANCH   9  10
ATOM     10  C   UNL     1      45.159   2.493   9.974  0.00  0.00    +0.000 C 
BRANCH  10  11
ATOM     11  C   UNL     1      45.832   2.456   8.627  0.00  0.00    +0.000 A 
ATOM     12  C   UNL     1      46.328   1.262   8.081  0.00  0.00    +0.000 A 
ATOM     13  C   UNL     1      46.912   1.248   6.812  0.00  0.00    +0.000 A 
ATOM     14  C   UNL     1      46.997   2.423   6.065  0.00  0.00    +0.000 A 
ATOM     15  C   UNL     1      46.497   3.613   6.590  0.00  0.00    +0.000 A 
ATOM     16  C   UNL     1      45.918   3.619   7.858  0.00  0.00    +0.000 A 
ATOM     17  F   UNL     1      45.434   4.775   8.338  0.00  0.00    +0.000 F 
ENDBRANCH  10  11
ENDBRANCH   9  10
ENDBRANCH   8   9
ENDBRANCH   5   8
ENDBRANCH   1   2
BRANCH   1  20
ATOM     18  C   UNL     1      48.718   6.868  14.321  0.00  0.00    +0.000 C 
ATOM     19  O   UNL     1      49.302   6.686  13.256  0.00  0.00    +0.000 OA
ATOM     20  N   UNL     1      47.465   7.419  14.362  0.00  0.00    +0.000 N 
ATOM     21  H   UNL     1      46.964   7.461  15.237  0.00  0.00    +0.000 HD
BRANCH  18  29
ATOM     22  C   UNL     1      51.805   7.503  15.709  0.00  0.00    +0.000 A 
ATOM     23  N   UNL     1      52.930   7.552  16.448  0.00  0.00    +0.000 NA
ATOM     24  C   UNL     1      52.942   6.911  17.619  0.00  0.00    +0.000 A 
ATOM     25  N   UNL     1      51.944   6.219  18.162  0.00  0.00    +0.000 NA
ATOM     26  C   UNL     1      50.842   6.196  17.395  0.00  0.00    +0.000 A 
ATOM     27  S   UNL     1      49.462   5.368  17.936  0.00  0.00    +0.000 S 
ATOM     28  C   UNL     1      48.608   5.762  16.520  0.00  0.00    +0.000 A 
ATOM     29  C   UNL     1      49.341   6.517  15.612  0.00  0.00    +0.000 A 
ATOM     30  C   UNL     1      50.671   6.798  16.150  0.00  0.00    +0.000 A 
BRANCH  22  32
ATOM     31  C   UNL     1      53.065   8.495  14.005  0.00  0.00    +0.000 C 
ATOM     32  O   UNL     1      51.769   8.238  14.542  0.00  0.00    +0.000 OA
ENDBRANCH  22  32
ENDBRANCH  18  29
ENDBRANCH   1  20
TORSDOF 8
ENDMDL
