MODEL 1
REMARK VINA RESULT:    -6.668      0.000      0.000
REMARK INTER + INTRA:         -11.337
REMARK INTER:                  -9.786
REMARK INTRA:                  -1.551
REMARK UNBOUND:                -1.551
REMARK  Name = 
REMARK  12 active torsions:
REMARK  status: ('A' for Active; 'I' for Inactive)
REMARK    1  A    between atoms: C_1  and  C_2
REMARK    2  A    between atoms: C_2  and  N_3
REMARK    3  A    between atoms: N_3  and  C_4
REMARK    4  A    between atoms: C_4  and  C_5
REMARK    5  A    between atoms: C_6  and  C_8
REMARK    6  A    between atoms: C_11  and  N_12
REMARK    7  A    between atoms: N_12  and  C_13
REMARK    8  A    between atoms: C_13  and  C_14
REMARK    9  A    between atoms: C_14  and  C_15
REMARK   10  A    between atoms: C_14  and  C_16
REMARK   11  A    between atoms: C_14  and  C_17
REMARK   12  A    between atoms: C_21  and  C_22
REMARK                            x       y       z     vdW  Elec       q    Type
REMARK                         _______ _______ _______ _____ _____    ______ ____
ROOT
ATOM      1  N   UNL     1      44.925   4.730  13.246  0.00  0.00    +0.000 N 
ATOM      2  H   UNL     1      43.988   5.127  13.270  0.00  0.00    +0.000 HD
ENDROOT
BRANCH   1   6
ATOM      3  C   UNL     1      47.872   7.679  12.530  0.00  0.00    +0.000 A 
ATOM      4  C   UNL     1      46.545   7.919  12.182  0.00  0.00    +0.000 A 
ATOM      5  C   UNL     1      45.559   6.969  12.449  0.00  0.00    +0.000 A 
ATOM      6  C   UNL     1      45.879   5.724  12.996  0.00  0.00    +0.000 A 
ATOM      7  C   UNL     1      47.239   5.430  13.177  0.00  0.00    +0.000 A 
ATOM      8  C   UNL     1      48.230   6.400  12.961  0.00  0.00    +0.000 A 
BRANCH   3  10
ATOM      9  N   UNL     1      49.226   9.550  13.540  0.00  0.00    +0.000 N 
ATOM     10  C   UNL     1      48.913   8.733  12.423  0.00  0.00    +0.000 C 
ATOM     11  O   UNL     1      49.498   8.847  11.344  0.00  0.00    +0.000 OA
BRANCH   9  13
ATOM     12  C   UNL     1      51.542  10.440  13.644  0.00  0.00    +0.000 C 
ATOM     13  C   UNL     1      50.091  10.702  13.279  0.00  0.00    +0.000 C 
ENDBRANCH   9  13
BRANCH   9  14
ATOM     14  C   UNL     1      48.598   9.427  14.863  0.00  0.00    +0.000 C 
ATOM     15  C   UNL     1      49.269   8.527  15.886  0.00  0.00    +0.000 C 
ENDBRANCH   9  14
ENDBRANCH   3  10
ENDBRANCH   1   6
BRANCH   1  16
ATOM     16  C   UNL     1      45.030   3.447  12.540  0.00  0.00    +0.000 C 
BRANCH  16  17
ATOM     17  C   UNL     1      44.051   3.318  11.333  0.00  0.00    +0.000 C 
ATOM     18  C   UNL     1      43.283   1.978  11.462  0.00  0.00    +0.000 C 
ATOM     19  C   UNL     1      43.005   4.456  11.354  0.00  0.00    +0.000 C 
BRANCH  17  20
ATOM     20  C   UNL     1      44.856   3.430  10.012  0.00  0.00    +0.000 A 
ATOM     21  C   UNL     1      45.106   4.662   9.382  0.00  0.00    +0.000 A 
ATOM     22  C   UNL     1      45.873   4.740   8.214  0.00  0.00    +0.000 A 
ATOM     23  C   UNL     1      46.417   3.590   7.651  0.00  0.00    +0.000 A 
ATOM     24  C   UNL     1      46.189   2.352   8.250  0.00  0.00    +0.000 A 
ATOM     25  C   UNL     1      45.395   2.273   9.406  0.00  0.00    +0.000 A 
BRANCH  24  26
ATOM     26  C   UNL     1      46.813   1.149   7.635  0.00  0.00    +0.000 C 
ATOM     27  N   UNL     1      47.788   1.356   6.697  0.00  0.00    +0.000 N 
ATOM     28  O   UNL     1      46.443   0.016   7.914  0.00  0.00    +0.000 OA
ATOM     29  H   UNL     1      47.916   2.249   6.246  0.00  0.00    +0.000 HD
ATOM     30  H   UNL     1      48.094   0.533   6.194  0.00  0.00    +0.000 HD
ENDBRANCH  24  26
ENDBRANCH  17  20
ENDBRANCH  16  17
ENDBRANCH   1  16
TORSDOF 8
ENDMDL
MODEL 2
REMARK VINA RESULT:    -6.608      1.026      1.476
REMARK INTER + INTRA:         -11.249
REMARK INTER:                 -10.027
REMARK INTRA:                  -1.222
REMARK UNBOUND:                -1.551
REMARK  Name = 
REMARK  12 active torsions:
REMARK  status: ('A' for Active; 'I' for Inactive)
REMARK    1  A    between atoms: C_1  and  C_2
REMARK    2  A    between atoms: C_2  and  N_3
REMARK    3  A    between atoms: N_3  and  C_4
REMARK    4  A    between atoms: C_4  and  C_5
REMARK    5  A    between atoms: C_6  and  C_8
REMARK    6  A    between atoms: C_11  and  N_12
REMARK    7  A    between atoms: N_12  and  C_13
REMARK    8  A    between atoms: C_13  and  C_14
REMARK    9  A    between atoms: C_14  and  C_15
REMARK   10  A    between atoms: C_14  and  C_16
REMARK   11  A    between atoms: C_14  and  C_17
REMARK   12  A    between atoms: C_21  and  C_22
REMARK                            x       y       z     vdW  Elec       q    Type
REMARK                         _______ _______ _______ _____ _____    ______ ____
ROOT
ATOM      1  N   UNL     1      44.829   4.488  13.281  0.00  0.00    +0.000 N 
ATOM      2  H   UNL     1      43.860   4.798  13.249  0.00  0.00    +0.000 HD
ENDROOT
BRANCH   1   6
ATOM      3  C   UNL     1      47.514   7.739  13.621  0.00  0.00    +0.000 A 
ATOM      4  C   UNL     1      46.279   7.914  13.001  0.00  0.00    +0.000 A 
ATOM      5  C   UNL     1      45.371   6.859  12.917  0.00  0.00    +0.000 A 
ATOM      6  C   UNL     1      45.698   5.581  13.377  0.00  0.00    +0.000 A 
ATOM      7  C   UNL     1      47.008   5.377  13.839  0.00  0.00    +0.000 A 
ATOM      8  C   UNL     1      47.907   6.446  13.975  0.00  0.00    +0.000 A 
BRANCH   3  10
ATOM      9  N   UNL     1      49.326   9.327  12.880  0.00  0.00    +0.000 N 
ATOM     10  C   UNL     1      48.428   8.880  13.883  0.00  0.00    +0.000 C 
ATOM     11  O   UNL     1      48.355   9.424  14.986  0.00  0.00    +0.000 OA
BRANCH   9  13
ATOM     12  C   UNL     1      51.582   9.635  13.872  0.00  0.00    +0.000 C 
ATOM     13  C   UNL     1      50.339  10.297  13.302  0.00  0.00    +0.000 C 
ENDBRANCH   9  13
BRANCH   9  14
ATOM     14  C   UNL     1      49.423   8.749  11.532  0.00  0.00    +0.000 C 
ATOM     15  C   UNL     1      50.406   7.612  11.317  0.00  0.00    +0.000 C 
ENDBRANCH   9  14
ENDBRANCH   3  10
ENDBRANCH   1   6
BRANCH   1  16
ATOM     16  C   UNL     1      45.154   3.398  12.351  0.00  0.00    +0.000 C 
BRANCH  16  17
ATOM     17  C   UNL     1      44.160   3.282  11.156  0.00  0.00    +0.000 C 
ATOM     18  C   UNL     1      43.366   1.959  11.303  0.00  0.00    +0.000 C 
ATOM     19  C   UNL     1      43.137   4.441  11.181  0.00  0.00    +0.000 C 
BRANCH  17  20
ATOM     20  C   UNL     1      44.951   3.369   9.825  0.00  0.00    +0.000 A 
ATOM     21  C   UNL     1      45.202   4.589   9.174  0.00  0.00    +0.000 A 
ATOM     22  C   UNL     1      45.957   4.645   7.997  0.00  0.00    +0.000 A 
ATOM     23  C   UNL     1      46.489   3.483   7.446  0.00  0.00    +0.000 A 
ATOM     24  C   UNL     1      46.261   2.256   8.067  0.00  0.00    +0.000 A 
ATOM     25  C   UNL     1      45.478   2.199   9.232  0.00  0.00    +0.000 A 
BRANCH  24  26
ATOM     26  C   UNL     1      46.871   1.040   7.465  0.00  0.00    +0.000 C 
ATOM     27  N   UNL     1      47.752   1.224   6.433  0.00  0.00    +0.000 N 
ATOM     28  O   UNL     1      46.569  -0.087   7.837  0.00  0.00    +0.000 OA
ATOM     29  H   UNL     1      47.808   2.093   5.924  0.00  0.00    +0.000 HD
ATOM     30  H   UNL     1      48.042   0.383   5.950  0.00  0.00    +0.000 HD
ENDBRANCH  24  26
ENDBRANCH  17  20
ENDBRANCH  16  17
ENDBRANCH   1  16
TORSDOF 8
ENDMDL
MODEL 3
REMARK VINA RESULT:    -6.239      2.965      7.988
REMARK INTER + INTRA:         -10.709
REMARK INTER:                  -9.334
REMARK INTRA:                  -1.375
REMARK UNBOUND:                -1.551
REMARK  Name = 
REMARK  12 active torsions:
REMARK  status: ('A' for Active; 'I' for Inactive)
REMARK    1  A    between atoms: C_1  and  C_2
REMARK    2  A    between atoms: C_2  and  N_3
REMARK    3  A    between atoms: N_3  and  C_4
REMARK    4  A    between atoms: C_4  and  C_5
REMARK    5  A    between atoms: C_6  and  C_8
REMARK    6  A    between atoms: C_11  and  N_12
REMARK    7  A    between atoms: N_12  and  C_13
REMARK    8  A    between atoms: C_13  and  C_14
REMARK    9  A    between atoms: C_14  and  C_15
REMARK   10  A    between atoms: C_14  and  C_16
REMARK   11  A    between atoms: C_14  and  C_17
REMARK   12  A    between atoms: C_21  and  C_22
REMARK                            x       y       z     vdW  Elec       q    Type
REMARK                         _______ _______ _______ _____ _____    ______ ____
ROOT
ATOM      1  N   UNL     1      47.543   8.826  14.596  0.00  0.00    +0.000 N 
ATOM      2  H   UNL     1      46.866   8.950  15.346  0.00  0.00    +0.000 HD
ENDROOT
BRANCH   1   6
ATOM      3  C   UNL     1      45.978   6.437  11.476  0.00  0.00    +0.000 A 
ATOM      4  C   UNL     1      45.377   7.653  11.794  0.00  0.00    +0.000 A 
ATOM      5  C   UNL     1      45.907   8.466  12.796  0.00  0.00    +0.000 A 
ATOM      6  C   UNL     1      47.002   8.056  13.560  0.00  0.00    +0.000 A 
ATOM      7  C   UNL     1      47.487   6.756  13.347  0.00  0.00    +0.000 A 
ATOM      8  C   UNL     1      46.992   5.955  12.306  0.00  0.00    +0.000 A 
BRANCH   3  10
ATOM      9  N   UNL     1      44.446   4.745  10.406  0.00  0.00    +0.000 N 
ATOM     10  C   UNL     1      45.547   5.634  10.304  0.00  0.00    +0.000 C 
ATOM     11  O   UNL     1      46.166   5.789   9.250  0.00  0.00    +0.000 OA
BRANCH   9  13
ATOM     12  C   UNL     1      44.903   2.483   9.490  0.00  0.00    +0.000 C 
ATOM     13  C   UNL     1      44.240   3.834   9.279  0.00  0.00    +0.000 C 
ENDBRANCH   9  13
BRANCH   9  14
ATOM     14  C   UNL     1      43.640   4.555  11.621  0.00  0.00    +0.000 C 
ATOM     15  C   UNL     1      42.409   5.427  11.800  0.00  0.00    +0.000 C 
ENDBRANCH   9  14
ENDBRANCH   3  10
ENDBRANCH   1   6
BRANCH   1  16
ATOM     16  C   UNL     1      48.913   8.552  15.049  0.00  0.00    +0.000 C 
BRANCH  16  17
ATOM     17  C   UNL     1      49.076   8.586  16.599  0.00  0.00    +0.000 C 
ATOM     18  C   UNL     1      50.345   9.407  16.943  0.00  0.00    +0.000 C 
ATOM     19  C   UNL     1      47.872   9.296  17.259  0.00  0.00    +0.000 C 
BRANCH  17  20
ATOM     20  C   UNL     1      49.130   7.133  17.138  0.00  0.00    +0.000 A 
ATOM     21  C   UNL     1      50.030   6.731  18.140  0.00  0.00    +0.000 A 
ATOM     22  C   UNL     1      50.029   5.425  18.640  0.00  0.00    +0.000 A 
ATOM     23  C   UNL     1      49.120   4.488  18.158  0.00  0.00    +0.000 A 
ATOM     24  C   UNL     1      48.212   4.852  17.164  0.00  0.00    +0.000 A 
ATOM     25  C   UNL     1      48.235   6.156  16.643  0.00  0.00    +0.000 A 
BRANCH  24  26
ATOM     26  C   UNL     1      47.237   3.830  16.696  0.00  0.00    +0.000 C 
ATOM     27  N   UNL     1      46.881   3.861  15.374  0.00  0.00    +0.000 N 
ATOM     28  O   UNL     1      46.730   3.021  17.462  0.00  0.00    +0.000 OA
ATOM     29  H   UNL     1      47.053   4.666  14.791  0.00  0.00    +0.000 HD
ATOM     30  H   UNL     1      46.116   3.253  15.113  0.00  0.00    +0.000 HD
ENDBRANCH  24  26
ENDBRANCH  17  20
ENDBRANCH  16  17
ENDBRANCH   1  16
TORSDOF 8
ENDMDL
MODEL 4
REMARK VINA RESULT:    -6.148      3.690      7.849
REMARK INTER + INTRA:         -10.575
REMARK INTER:                  -9.082
REMARK INTRA:                  -1.493
REMARK UNBOUND:                -1.551
REMARK  Name = 
REMARK  12 active torsions:
REMARK  status: ('A' for Active; 'I' for Inactive)
REMARK    1  A    between atoms: C_1  and  C_2
REMARK    2  A    between atoms: C_2  and  N_3
REMARK    3  A    between atoms: N_3  and  C_4
REMARK    4  A    between atoms: C_4  and  C_5
REMARK    5  A    between atoms: C_6  and  C_8
REMARK    6  A    between atoms: C_11  and  N_12
REMARK    7  A    between atoms: N_12  and  C_13
REMARK    8  A    between atoms: C_13  and  C_14
REMARK    9  A    between atoms: C_14  and  C_15
REMARK   10  A    between atoms: C_14  and  C_16
REMARK   11  A    between atoms: C_14  and  C_17
REMARK   12  A    between atoms: C_21  and  C_22
REMARK                            x       y       z     vdW  Elec       q    Type
REMARK                         _______ _______ _______ _____ _____    ______ ____
ROOT
ATOM      1  N   UNL     1      48.309   8.263  15.115  0.00  0.00    +0.000 N 
ATOM      2  H   UNL     1      47.688   8.637  15.830  0.00  0.00    +0.000 HD
ENDROOT
BRANCH   1   6
ATOM      3  C   UNL     1      46.137   6.404  11.998  0.00  0.00    +0.000 A 
ATOM      4  C   UNL     1      45.939   7.754  12.278  0.00  0.00    +0.000 A 
ATOM      5  C   UNL     1      46.678   8.386  13.279  0.00  0.00    +0.000 A 
ATOM      6  C   UNL     1      47.574   7.674  14.079  0.00  0.00    +0.000 A 
ATOM      7  C   UNL     1      47.633   6.283  13.902  0.00  0.00    +0.000 A 
ATOM      8  C   UNL     1      46.933   5.651  12.862  0.00  0.00    +0.000 A 
BRANCH   3  10
ATOM      9  N   UNL     1      44.216   5.152  10.949  0.00  0.00    +0.000 N 
ATOM     10  C   UNL     1      45.499   5.746  10.829  0.00  0.00    +0.000 C 
ATOM     11  O   UNL     1      46.117   5.760   9.762  0.00  0.00    +0.000 OA
BRANCH   9  13
ATOM     12  C   UNL     1      44.452   2.976   9.776  0.00  0.00    +0.000 C 
ATOM     13  C   UNL     1      43.772   4.334   9.819  0.00  0.00    +0.000 C 
ENDBRANCH   9  13
BRANCH   9  14
ATOM     14  C   UNL     1      43.413   5.148  12.180  0.00  0.00    +0.000 C 
ATOM     15  C   UNL     1      43.521   3.941  13.094  0.00  0.00    +0.000 C 
ENDBRANCH   9  14
ENDBRANCH   3  10
ENDBRANCH   1   6
BRANCH   1  16
ATOM     16  C   UNL     1      49.493   7.567  15.635  0.00  0.00    +0.000 C 
BRANCH  16  17
ATOM     17  C   UNL     1      49.405   7.240  17.157  0.00  0.00    +0.000 C 
ATOM     18  C   UNL     1      50.793   7.496  17.797  0.00  0.00    +0.000 C 
ATOM     19  C   UNL     1      48.392   8.172  17.859  0.00  0.00    +0.000 C 
BRANCH  17  20
ATOM     20  C   UNL     1      48.915   5.779  17.336  0.00  0.00    +0.000 A 
ATOM     21  C   UNL     1      47.569   5.458  17.586  0.00  0.00    +0.000 A 
ATOM     22  C   UNL     1      47.146   4.129  17.699  0.00  0.00    +0.000 A 
ATOM     23  C   UNL     1      48.056   3.086  17.556  0.00  0.00    +0.000 A 
ATOM     24  C   UNL     1      49.398   3.368  17.306  0.00  0.00    +0.000 A 
ATOM     25  C   UNL     1      49.826   4.704  17.222  0.00  0.00    +0.000 A 
BRANCH  24  26
ATOM     26  C   UNL     1      50.335   2.226  17.129  0.00  0.00    +0.000 C 
ATOM     27  N   UNL     1      51.346   2.095  18.042  0.00  0.00    +0.000 N 
ATOM     28  O   UNL     1      50.242   1.455  16.182  0.00  0.00    +0.000 OA
ATOM     29  H   UNL     1      51.619   2.851  18.653  0.00  0.00    +0.000 HD
ATOM     30  H   UNL     1      52.049   1.401  17.821  0.00  0.00    +0.000 HD
ENDBRANCH  24  26
ENDBRANCH  17  20
ENDBRANCH  16  17
ENDBRANCH   1  16
TORSDOF 8
ENDMDL
MODEL 5
REMARK VINA RESULT:    -6.142      1.772      2.297
REMARK INTER + INTRA:         -10.566
REMARK INTER:                  -9.517
REMARK INTRA:                  -1.049
REMARK UNBOUND:                -1.551
REMARK  Name = 
REMARK  12 active torsions:
REMARK  status: ('A' for Active; 'I' for Inactive)
REMARK    1  A    between atoms: C_1  and  C_2
REMARK    2  A    between atoms: C_2  and  N_3
REMARK    3  A    between atoms: N_3  and  C_4
REMARK    4  A    between atoms: C_4  and  C_5
REMARK    5  A    between atoms: C_6  and  C_8
REMARK    6  A    between atoms: C_11  and  N_12
REMARK    7  A    between atoms: N_12  and  C_13
REMARK    8  A    between atoms: C_13  and  C_14
REMARK    9  A    between atoms: C_14  and  C_15
REMARK   10  A    between atoms: C_14  and  C_16
REMARK   11  A    between atoms: C_14  and  C_17
REMARK   12  A    between atoms: C_21  and  C_22
REMARK                            x       y       z     vdW  Elec       q    Type
REMARK                         _______ _______ _______ _____ _____    ______ ____
ROOT
ATOM      1  N   UNL     1      43.750   5.125  12.454  0.00  0.00    +0.000 N 
ATOM      2  H   UNL     1      42.945   5.268  13.060  0.00  0.00    +0.000 HD
ENDROOT
BRANCH   1   6
ATOM      3  C   UNL     1      46.090   8.640  12.214  0.00  0.00    +0.000 A 
ATOM      4  C   UNL     1      46.414   7.646  13.135  0.00  0.00    +0.000 A 
ATOM      5  C   UNL     1      45.672   6.467  13.196  0.00  0.00    +0.000 A 
ATOM      6  C   UNL     1      44.541   6.278  12.398  0.00  0.00    +0.000 A 
ATOM      7  C   UNL     1      44.125   7.358  11.603  0.00  0.00    +0.000 A 
ATOM      8  C   UNL     1      44.897   8.525  11.498  0.00  0.00    +0.000 A 
BRANCH   3  10
ATOM      9  N   UNL     1      48.326   9.661  11.653  0.00  0.00    +0.000 N 
ATOM     10  C   UNL     1      46.960   9.825  12.001  0.00  0.00    +0.000 C 
ATOM     11  O   UNL     1      46.443  10.937  12.115  0.00  0.00    +0.000 OA
BRANCH   9  13
ATOM     12  C   UNL     1      49.748  11.211  10.334  0.00  0.00    +0.000 C 
ATOM     13  C   UNL     1      49.154  10.868  11.689  0.00  0.00    +0.000 C 
ENDBRANCH   9  13
BRANCH   9  14
ATOM     14  C   UNL     1      48.984   8.361  11.454  0.00  0.00    +0.000 C 
ATOM     15  C   UNL     1      50.109   7.984  12.401  0.00  0.00    +0.000 C 
ENDBRANCH   9  14
ENDBRANCH   3  10
ENDBRANCH   1   6
BRANCH   1  16
ATOM     16  C   UNL     1      43.459   4.399  11.211  0.00  0.00    +0.000 C 
BRANCH  16  17
ATOM     17  C   UNL     1      44.354   3.139  11.002  0.00  0.00    +0.000 C 
ATOM     18  C   UNL     1      45.285   2.986  12.231  0.00  0.00    +0.000 C 
ATOM     19  C   UNL     1      43.489   1.862  10.914  0.00  0.00    +0.000 C 
BRANCH  17  20
ATOM     20  C   UNL     1      45.132   3.284   9.668  0.00  0.00    +0.000 A 
ATOM     21  C   UNL     1      45.357   4.529   9.055  0.00  0.00    +0.000 A 
ATOM     22  C   UNL     1      46.100   4.637   7.875  0.00  0.00    +0.000 A 
ATOM     23  C   UNL     1      46.646   3.503   7.281  0.00  0.00    +0.000 A 
ATOM     24  C   UNL     1      46.444   2.252   7.862  0.00  0.00    +0.000 A 
ATOM     25  C   UNL     1      45.673   2.143   9.032  0.00  0.00    +0.000 A 
BRANCH  24  26
ATOM     26  C   UNL     1      47.069   1.067   7.215  0.00  0.00    +0.000 C 
ATOM     27  N   UNL     1      46.742  -0.165   7.711  0.00  0.00    +0.000 N 
ATOM     28  O   UNL     1      47.881   1.181   6.306  0.00  0.00    +0.000 OA
ATOM     29  H   UNL     1      46.311  -0.283   8.616  0.00  0.00    +0.000 HD
ATOM     30  H   UNL     1      47.285  -0.941   7.351  0.00  0.00    +0.000 HD
ENDBRANCH  24  26
ENDBRANCH  17  20
ENDBRANCH  16  17
ENDBRANCH   1  16
TORSDOF 8
ENDMDL
MODEL 6
REMARK VINA RESULT:    -5.829      3.399      8.011
REMARK INTER + INTRA:         -10.107
REMARK INTER:                  -8.551
REMARK INTRA:                  -1.556
REMARK UNBOUND:                -1.551
REMARK  Name = 
REMARK  12 active torsions:
REMARK  status: ('A' for Active; 'I' for Inactive)
REMARK    1  A    between atoms: C_1  and  C_2
REMARK    2  A    between atoms: C_2  and  N_3
REMARK    3  A    between atoms: N_3  and  C_4
REMARK    4  A    between atoms: C_4  and  C_5
REMARK    5  A    between atoms: C_6  and  C_8
REMARK    6  A    between atoms: C_11  and  N_12
REMARK    7  A    between atoms: N_12  and  C_13
REMARK    8  A    between atoms: C_13  and  C_14
REMARK    9  A    between atoms: C_14  and  C_15
REMARK   10  A    between atoms: C_14  and  C_16
REMARK   11  A    between atoms: C_14  and  C_17
REMARK   12  A    between atoms: C_21  and  C_22
REMARK                            x       y       z     vdW  Elec       q    Type
REMARK                         _______ _______ _______ _____ _____    ______ ____
ROOT
ATOM      1  N   UNL     1      50.096   8.264  14.523  0.00  0.00    +0.000 N 
ATOM      2  H   UNL     1      50.076   9.209  14.900  0.00  0.00    +0.000 HD
ENDROOT
BRANCH   1   6
ATOM      3  C   UNL     1      46.526   7.493  12.390  0.00  0.00    +0.000 A 
ATOM      4  C   UNL     1      47.742   7.010  11.914  0.00  0.00    +0.000 A 
ATOM      5  C   UNL     1      48.920   7.226  12.629  0.00  0.00    +0.000 A 
ATOM      6  C   UNL     1      48.931   7.995  13.795  0.00  0.00    +0.000 A 
ATOM      7  C   UNL     1      47.731   8.620  14.167  0.00  0.00    +0.000 A 
ATOM      8  C   UNL     1      46.533   8.363  13.482  0.00  0.00    +0.000 A 
BRANCH   3  10
ATOM      9  N   UNL     1      44.698   5.827  11.899  0.00  0.00    +0.000 N 
ATOM     10  C   UNL     1      45.235   7.132  11.750  0.00  0.00    +0.000 C 
ATOM     11  O   UNL     1      44.650   8.011  11.115  0.00  0.00    +0.000 OA
BRANCH   9  13
ATOM     12  C   UNL     1      42.230   5.573  11.800  0.00  0.00    +0.000 C 
ATOM     13  C   UNL     1      43.550   5.497  11.052  0.00  0.00    +0.000 C 
ENDBRANCH   9  13
BRANCH   9  14
ATOM     14  C   UNL     1      45.325   4.754  12.685  0.00  0.00    +0.000 C 
ATOM     15  C   UNL     1      45.221   3.334  12.157  0.00  0.00    +0.000 C 
ENDBRANCH   9  14
ENDBRANCH   3  10
ENDBRANCH   1   6
BRANCH   1  16
ATOM     16  C   UNL     1      50.610   7.246  15.449  0.00  0.00    +0.000 C 
BRANCH  16  17
ATOM     17  C   UNL     1      50.458   7.637  16.951  0.00  0.00    +0.000 C 
ATOM     18  C   UNL     1      51.795   7.337  17.675  0.00  0.00    +0.000 C 
ATOM     19  C   UNL     1      50.182   9.151  17.097  0.00  0.00    +0.000 C 
BRANCH  17  20
ATOM     20  C   UNL     1      49.255   6.869  17.558  0.00  0.00    +0.000 A 
ATOM     21  C   UNL     1      48.531   7.351  18.663  0.00  0.00    +0.000 A 
ATOM     22  C   UNL     1      47.422   6.661  19.163  0.00  0.00    +0.000 A 
ATOM     23  C   UNL     1      47.001   5.477  18.566  0.00  0.00    +0.000 A 
ATOM     24  C   UNL     1      47.694   4.972  17.467  0.00  0.00    +0.000 A 
ATOM     25  C   UNL     1      48.826   5.651  16.985  0.00  0.00    +0.000 A 
BRANCH  24  26
ATOM     26  C   UNL     1      47.196   3.719  16.837  0.00  0.00    +0.000 C 
ATOM     27  N   UNL     1      47.474   3.529  15.511  0.00  0.00    +0.000 N 
ATOM     28  O   UNL     1      46.521   2.908  17.458  0.00  0.00    +0.000 OA
ATOM     29  H   UNL     1      47.772   4.284  14.911  0.00  0.00    +0.000 HD
ATOM     30  H   UNL     1      47.007   2.745  15.073  0.00  0.00    +0.000 HD
ENDBRANCH  24  26
ENDBRANCH  17  20
ENDBRANCH  16  17
ENDBRANCH   1  16
TORSDOF 8
ENDMDL
MODEL 7
REMARK VINA RESULT:    -4.960      3.319      8.741
REMARK INTER + INTRA:          -8.831
REMARK INTER:                  -7.626
REMARK INTRA:                  -1.205
REMARK UNBOUND:                -1.551
REMARK  Name = 
REMARK  12 active torsions:
REMARK  status: ('A' for Active; 'I' for Inactive)
REMARK    1  A    between atoms: C_1  and  C_2
REMARK    2  A    between atoms: C_2  and  N_3
REMARK    3  A    between atoms: N_3  and  C_4
REMARK    4  A    between atoms: C_4  and  C_5
REMARK    5  A    between atoms: C_6  and  C_8
REMARK    6  A    between atoms: C_11  and  N_12
REMARK    7  A    between atoms: N_12  and  C_13
REMARK    8  A    between atoms: C_13  and  C_14
REMARK    9  A    between atoms: C_14  and  C_15
REMARK   10  A    between atoms: C_14  and  C_16
REMARK   11  A    between atoms: C_14  and  C_17
REMARK   12  A    between atoms: C_21  and  C_22
REMARK                            x       y       z     vdW  Elec       q    Type
REMARK                         _______ _______ _______ _____ _____    ______ ____
ROOT
ATOM      1  N   UNL     1      50.809   7.744  13.995  0.00  0.00    +0.000 N 
ATOM      2  H   UNL     1      51.409   8.095  13.252  0.00  0.00    +0.000 HD
ENDROOT
BRANCH   1   6
ATOM      3  C   UNL     1      46.953   6.959  12.444  0.00  0.00    +0.000 A 
ATOM      4  C   UNL     1      47.198   6.824  13.809  0.00  0.00    +0.000 A 
ATOM      5  C   UNL     1      48.455   7.117  14.336  0.00  0.00    +0.000 A 
ATOM      6  C   UNL     1      49.523   7.475  13.510  0.00  0.00    +0.000 A 
ATOM      7  C   UNL     1      49.308   7.437  12.124  0.00  0.00    +0.000 A 
ATOM      8  C   UNL     1      48.033   7.195  11.591  0.00  0.00    +0.000 A 
BRANCH   3  10
ATOM      9  N   UNL     1      44.944   5.562  11.834  0.00  0.00    +0.000 N 
ATOM     10  C   UNL     1      45.586   6.827  11.876  0.00  0.00    +0.000 C 
ATOM     11  O   UNL     1      45.037   7.854  11.473  0.00  0.00    +0.000 OA
BRANCH   9  13
ATOM     12  C   UNL     1      42.463   5.590  11.923  0.00  0.00    +0.000 C 
ATOM     13  C   UNL     1      43.706   5.489  11.056  0.00  0.00    +0.000 C 
ENDBRANCH   9  13
BRANCH   9  14
ATOM     14  C   UNL     1      45.529   4.315  12.345  0.00  0.00    +0.000 C 
ATOM     15  C   UNL     1      44.825   3.011  12.010  0.00  0.00    +0.000 C 
ENDBRANCH   9  14
ENDBRANCH   3  10
ENDBRANCH   1   6
BRANCH   1  16
ATOM     16  C   UNL     1      50.956   8.438  15.281  0.00  0.00    +0.000 C 
BRANCH  16  17
ATOM     17  C   UNL     1      51.839   7.667  16.308  0.00  0.00    +0.000 C 
ATOM     18  C   UNL     1      53.084   7.112  15.570  0.00  0.00    +0.000 C 
ATOM     19  C   UNL     1      52.344   8.617  17.418  0.00  0.00    +0.000 C 
BRANCH  17  20
ATOM     20  C   UNL     1      50.988   6.557  16.978  0.00  0.00    +0.000 A 
ATOM     21  C   UNL     1      51.434   5.228  17.091  0.00  0.00    +0.000 A 
ATOM     22  C   UNL     1      50.666   4.255  17.740  0.00  0.00    +0.000 A 
ATOM     23  C   UNL     1      49.437   4.587  18.302  0.00  0.00    +0.000 A 
ATOM     24  C   UNL     1      48.966   5.896  18.210  0.00  0.00    +0.000 A 
ATOM     25  C   UNL     1      49.725   6.864  17.532  0.00  0.00    +0.000 A 
BRANCH  24  26
ATOM     26  C   UNL     1      47.661   6.219  18.849  0.00  0.00    +0.000 C 
ATOM     27  N   UNL     1      46.625   5.351  18.636  0.00  0.00    +0.000 N 
ATOM     28  O   UNL     1      47.498   7.242  19.502  0.00  0.00    +0.000 OA
ATOM     29  H   UNL     1      46.641   4.669  17.893  0.00  0.00    +0.000 HD
ATOM     30  H   UNL     1      45.718   5.664  18.960  0.00  0.00    +0.000 HD
ENDBRANCH  24  26
ENDBRANCH  17  20
ENDBRANCH  16  17
ENDBRANCH   1  16
TORSDOF 8
ENDMDL
MODEL 8
REMARK VINA RESULT:    -4.952      2.313      8.043
REMARK INTER + INTRA:          -8.820
REMARK INTER:                  -7.646
REMARK INTRA:                  -1.174
REMARK UNBOUND:                -1.551
REMARK  Name = 
REMARK  12 active torsions:
REMARK  status: ('A' for Active; 'I' for Inactive)
REMARK    1  A    between atoms: C_1  and  C_2
REMARK    2  A    between atoms: C_2  and  N_3
REMARK    3  A    between atoms: N_3  and  C_4
REMARK    4  A    between atoms: C_4  and  C_5
REMARK    5  A    between atoms: C_6  and  C_8
REMARK    6  A    between atoms: C_11  and  N_12
REMARK    7  A    between atoms: N_12  and  C_13
REMARK    8  A    between atoms: C_13  and  C_14
REMARK    9  A    between atoms: C_14  and  C_15
REMARK   10  A    between atoms: C_14  and  C_16
REMARK   11  A    between atoms: C_14  and  C_17
REMARK   12  A    between atoms: C_21  and  C_22
REMARK                            x       y       z     vdW  Elec       q    Type
REMARK                         _______ _______ _______ _____ _____    ______ ____
ROOT
ATOM      1  N   UNL     1      46.992   9.038  14.168  0.00  0.00    +0.000 N 
ATOM      2  H   UNL     1      46.210   9.397  14.711  0.00  0.00    +0.000 HD
ENDROOT
BRANCH   1   6
ATOM      3  C   UNL     1      45.719   6.312  11.195  0.00  0.00    +0.000 A 
ATOM      4  C   UNL     1      44.992   7.476  11.433  0.00  0.00    +0.000 A 
ATOM      5  C   UNL     1      45.424   8.400  12.384  0.00  0.00    +0.000 A 
ATOM      6  C   UNL     1      46.546   8.153  13.179  0.00  0.00    +0.000 A 
ATOM      7  C   UNL     1      47.165   6.900  13.051  0.00  0.00    +0.000 A 
ATOM      8  C   UNL     1      46.767   5.989  12.060  0.00  0.00    +0.000 A 
BRANCH   3  10
ATOM      9  N   UNL     1      44.277   4.519  10.165  0.00  0.00    +0.000 N 
ATOM     10  C   UNL     1      45.388   5.396  10.073  0.00  0.00    +0.000 C 
ATOM     11  O   UNL     1      46.097   5.452   9.067  0.00  0.00    +0.000 OA
BRANCH   9  13
ATOM     12  C   UNL     1      45.103   2.327   9.340  0.00  0.00    +0.000 C 
ATOM     13  C   UNL     1      44.165   3.502   9.118  0.00  0.00    +0.000 C 
ENDBRANCH   9  13
BRANCH   9  14
ATOM     14  C   UNL     1      43.368   4.445  11.317  0.00  0.00    +0.000 C 
ATOM     15  C   UNL     1      43.704   3.462  12.425  0.00  0.00    +0.000 C 
ENDBRANCH   9  14
ENDBRANCH   3  10
ENDBRANCH   1   6
BRANCH   1  16
ATOM     16  C   UNL     1      48.176   8.683  14.961  0.00  0.00    +0.000 C 
BRANCH  16  17
ATOM     17  C   UNL     1      49.229   9.830  15.055  0.00  0.00    +0.000 C 
ATOM     18  C   UNL     1      48.715  11.039  14.233  0.00  0.00    +0.000 C 
ATOM     19  C   UNL     1      49.395  10.300  16.518  0.00  0.00    +0.000 C 
BRANCH  17  20
ATOM     20  C   UNL     1      50.601   9.302  14.562  0.00  0.00    +0.000 A 
ATOM     21  C   UNL     1      51.648   8.981  15.444  0.00  0.00    +0.000 A 
ATOM     22  C   UNL     1      52.862   8.465  14.976  0.00  0.00    +0.000 A 
ATOM     23  C   UNL     1      53.057   8.246  13.616  0.00  0.00    +0.000 A 
ATOM     24  C   UNL     1      52.039   8.552  12.714  0.00  0.00    +0.000 A 
ATOM     25  C   UNL     1      50.832   9.098  13.182  0.00  0.00    +0.000 A 
BRANCH  24  26
ATOM     26  C   UNL     1      52.274   8.276  11.270  0.00  0.00    +0.000 C 
ATOM     27  N   UNL     1      51.635   7.195  10.725  0.00  0.00    +0.000 N 
ATOM     28  O   UNL     1      53.042   8.953  10.600  0.00  0.00    +0.000 OA
ATOM     29  H   UNL     1      51.231   6.467  11.295  0.00  0.00    +0.000 HD
ATOM     30  H   UNL     1      51.920   6.946   9.786  0.00  0.00    +0.000 HD
ENDBRANCH  24  26
ENDBRANCH  17  20
ENDBRANCH  16  17
ENDBRANCH   1  16
TORSDOF 8
ENDMDL
MODEL 9
REMARK VINA RESULT:    -4.943      2.741      8.308
REMARK INTER + INTRA:          -8.805
REMARK INTER:                  -8.265
REMARK INTRA:                  -0.541
REMARK UNBOUND:                -1.551
REMARK  Name = 
REMARK  12 active torsions:
REMARK  status: ('A' for Active; 'I' for Inactive)
REMARK    1  A    between atoms: C_1  and  C_2
REMARK    2  A    between atoms: C_2  and  N_3
REMARK    3  A    between atoms: N_3  and  C_4
REMARK    4  A    between atoms: C_4  and  C_5
REMARK    5  A    between atoms: C_6  and  C_8
REMARK    6  A    between atoms: C_11  and  N_12
REMARK    7  A    between atoms: N_12  and  C_13
REMARK    8  A    between atoms: C_13  and  C_14
REMARK    9  A    between atoms: C_14  and  C_15
REMARK   10  A    between atoms: C_14  and  C_16
REMARK   11  A    between atoms: C_14  and  C_17
REMARK   12  A    between atoms: C_21  and  C_22
REMARK                            x       y       z     vdW  Elec       q    Type
REMARK                         _______ _______ _______ _____ _____    ______ ____
ROOT
ATOM      1  N   UNL     1      46.444   8.703  13.459  0.00  0.00    +0.000 N 
ATOM      2  H   UNL     1      45.675   9.273  13.805  0.00  0.00    +0.000 HD
ENDROOT
BRANCH   1   6
ATOM      3  C   UNL     1      45.062   5.156  11.617  0.00  0.00    +0.000 A 
ATOM      4  C   UNL     1      44.428   6.369  11.359  0.00  0.00    +0.000 A 
ATOM      5  C   UNL     1      44.900   7.551  11.931  0.00  0.00    +0.000 A 
ATOM      6  C   UNL     1      45.963   7.545  12.837  0.00  0.00    +0.000 A 
ATOM      7  C   UNL     1      46.477   6.297  13.221  0.00  0.00    +0.000 A 
ATOM      8  C   UNL     1      46.043   5.111  12.610  0.00  0.00    +0.000 A 
BRANCH   3  10
ATOM      9  N   UNL     1      45.049   3.749   9.525  0.00  0.00    +0.000 N 
ATOM     10  C   UNL     1      44.698   3.912  10.890  0.00  0.00    +0.000 C 
ATOM     11  O   UNL     1      44.110   3.035  11.524  0.00  0.00    +0.000 OA
BRANCH   9  13
ATOM     12  C   UNL     1      45.425   1.444   8.682  0.00  0.00    +0.000 C 
ATOM     13  C   UNL     1      44.455   2.603   8.835  0.00  0.00    +0.000 C 
ENDBRANCH   9  13
BRANCH   9  14
ATOM     14  C   UNL     1      45.794   4.738   8.733  0.00  0.00    +0.000 C 
ATOM     15  C   UNL     1      46.577   4.241   7.531  0.00  0.00    +0.000 C 
ENDBRANCH   9  14
ENDBRANCH   3  10
ENDBRANCH   1   6
BRANCH   1  16
ATOM     16  C   UNL     1      47.588   8.600  14.374  0.00  0.00    +0.000 C 
BRANCH  16  17
ATOM     17  C   UNL     1      48.941   9.034  13.731  0.00  0.00    +0.000 C 
ATOM     18  C   UNL     1      48.926   8.634  12.234  0.00  0.00    +0.000 C 
ATOM     19  C   UNL     1      49.110  10.569  13.799  0.00  0.00    +0.000 C 
BRANCH  17  20
ATOM     20  C   UNL     1      50.110   8.387  14.519  0.00  0.00    +0.000 A 
ATOM     21  C   UNL     1      51.420   8.893  14.478  0.00  0.00    +0.000 A 
ATOM     22  C   UNL     1      52.448   8.318  15.233  0.00  0.00    +0.000 A 
ATOM     23  C   UNL     1      52.190   7.227  16.057  0.00  0.00    +0.000 A 
ATOM     24  C   UNL     1      50.900   6.700  16.124  0.00  0.00    +0.000 A 
ATOM     25  C   UNL     1      49.877   7.261  15.342  0.00  0.00    +0.000 A 
BRANCH  24  26
ATOM     26  C   UNL     1      50.657   5.553  17.040  0.00  0.00    +0.000 C 
ATOM     27  N   UNL     1      51.468   5.441  18.136  0.00  0.00    +0.000 N 
ATOM     28  O   UNL     1      49.800   4.710  16.805  0.00  0.00    +0.000 OA
ATOM     29  H   UNL     1      52.343   5.938  18.210  0.00  0.00    +0.000 HD
ATOM     30  H   UNL     1      51.377   4.581  18.663  0.00  0.00    +0.000 HD
ENDBRANCH  24  26
ENDBRANCH  17  20
ENDBRANCH  16  17
ENDBRANCH   1  16
TORSDOF 8
ENDMDL
