MODEL 1
REMARK VINA RESULT:    -7.304      0.000      0.000
REMARK INTER + INTRA:         -10.642
REMARK INTER:                  -9.866
REMARK INTRA:                  -0.776
REMARK UNBOUND:                -0.776
REMARK  Name = 
REMARK  7 active torsions:
REMARK  status: ('A' for Active; 'I' for Inactive)
REMARK    1  A    between atoms: C_1  and  O_2
REMARK    2  A    between atoms: O_2  and  C_3
REMARK    3  A    between atoms: C_3  and  C_4
REMARK    4  A    between atoms: C_6  and  C_7
REMARK    5  A    between atoms: C_7  and  N_8
REMARK    6  A    between atoms: C_9  and  C_11
REMARK    7  A    between atoms: C_24  and  C_26
REMARK                            x       y       z     vdW  Elec       q    Type
REMARK                         _______ _______ _______ _____ _____    ______ ____
ROOT
ATOM      1  C   UNL     1      46.127   7.778  13.206  0.00  0.00    +0.000 C 
ATOM      2  C   UNL     1      47.661   7.911  13.129  0.00  0.00    +0.000 C 
ATOM      3  C   UNL     1      48.374   6.736  13.843  0.00  0.00    +0.000 C 
ATOM      4  C   UNL     1      47.837   5.398  13.306  0.00  0.00    +0.000 C 
ATOM      5  C   UNL     1      46.300   5.340  13.315  0.00  0.00    +0.000 C 
ATOM      6  N   UNL     1      45.754   6.483  12.580  0.00  0.00    +0.000 N 
ATOM      7  C   UNL     1      45.167   6.416  11.307  0.00  0.00    +0.000 C 
ATOM      8  O   UNL     1      44.737   7.390  10.694  0.00  0.00    +0.000 OA
ENDROOT
BRANCH   7   9
ATOM      9  C   UNL     1      45.041   5.123  10.580  0.00  0.00    +0.000 A 
ATOM     10  C   UNL     1      44.224   4.120  11.116  0.00  0.00    +0.000 A 
ATOM     11  C   UNL     1      44.020   2.927  10.414  0.00  0.00    +0.000 A 
ATOM     12  C   UNL     1      44.644   2.729   9.179  0.00  0.00    +0.000 A 
ATOM     13  C   UNL     1      45.431   3.730   8.631  0.00  0.00    +0.000 A 
ATOM     14  C   UNL     1      45.592   4.936   9.309  0.00  0.00    +0.000 A 
ENDBRANCH   7   9
BRANCH   1  15
ATOM     15  C   UNL     1      45.438   9.083  12.744  0.00  0.00    +0.000 C 
BRANCH  15  17
ATOM     16  C   UNL     1      45.642  11.029  11.366  0.00  0.00    +0.000 C 
ATOM     17  O   UNL     1      46.305  10.062  12.161  0.00  0.00    +0.000 OA
ENDBRANCH  15  17
ENDBRANCH   1  15
BRANCH   3  18
ATOM     18  C   UNL     1      48.255   6.753  15.376  0.00  0.00    +0.000 C 
BRANCH  18  19
ATOM     19  N   UNL     1      49.369   6.110  16.025  0.00  0.00    +0.000 N 
ATOM     20  C   UNL     1      49.201   5.175  17.014  0.00  0.00    +0.000 C 
ATOM     21  O   UNL     1      48.088   4.816  17.391  0.00  0.00    +0.000 OA
ATOM     22  H   UNL     1      50.293   6.491  15.843  0.00  0.00    +0.000 HD
BRANCH  20  23
ATOM     23  C   UNL     1      50.417   4.589  17.576  0.00  0.00    +0.000 A 
ATOM     24  C   UNL     1      51.289   5.394  18.295  0.00  0.00    +0.000 A 
ATOM     25  S   UNL     1      52.625   4.552  18.932  0.00  0.00    +0.000 S 
ATOM     26  C   UNL     1      52.113   3.094  18.220  0.00  0.00    +0.000 A 
ATOM     27  N   UNL     1      52.839   1.953  18.366  0.00  0.00    +0.000 NA
ATOM     28  C   UNL     1      52.359   0.932  17.740  0.00  0.00    +0.000 A 
ATOM     29  N   UNL     1      51.213   0.943  16.987  0.00  0.00    +0.000 N 
ATOM     30  C   UNL     1      50.424   2.060  16.847  0.00  0.00    +0.000 A 
ATOM     31  O   UNL     1      49.367   2.018  16.224  0.00  0.00    +0.000 OA
ATOM     32  C   UNL     1      50.930   3.244  17.515  0.00  0.00    +0.000 A 
ATOM     33  H   UNL     1      50.883   0.102  16.538  0.00  0.00    +0.000 HD
ENDBRANCH  20  23
ENDBRANCH  18  19
ENDBRANCH   3  18
TORSDOF 6
ENDMDL
MODEL 2
REMARK VINA RESULT:    -7.283      3.341      8.954
REMARK INTER + INTRA:         -10.613
REMARK INTER:                  -9.472
REMARK INTRA:                  -1.141
REMARK UNBOUND:                -0.776
REMARK  Name = 
REMARK  7 active torsions:
REMARK  status: ('A' for Active; 'I' for Inactive)
REMARK    1  A    between atoms: C_1  and  O_2
REMARK    2  A    between atoms: O_2  and  C_3
REMARK    3  A    between atoms: C_3  and  C_4
REMARK    4  A    between atoms: C_6  and  C_7
REMARK    5  A    between atoms: C_7  and  N_8
REMARK    6  A    between atoms: C_9  and  C_11
REMARK    7  A    between atoms: C_24  and  C_26
REMARK                            x       y       z     vdW  Elec       q    Type
REMARK                         _______ _______ _______ _____ _____    ______ ____
ROOT
ATOM      1  C   UNL     1      49.455   5.597  16.684  0.00  0.00    +0.000 C 
ATOM      2  C   UNL     1      48.228   5.655  17.614  0.00  0.00    +0.000 C 
ATOM      3  C   UNL     1      47.687   4.240  17.939  0.00  0.00    +0.000 C 
ATOM      4  C   UNL     1      48.830   3.357  18.470  0.00  0.00    +0.000 C 
ATOM      5  C   UNL     1      50.069   3.396  17.560  0.00  0.00    +0.000 C 
ATOM      6  N   UNL     1      50.498   4.783  17.362  0.00  0.00    +0.000 N 
ATOM      7  C   UNL     1      51.631   5.368  17.948  0.00  0.00    +0.000 C 
ATOM      8  O   UNL     1      51.961   6.540  17.790  0.00  0.00    +0.000 OA
ENDROOT
BRANCH   7   9
ATOM      9  C   UNL     1      52.526   4.587  18.846  0.00  0.00    +0.000 A 
ATOM     10  C   UNL     1      53.635   3.933  18.298  0.00  0.00    +0.000 A 
ATOM     11  C   UNL     1      54.540   3.263  19.128  0.00  0.00    +0.000 A 
ATOM     12  C   UNL     1      54.330   3.236  20.509  0.00  0.00    +0.000 A 
ATOM     13  C   UNL     1      53.250   3.906  21.061  0.00  0.00    +0.000 A 
ATOM     14  C   UNL     1      52.379   4.614  20.236  0.00  0.00    +0.000 A 
ENDBRANCH   7   9
BRANCH   1  15
ATOM     15  C   UNL     1      49.806   7.004  16.146  0.00  0.00    +0.000 C 
BRANCH  15  17
ATOM     16  C   UNL     1      51.023   8.147  14.431  0.00  0.00    +0.000 C 
ATOM     17  O   UNL     1      50.180   7.058  14.766  0.00  0.00    +0.000 OA
ENDBRANCH  15  17
ENDBRANCH   1  15
BRANCH   3  18
ATOM     18  C   UNL     1      47.002   3.533  16.759  0.00  0.00    +0.000 C 
BRANCH  18  19
ATOM     19  N   UNL     1      46.523   4.457  15.762  0.00  0.00    +0.000 N 
ATOM     20  C   UNL     1      46.701   4.244  14.419  0.00  0.00    +0.000 C 
ATOM     21  O   UNL     1      47.262   3.240  13.986  0.00  0.00    +0.000 OA
ATOM     22  H   UNL     1      46.192   5.359  16.090  0.00  0.00    +0.000 HD
BRANCH  20  23
ATOM     23  C   UNL     1      46.152   5.254  13.517  0.00  0.00    +0.000 A 
ATOM     24  C   UNL     1      46.916   6.367  13.198  0.00  0.00    +0.000 A 
ATOM     25  S   UNL     1      46.161   7.418  12.091  0.00  0.00    +0.000 S 
ATOM     26  C   UNL     1      44.762   6.450  12.044  0.00  0.00    +0.000 A 
ATOM     27  N   UNL     1      43.694   6.803  11.281  0.00  0.00    +0.000 NA
ATOM     28  C   UNL     1      42.687   6.001  11.370  0.00  0.00    +0.000 A 
ATOM     29  N   UNL     1      42.651   4.873  12.149  0.00  0.00    +0.000 N 
ATOM     30  C   UNL     1      43.721   4.453  12.903  0.00  0.00    +0.000 A 
ATOM     31  O   UNL     1      43.681   3.400  13.533  0.00  0.00    +0.000 OA
ATOM     32  C   UNL     1      44.875   5.330  12.853  0.00  0.00    +0.000 A 
ATOM     33  H   UNL     1      41.835   4.278  12.159  0.00  0.00    +0.000 HD
ENDBRANCH  20  23
ENDBRANCH  18  19
ENDBRANCH   3  18
TORSDOF 6
ENDMDL
MODEL 3
REMARK VINA RESULT:    -6.616      1.802      2.212
REMARK INTER + INTRA:          -9.713
REMARK INTER:                  -8.581
REMARK INTRA:                  -1.132
REMARK UNBOUND:                -0.776
REMARK  Name = 
REMARK  7 active torsions:
REMARK  status: ('A' for Active; 'I' for Inactive)
REMARK    1  A    between atoms: C_1  and  O_2
REMARK    2  A    between atoms: O_2  and  C_3
REMARK    3  A    between atoms: C_3  and  C_4
REMARK    4  A    between atoms: C_6  and  C_7
REMARK    5  A    between atoms: C_7  and  N_8
REMARK    6  A    between atoms: C_9  and  C_11
REMARK    7  A    between atoms: C_24  and  C_26
REMARK                            x       y       z     vdW  Elec       q    Type
REMARK                         _______ _______ _______ _____ _____    ______ ____
ROOT
ATOM      1  C   UNL     1      46.088   8.576  12.832  0.00  0.00    +0.000 C 
ATOM      2  C   UNL     1      47.452   8.820  12.157  0.00  0.00    +0.000 C 
ATOM      3  C   UNL     1      48.547   7.885  12.727  0.00  0.00    +0.000 C 
ATOM      4  C   UNL     1      48.070   6.423  12.659  0.00  0.00    +0.000 C 
ATOM      5  C   UNL     1      46.667   6.239  13.261  0.00  0.00    +0.000 C 
ATOM      6  N   UNL     1      45.723   7.153  12.613  0.00  0.00    +0.000 N 
ATOM      7  C   UNL     1      44.739   6.772  11.688  0.00  0.00    +0.000 C 
ATOM      8  O   UNL     1      43.972   7.557  11.136  0.00  0.00    +0.000 OA
ENDROOT
BRANCH   7   9
ATOM      9  C   UNL     1      44.567   5.350  11.284  0.00  0.00    +0.000 A 
ATOM     10  C   UNL     1      43.696   4.536  12.018  0.00  0.00    +0.000 A 
ATOM     11  C   UNL     1      43.450   3.220  11.611  0.00  0.00    +0.000 A 
ATOM     12  C   UNL     1      44.085   2.711  10.475  0.00  0.00    +0.000 A 
ATOM     13  C   UNL     1      44.925   3.521   9.728  0.00  0.00    +0.000 A 
ATOM     14  C   UNL     1      45.129   4.845  10.107  0.00  0.00    +0.000 A 
ENDBRANCH   7   9
BRANCH   1  15
ATOM     15  C   UNL     1      45.084   9.694  12.462  0.00  0.00    +0.000 C 
BRANCH  15  17
ATOM     16  C   UNL     1      44.685  11.070  10.545  0.00  0.00    +0.000 C 
ATOM     17  O   UNL     1      45.585  10.700  11.576  0.00  0.00    +0.000 OA
ENDBRANCH  15  17
ENDBRANCH   1  15
BRANCH   3  18
ATOM     18  C   UNL     1      48.982   8.212  14.166  0.00  0.00    +0.000 C 
BRANCH  18  19
ATOM     19  N   UNL     1      49.369   7.038  14.907  0.00  0.00    +0.000 N 
ATOM     20  C   UNL     1      49.078   6.883  16.238  0.00  0.00    +0.000 C 
ATOM     21  O   UNL     1      48.451   7.728  16.872  0.00  0.00    +0.000 OA
ATOM     22  H   UNL     1      50.012   6.396  14.453  0.00  0.00    +0.000 HD
BRANCH  20  23
ATOM     23  C   UNL     1      49.516   5.636  16.864  0.00  0.00    +0.000 A 
ATOM     24  C   UNL     1      48.565   4.709  17.266  0.00  0.00    +0.000 A 
ATOM     25  S   UNL     1      49.234   3.287  17.921  0.00  0.00    +0.000 S 
ATOM     26  C   UNL     1      50.817   3.886  17.742  0.00  0.00    +0.000 A 
ATOM     27  N   UNL     1      51.890   3.151  18.137  0.00  0.00    +0.000 NA
ATOM     28  C   UNL     1      53.027   3.741  17.981  0.00  0.00    +0.000 A 
ATOM     29  N   UNL     1      53.191   4.999  17.459  0.00  0.00    +0.000 N 
ATOM     30  C   UNL     1      52.141   5.761  17.006  0.00  0.00    +0.000 A 
ATOM     31  O   UNL     1      52.328   6.853  16.479  0.00  0.00    +0.000 OA
ATOM     32  C   UNL     1      50.836   5.151  17.176  0.00  0.00    +0.000 A 
ATOM     33  H   UNL     1      54.113   5.395  17.348  0.00  0.00    +0.000 HD
ENDBRANCH  20  23
ENDBRANCH  18  19
ENDBRANCH   3  18
TORSDOF 6
ENDMDL
MODEL 4
REMARK VINA RESULT:    -6.273      3.592      9.046
REMARK INTER + INTRA:          -9.249
REMARK INTER:                  -7.983
REMARK INTRA:                  -1.266
REMARK UNBOUND:                -0.776
REMARK  Name = 
REMARK  7 active torsions:
REMARK  status: ('A' for Active; 'I' for Inactive)
REMARK    1  A    between atoms: C_1  and  O_2
REMARK    2  A    between atoms: O_2  and  C_3
REMARK    3  A    between atoms: C_3  and  C_4
REMARK    4  A    between atoms: C_6  and  C_7
REMARK    5  A    between atoms: C_7  and  N_8
REMARK    6  A    between atoms: C_9  and  C_11
REMARK    7  A    between atoms: C_24  and  C_26
REMARK                            x       y       z     vdW  Elec       q    Type
REMARK                         _______ _______ _______ _____ _____    ______ ____
ROOT
ATOM      1  C   UNL     1      48.281   6.192  17.390  0.00  0.00    +0.000 C 
ATOM      2  C   UNL     1      48.652   5.634  16.002  0.00  0.00    +0.000 C 
ATOM      3  C   UNL     1      49.307   6.715  15.107  0.00  0.00    +0.000 C 
ATOM      4  C   UNL     1      50.486   7.364  15.853  0.00  0.00    +0.000 C 
ATOM      5  C   UNL     1      50.098   7.826  17.268  0.00  0.00    +0.000 C 
ATOM      6  N   UNL     1      49.526   6.705  18.018  0.00  0.00    +0.000 N 
ATOM      7  C   UNL     1      50.174   6.015  19.054  0.00  0.00    +0.000 C 
ATOM      8  O   UNL     1      49.687   5.061  19.656  0.00  0.00    +0.000 OA
ENDROOT
BRANCH   7   9
ATOM      9  C   UNL     1      51.546   6.390  19.493  0.00  0.00    +0.000 A 
ATOM     10  C   UNL     1      51.700   7.192  20.630  0.00  0.00    +0.000 A 
ATOM     11  C   UNL     1      52.978   7.490  21.114  0.00  0.00    +0.000 A 
ATOM     12  C   UNL     1      54.107   6.997  20.454  0.00  0.00    +0.000 A 
ATOM     13  C   UNL     1      53.960   6.180  19.345  0.00  0.00    +0.000 A 
ATOM     14  C   UNL     1      52.685   5.844  18.895  0.00  0.00    +0.000 A 
ENDBRANCH   7   9
BRANCH   1  15
ATOM     15  C   UNL     1      47.383   5.196  18.162  0.00  0.00    +0.000 C 
BRANCH  15  17
ATOM     16  C   UNL     1      47.384   2.858  17.650  0.00  0.00    +0.000 C 
ATOM     17  O   UNL     1      46.831   4.134  17.377  0.00  0.00    +0.000 OA
ENDBRANCH  15  17
ENDBRANCH   1  15
BRANCH   3  18
ATOM     18  C   UNL     1      48.345   7.812  14.623  0.00  0.00    +0.000 C 
BRANCH  18  19
ATOM     19  N   UNL     1      47.137   7.274  14.050  0.00  0.00    +0.000 N 
ATOM     20  C   UNL     1      46.979   7.103  12.698  0.00  0.00    +0.000 C 
ATOM     21  O   UNL     1      47.869   7.379  11.897  0.00  0.00    +0.000 OA
ATOM     22  H   UNL     1      46.335   7.179  14.667  0.00  0.00    +0.000 HD
BRANCH  20  23
ATOM     23  C   UNL     1      45.709   6.533  12.253  0.00  0.00    +0.000 A 
ATOM     24  C   UNL     1      44.768   7.358  11.654  0.00  0.00    +0.000 A 
ATOM     25  S   UNL     1      43.369   6.534  11.139  0.00  0.00    +0.000 S 
ATOM     26  C   UNL     1      43.950   5.056  11.752  0.00  0.00    +0.000 A 
ATOM     27  N   UNL     1      43.209   3.920  11.652  0.00  0.00    +0.000 NA
ATOM     28  C   UNL     1      43.751   2.882  12.194  0.00  0.00    +0.000 A 
ATOM     29  N   UNL     1      44.970   2.872  12.821  0.00  0.00    +0.000 N 
ATOM     30  C   UNL     1      45.773   3.985  12.908  0.00  0.00    +0.000 A 
ATOM     31  O   UNL     1      46.890   3.925  13.413  0.00  0.00    +0.000 OA
ATOM     32  C   UNL     1      45.202   5.187  12.330  0.00  0.00    +0.000 A 
ATOM     33  H   UNL     1      45.344   2.018  13.209  0.00  0.00    +0.000 HD
ENDBRANCH  20  23
ENDBRANCH  18  19
ENDBRANCH   3  18
TORSDOF 6
ENDMDL
MODEL 5
REMARK VINA RESULT:    -5.876      2.601      3.370
REMARK INTER + INTRA:          -8.713
REMARK INTER:                  -7.854
REMARK INTRA:                  -0.859
REMARK UNBOUND:                -0.776
REMARK  Name = 
REMARK  7 active torsions:
REMARK  status: ('A' for Active; 'I' for Inactive)
REMARK    1  A    between atoms: C_1  and  O_2
REMARK    2  A    between atoms: O_2  and  C_3
REMARK    3  A    between atoms: C_3  and  C_4
REMARK    4  A    between atoms: C_6  and  C_7
REMARK    5  A    between atoms: C_7  and  N_8
REMARK    6  A    between atoms: C_9  and  C_11
REMARK    7  A    between atoms: C_24  and  C_26
REMARK                            x       y       z     vdW  Elec       q    Type
REMARK                         _______ _______ _______ _____ _____    ______ ____
ROOT
ATOM      1  C   UNL     1      46.849   9.101  12.363  0.00  0.00    +0.000 C 
ATOM      2  C   UNL     1      48.223   8.865  11.706  0.00  0.00    +0.000 C 
ATOM      3  C   UNL     1      49.164   8.045  12.625  0.00  0.00    +0.000 C 
ATOM      4  C   UNL     1      48.457   6.754  13.073  0.00  0.00    +0.000 C 
ATOM      5  C   UNL     1      47.053   7.024  13.639  0.00  0.00    +0.000 C 
ATOM      6  N   UNL     1      46.257   7.772  12.663  0.00  0.00    +0.000 N 
ATOM      7  C   UNL     1      45.209   7.237  11.898  0.00  0.00    +0.000 C 
ATOM      8  O   UNL     1      44.569   7.874  11.065  0.00  0.00    +0.000 OA
ENDROOT
BRANCH   7   9
ATOM      9  C   UNL     1      44.804   5.810  12.033  0.00  0.00    +0.000 A 
ATOM     10  C   UNL     1      43.807   5.472  12.956  0.00  0.00    +0.000 A 
ATOM     11  C   UNL     1      43.346   4.155  13.045  0.00  0.00    +0.000 A 
ATOM     12  C   UNL     1      43.892   3.168  12.219  0.00  0.00    +0.000 A 
ATOM     13  C   UNL     1      44.858   3.502  11.284  0.00  0.00    +0.000 A 
ATOM     14  C   UNL     1      45.279   4.824  11.163  0.00  0.00    +0.000 A 
ENDBRANCH   7   9
BRANCH   1  15
ATOM     15  C   UNL     1      46.032  10.146  11.569  0.00  0.00    +0.000 C 
BRANCH  15  17
ATOM     16  C   UNL     1      43.942  11.305  11.427  0.00  0.00    +0.000 C 
ATOM     17  O   UNL     1      44.920  10.716  12.267  0.00  0.00    +0.000 OA
ENDBRANCH  15  17
ENDBRANCH   1  15
BRANCH   3  18
ATOM     18  C   UNL     1      49.669   8.805  13.862  0.00  0.00    +0.000 C 
BRANCH  18  19
ATOM     19  N   UNL     1      49.200   8.227  15.096  0.00  0.00    +0.000 N 
ATOM     20  C   UNL     1      49.347   8.859  16.304  0.00  0.00    +0.000 C 
ATOM     21  O   UNL     1      49.870   9.967  16.402  0.00  0.00    +0.000 OA
ATOM     22  H   UNL     1      48.902   7.256  15.068  0.00  0.00    +0.000 HD
BRANCH  20  23
ATOM     23  C   UNL     1      48.811   8.168  17.475  0.00  0.00    +0.000 A 
ATOM     24  C   UNL     1      48.108   8.892  18.427  0.00  0.00    +0.000 A 
ATOM     25  S   UNL     1      47.498   7.935  19.698  0.00  0.00    +0.000 S 
ATOM     26  C   UNL     1      48.203   6.529  19.048  0.00  0.00    +0.000 A 
ATOM     27  N   UNL     1      48.074   5.329  19.675  0.00  0.00    +0.000 NA
ATOM     28  C   UNL     1      48.691   4.356  19.096  0.00  0.00    +0.000 A 
ATOM     29  N   UNL     1      49.422   4.469  17.941  0.00  0.00    +0.000 N 
ATOM     30  C   UNL     1      49.544   5.650  17.249  0.00  0.00    +0.000 A 
ATOM     31  O   UNL     1      50.146   5.702  16.180  0.00  0.00    +0.000 OA
ATOM     32  C   UNL     1      48.884   6.783  17.868  0.00  0.00    +0.000 A 
ATOM     33  H   UNL     1      49.866   3.661  17.530  0.00  0.00    +0.000 HD
ENDBRANCH  20  23
ENDBRANCH  18  19
ENDBRANCH   3  18
TORSDOF 6
ENDMDL
MODEL 6
REMARK VINA RESULT:    -5.844      3.562      8.296
REMARK INTER + INTRA:          -8.670
REMARK INTER:                  -7.954
REMARK INTRA:                  -0.716
REMARK UNBOUND:                -0.776
REMARK  Name = 
REMARK  7 active torsions:
REMARK  status: ('A' for Active; 'I' for Inactive)
REMARK    1  A    between atoms: C_1  and  O_2
REMARK    2  A    between atoms: O_2  and  C_3
REMARK    3  A    between atoms: C_3  and  C_4
REMARK    4  A    between atoms: C_6  and  C_7
REMARK    5  A    between atoms: C_7  and  N_8
REMARK    6  A    between atoms: C_9  and  C_11
REMARK    7  A    between atoms: C_24  and  C_26
REMARK                            x       y       z     vdW  Elec       q    Type
REMARK                         _______ _______ _______ _____ _____    ______ ____
ROOT
ATOM      1  C   UNL     1      50.639   8.013  14.391  0.00  0.00    +0.000 C 
ATOM      2  C   UNL     1      49.727   9.167  13.930  0.00  0.00    +0.000 C 
ATOM      3  C   UNL     1      48.355   8.647  13.431  0.00  0.00    +0.000 C 
ATOM      4  C   UNL     1      47.722   7.741  14.502  0.00  0.00    +0.000 C 
ATOM      5  C   UNL     1      48.695   6.660  15.001  0.00  0.00    +0.000 C 
ATOM      6  N   UNL     1      49.932   7.284  15.475  0.00  0.00    +0.000 N 
ATOM      7  C   UNL     1      50.304   7.414  16.822  0.00  0.00    +0.000 C 
ATOM      8  O   UNL     1      51.335   7.963  17.203  0.00  0.00    +0.000 OA
ENDROOT
BRANCH   7   9
ATOM      9  C   UNL     1      49.437   6.898  17.917  0.00  0.00    +0.000 A 
ATOM     10  C   UNL     1      48.406   7.708  18.405  0.00  0.00    +0.000 A 
ATOM     11  C   UNL     1      47.523   7.219  19.374  0.00  0.00    +0.000 A 
ATOM     12  C   UNL     1      47.677   5.920  19.865  0.00  0.00    +0.000 A 
ATOM     13  C   UNL     1      48.679   5.103  19.365  0.00  0.00    +0.000 A 
ATOM     14  C   UNL     1      49.525   5.576  18.365  0.00  0.00    +0.000 A 
ENDBRANCH   7   9
BRANCH   1  15
ATOM     15  C   UNL     1      52.086   8.513  14.615  0.00  0.00    +0.000 C 
BRANCH  15  17
ATOM     16  C   UNL     1      53.238  10.505  13.957  0.00  0.00    +0.000 C 
ATOM     17  O   UNL     1      52.229   9.929  14.769  0.00  0.00    +0.000 OA
ENDBRANCH  15  17
ENDBRANCH   1  15
BRANCH   3  18
ATOM     18  C   UNL     1      48.406   7.893  12.092  0.00  0.00    +0.000 C 
BRANCH  18  19
ATOM     19  N   UNL     1      47.525   6.753  12.065  0.00  0.00    +0.000 N 
ATOM     20  C   UNL     1      46.200   6.858  11.730  0.00  0.00    +0.000 C 
ATOM     21  O   UNL     1      45.691   7.930  11.411  0.00  0.00    +0.000 OA
ATOM     22  H   UNL     1      47.877   5.888  12.465  0.00  0.00    +0.000 HD
BRANCH  20  23
ATOM     23  C   UNL     1      45.424   5.620  11.727  0.00  0.00    +0.000 A 
ATOM     24  C   UNL     1      44.820   5.196  12.902  0.00  0.00    +0.000 A 
ATOM     25  S   UNL     1      43.905   3.771  12.722  0.00  0.00    +0.000 S 
ATOM     26  C   UNL     1      44.332   3.641  11.080  0.00  0.00    +0.000 A 
ATOM     27  N   UNL     1      43.884   2.604  10.322  0.00  0.00    +0.000 NA
ATOM     28  C   UNL     1      44.317   2.607   9.106  0.00  0.00    +0.000 A 
ATOM     29  N   UNL     1      45.152   3.556   8.575  0.00  0.00    +0.000 N 
ATOM     30  C   UNL     1      45.594   4.645   9.289  0.00  0.00    +0.000 A 
ATOM     31  O   UNL     1      46.282   5.514   8.763  0.00  0.00    +0.000 OA
ATOM     32  C   UNL     1      45.152   4.680  10.670  0.00  0.00    +0.000 A 
ATOM     33  H   UNL     1      45.438   3.509   7.608  0.00  0.00    +0.000 HD
ENDBRANCH  20  23
ENDBRANCH  18  19
ENDBRANCH   3  18
TORSDOF 6
ENDMDL
MODEL 7
REMARK VINA RESULT:    -5.719      1.962      2.236
REMARK INTER + INTRA:          -8.500
REMARK INTER:                  -7.631
REMARK INTRA:                  -0.869
REMARK UNBOUND:                -0.776
REMARK  Name = 
REMARK  7 active torsions:
REMARK  status: ('A' for Active; 'I' for Inactive)
REMARK    1  A    between atoms: C_1  and  O_2
REMARK    2  A    between atoms: O_2  and  C_3
REMARK    3  A    between atoms: C_3  and  C_4
REMARK    4  A    between atoms: C_6  and  C_7
REMARK    5  A    between atoms: C_7  and  N_8
REMARK    6  A    between atoms: C_9  and  C_11
REMARK    7  A    between atoms: C_24  and  C_26
REMARK                            x       y       z     vdW  Elec       q    Type
REMARK                         _______ _______ _______ _____ _____    ______ ____
ROOT
ATOM      1  C   UNL     1      46.068   8.099  13.048  0.00  0.00    +0.000 C 
ATOM      2  C   UNL     1      47.564   8.228  12.703  0.00  0.00    +0.000 C 
ATOM      3  C   UNL     1      48.415   7.162  13.439  0.00  0.00    +0.000 C 
ATOM      4  C   UNL     1      47.834   5.762  13.176  0.00  0.00    +0.000 C 
ATOM      5  C   UNL     1      46.320   5.699  13.445  0.00  0.00    +0.000 C 
ATOM      6  N   UNL     1      45.632   6.731  12.666  0.00  0.00    +0.000 N 
ATOM      7  C   UNL     1      44.849   6.492  11.526  0.00  0.00    +0.000 C 
ATOM      8  O   UNL     1      44.299   7.374  10.871  0.00  0.00    +0.000 OA
ENDROOT
BRANCH   7   9
ATOM      9  C   UNL     1      44.642   5.113  11.006  0.00  0.00    +0.000 A 
ATOM     10  C   UNL     1      43.781   4.249  11.694  0.00  0.00    +0.000 A 
ATOM     11  C   UNL     1      43.502   2.978  11.183  0.00  0.00    +0.000 A 
ATOM     12  C   UNL     1      44.093   2.561   9.987  0.00  0.00    +0.000 A 
ATOM     13  C   UNL     1      44.923   3.422   9.287  0.00  0.00    +0.000 A 
ATOM     14  C   UNL     1      45.160   4.705   9.773  0.00  0.00    +0.000 A 
ENDBRANCH   7   9
BRANCH   1  15
ATOM     15  C   UNL     1      45.278   9.328  12.539  0.00  0.00    +0.000 C 
BRANCH  15  17
ATOM     16  C   UNL     1      45.665  11.515  11.646  0.00  0.00    +0.000 C 
ATOM     17  O   UNL     1      45.953  10.130  11.563  0.00  0.00    +0.000 OA
ENDBRANCH  15  17
ENDBRANCH   1  15
BRANCH   3  18
ATOM     18  C   UNL     1      48.545   7.384  14.955  0.00  0.00    +0.000 C 
BRANCH  18  19
ATOM     19  N   UNL     1      49.698   6.723  15.513  0.00  0.00    +0.000 N 
ATOM     20  C   UNL     1      50.702   7.411  16.146  0.00  0.00    +0.000 C 
ATOM     21  O   UNL     1      50.666   8.630  16.293  0.00  0.00    +0.000 OA
ATOM     22  H   UNL     1      49.829   5.744  15.277  0.00  0.00    +0.000 HD
BRANCH  20  23
ATOM     23  C   UNL     1      51.806   6.615  16.679  0.00  0.00    +0.000 A 
ATOM     24  C   UNL     1      53.022   6.609  16.012  0.00  0.00    +0.000 A 
ATOM     25  S   UNL     1      54.222   5.684  16.790  0.00  0.00    +0.000 S 
ATOM     26  C   UNL     1      53.139   5.214  18.016  0.00  0.00    +0.000 A 
ATOM     27  N   UNL     1      53.536   4.384  19.017  0.00  0.00    +0.000 NA
ATOM     28  C   UNL     1      52.605   4.077  19.856  0.00  0.00    +0.000 A 
ATOM     29  N   UNL     1      51.312   4.530  19.790  0.00  0.00    +0.000 N 
ATOM     30  C   UNL     1      50.876   5.404  18.823  0.00  0.00    +0.000 A 
ATOM     31  O   UNL     1      49.732   5.847  18.835  0.00  0.00    +0.000 OA
ATOM     32  C   UNL     1      51.881   5.767  17.842  0.00  0.00    +0.000 A 
ATOM     33  H   UNL     1      50.636   4.264  20.492  0.00  0.00    +0.000 HD
ENDBRANCH  20  23
ENDBRANCH  18  19
ENDBRANCH   3  18
TORSDOF 6
ENDMDL
MODEL 8
REMARK VINA RESULT:    -5.532      2.625      4.198
REMARK INTER + INTRA:          -8.248
REMARK INTER:                  -7.045
REMARK INTRA:                  -1.204
REMARK UNBOUND:                -0.776
REMARK  Name = 
REMARK  7 active torsions:
REMARK  status: ('A' for Active; 'I' for Inactive)
REMARK    1  A    between atoms: C_1  and  O_2
REMARK    2  A    between atoms: O_2  and  C_3
REMARK    3  A    between atoms: C_3  and  C_4
REMARK    4  A    between atoms: C_6  and  C_7
REMARK    5  A    between atoms: C_7  and  N_8
REMARK    6  A    between atoms: C_9  and  C_11
REMARK    7  A    between atoms: C_24  and  C_26
REMARK                            x       y       z     vdW  Elec       q    Type
REMARK                         _______ _______ _______ _____ _____    ______ ____
ROOT
ATOM      1  C   UNL     1      48.353   5.900  14.987  0.00  0.00    +0.000 C 
ATOM      2  C   UNL     1      48.225   7.399  15.319  0.00  0.00    +0.000 C 
ATOM      3  C   UNL     1      48.684   8.288  14.136  0.00  0.00    +0.000 C 
ATOM      4  C   UNL     1      47.945   7.869  12.853  0.00  0.00    +0.000 C 
ATOM      5  C   UNL     1      48.020   6.353  12.606  0.00  0.00    +0.000 C 
ATOM      6  N   UNL     1      47.526   5.631  13.782  0.00  0.00    +0.000 N 
ATOM      7  C   UNL     1      46.292   4.968  13.861  0.00  0.00    +0.000 C 
ATOM      8  O   UNL     1      45.884   4.389  14.864  0.00  0.00    +0.000 OA
ENDROOT
BRANCH   7   9
ATOM      9  C   UNL     1      45.355   4.939  12.704  0.00  0.00    +0.000 A 
ATOM     10  C   UNL     1      45.268   3.775  11.930  0.00  0.00    +0.000 A 
ATOM     11  C   UNL     1      44.337   3.689  10.890  0.00  0.00    +0.000 A 
ATOM     12  C   UNL     1      43.498   4.771  10.613  0.00  0.00    +0.000 A 
ATOM     13  C   UNL     1      43.559   5.914  11.394  0.00  0.00    +0.000 A 
ATOM     14  C   UNL     1      44.453   5.978  12.461  0.00  0.00    +0.000 A 
ENDBRANCH   7   9
BRANCH   1  15
ATOM     15  C   UNL     1      48.164   5.037  16.257  0.00  0.00    +0.000 C 
BRANCH  15  17
ATOM     16  C   UNL     1      48.987   3.225  17.587  0.00  0.00    +0.000 C 
ATOM     17  O   UNL     1      49.276   4.203  16.603  0.00  0.00    +0.000 OA
ENDBRANCH  15  17
ENDBRANCH   1  15
BRANCH   3  18
ATOM     18  C   UNL     1      50.200   8.275  13.878  0.00  0.00    +0.000 C 
BRANCH  18  19
ATOM     19  N   UNL     1      50.905   7.388  14.769  0.00  0.00    +0.000 N 
ATOM     20  C   UNL     1      51.654   7.849  15.821  0.00  0.00    +0.000 C 
ATOM     21  O   UNL     1      51.750   9.047  16.079  0.00  0.00    +0.000 OA
ATOM     22  H   UNL     1      50.967   6.412  14.495  0.00  0.00    +0.000 HD
BRANCH  20  23
ATOM     23  C   UNL     1      52.304   6.839  16.655  0.00  0.00    +0.000 A 
ATOM     24  C   UNL     1      53.503   6.282  16.234  0.00  0.00    +0.000 A 
ATOM     25  S   UNL     1      54.161   5.168  17.341  0.00  0.00    +0.000 S 
ATOM     26  C   UNL     1      52.837   5.350  18.394  0.00  0.00    +0.000 A 
ATOM     27  N   UNL     1      52.765   4.644  19.554  0.00  0.00    +0.000 NA
ATOM     28  C   UNL     1      51.689   4.849  20.236  0.00  0.00    +0.000 A 
ATOM     29  N   UNL     1      50.679   5.700  19.869  0.00  0.00    +0.000 N 
ATOM     30  C   UNL     1      50.727   6.466  18.729  0.00  0.00    +0.000 A 
ATOM     31  O   UNL     1      49.839   7.271  18.465  0.00  0.00    +0.000 OA
ATOM     32  C   UNL     1      51.909   6.260  17.914  0.00  0.00    +0.000 A 
ATOM     33  H   UNL     1      49.870   5.827  20.460  0.00  0.00    +0.000 HD
ENDBRANCH  20  23
ENDBRANCH  18  19
ENDBRANCH   3  18
TORSDOF 6
ENDMDL
