MODEL 1
REMARK VINA RESULT:    -8.757      0.000      0.000
REMARK INTER + INTRA:         -12.773
REMARK INTER:                 -11.828
REMARK INTRA:                  -0.945
REMARK UNBOUND:                -0.945
REMARK  Name = 
REMARK  6 active torsions:
REMARK  status: ('A' for Active; 'I' for Inactive)
REMARK    1  A    between atoms: C_2  and  C_4
REMARK    2  A    between atoms: C_7  and  N_8
REMARK    3  A    between atoms: N_8  and  C_9
REMARK    4  A    between atoms: C_9  and  C_10
REMARK    5  A    between atoms: C_10  and  C_11
REMARK    6  A    between atoms: C_15  and  C_16
REMARK                            x       y       z     vdW  Elec       q    Type
REMARK                         _______ _______ _______ _____ _____    ______ ____
ROOT
ATOM      1  C   UNL     1      43.103   4.380  11.277  0.00  0.00    +0.000 C 
ENDROOT
BRANCH   1   2
ATOM      2  N   UNL     1      43.717   4.816  10.028  0.00  0.00    +0.000 N 
ATOM      3  H   UNL     1      43.138   5.414   9.441  0.00  0.00    +0.000 HD
BRANCH   2   7
ATOM      4  C   UNL     1      46.301   2.269   7.865  0.00  0.00    +0.000 A 
ATOM      5  C   UNL     1      45.389   1.717   8.766  0.00  0.00    +0.000 A 
ATOM      6  C   UNL     1      44.510   2.548   9.472  0.00  0.00    +0.000 A 
ATOM      7  C   UNL     1      44.499   3.934   9.278  0.00  0.00    +0.000 A 
ATOM      8  C   UNL     1      45.424   4.471   8.372  0.00  0.00    +0.000 A 
ATOM      9  C   UNL     1      46.321   3.653   7.676  0.00  0.00    +0.000 A 
BRANCH   4  11
ATOM     10  N   UNL     1      48.392   2.067   6.627  0.00  0.00    +0.000 N 
ATOM     11  C   UNL     1      47.297   1.434   7.146  0.00  0.00    +0.000 C 
ATOM     12  O   UNL     1      47.161   0.221   7.037  0.00  0.00    +0.000 OA
ATOM     13  H   UNL     1      49.100   1.473   6.215  0.00  0.00    +0.000 HD
ATOM     14  H   UNL     1      48.660   3.002   6.898  0.00  0.00    +0.000 HD
ENDBRANCH   4  11
ENDBRANCH   2   7
ENDBRANCH   1   2
BRANCH   1  15
ATOM     15  C   UNL     1      43.299   5.431  12.375  0.00  0.00    +0.000 C 
BRANCH  15  16
ATOM     16  C   UNL     1      44.755   5.573  12.732  0.00  0.00    +0.000 A 
ATOM     17  C   UNL     1      45.425   4.566  13.412  0.00  0.00    +0.000 A 
ATOM     18  N   UNL     1      46.739   4.605  13.700  0.00  0.00    +0.000 NA
ATOM     19  C   UNL     1      47.423   5.702  13.289  0.00  0.00    +0.000 A 
ATOM     20  C   UNL     1      46.873   6.791  12.606  0.00  0.00    +0.000 A 
ATOM     21  C   UNL     1      45.500   6.695  12.333  0.00  0.00    +0.000 A 
BRANCH  20  22
ATOM     22  C   UNL     1      47.696   7.950  12.187  0.00  0.00    +0.000 A 
ATOM     23  C   UNL     1      47.162   9.255  12.149  0.00  0.00    +0.000 A 
ATOM     24  C   UNL     1      47.943  10.360  11.784  0.00  0.00    +0.000 A 
ATOM     25  C   UNL     1      49.275  10.181  11.432  0.00  0.00    +0.000 A 
ATOM     26  C   UNL     1      49.811   8.902  11.448  0.00  0.00    +0.000 A 
ATOM     27  F   UNL     1      51.094   8.723  11.106  0.00  0.00    +0.000 F 
ATOM     28  C   UNL     1      49.044   7.799  11.820  0.00  0.00    +0.000 A 
ENDBRANCH  20  22
ENDBRANCH  15  16
ENDBRANCH   1  15
TORSDOF 6
ENDMDL
MODEL 2
REMARK VINA RESULT:    -8.655      1.696      2.030
REMARK INTER + INTRA:         -12.635
REMARK INTER:                 -11.696
REMARK INTRA:                  -0.940
REMARK UNBOUND:                -0.945
REMARK  Name = 
REMARK  6 active torsions:
REMARK  status: ('A' for Active; 'I' for Inactive)
REMARK    1  A    between atoms: C_2  and  C_4
REMARK    2  A    between atoms: C_7  and  N_8
REMARK    3  A    between atoms: N_8  and  C_9
REMARK    4  A    between atoms: C_9  and  C_10
REMARK    5  A    between atoms: C_10  and  C_11
REMARK    6  A    between atoms: C_15  and  C_16
REMARK                            x       y       z     vdW  Elec       q    Type
REMARK                         _______ _______ _______ _____ _____    ______ ____
ROOT
ATOM      1  C   UNL     1      43.633   3.254  11.839  0.00  0.00    +0.000 C 
ENDROOT
BRANCH   1   2
ATOM      2  N   UNL     1      43.660   3.921  10.543  0.00  0.00    +0.000 N 
ATOM      3  H   UNL     1      42.754   4.219  10.185  0.00  0.00    +0.000 HD
BRANCH   2   7
ATOM      4  C   UNL     1      46.418   2.684   7.593  0.00  0.00    +0.000 A 
ATOM      5  C   UNL     1      45.793   1.726   8.392  0.00  0.00    +0.000 A 
ATOM      6  C   UNL     1      44.858   2.120   9.358  0.00  0.00    +0.000 A 
ATOM      7  C   UNL     1      44.506   3.464   9.530  0.00  0.00    +0.000 A 
ATOM      8  C   UNL     1      45.147   4.413   8.720  0.00  0.00    +0.000 A 
ATOM      9  C   UNL     1      46.097   4.032   7.765  0.00  0.00    +0.000 A 
BRANCH   4  11
ATOM     10  N   UNL     1      47.466   2.990   5.412  0.00  0.00    +0.000 N 
ATOM     11  C   UNL     1      47.465   2.318   6.603  0.00  0.00    +0.000 C 
ATOM     12  O   UNL     1      48.310   1.466   6.846  0.00  0.00    +0.000 OA
ATOM     13  H   UNL     1      48.234   2.788   4.785  0.00  0.00    +0.000 HD
ATOM     14  H   UNL     1      46.953   3.847   5.269  0.00  0.00    +0.000 HD
ENDBRANCH   4  11
ENDBRANCH   2   7
ENDBRANCH   1   2
BRANCH   1  15
ATOM     15  C   UNL     1      43.657   4.278  12.979  0.00  0.00    +0.000 C 
BRANCH  15  16
ATOM     16  C   UNL     1      45.003   4.946  13.075  0.00  0.00    +0.000 A 
ATOM     17  C   UNL     1      46.128   4.231  13.462  0.00  0.00    +0.000 A 
ATOM     18  N   UNL     1      47.367   4.754  13.504  0.00  0.00    +0.000 NA
ATOM     19  C   UNL     1      47.496   6.054  13.140  0.00  0.00    +0.000 A 
ATOM     20  C   UNL     1      46.448   6.891  12.740  0.00  0.00    +0.000 A 
ATOM     21  C   UNL     1      45.180   6.292  12.716  0.00  0.00    +0.000 A 
BRANCH  20  22
ATOM     22  C   UNL     1      46.677   8.302  12.351  0.00  0.00    +0.000 A 
ATOM     23  C   UNL     1      47.969   8.782  12.053  0.00  0.00    +0.000 A 
ATOM     24  C   UNL     1      48.189  10.107  11.654  0.00  0.00    +0.000 A 
ATOM     25  C   UNL     1      47.120  10.989  11.560  0.00  0.00    +0.000 A 
ATOM     26  C   UNL     1      45.844  10.538  11.866  0.00  0.00    +0.000 A 
ATOM     27  F   UNL     1      44.810  11.384  11.780  0.00  0.00    +0.000 F 
ATOM     28  C   UNL     1      45.616   9.218  12.253  0.00  0.00    +0.000 A 
ENDBRANCH  20  22
ENDBRANCH  15  16
ENDBRANCH   1  15
TORSDOF 6
ENDMDL
MODEL 3
REMARK VINA RESULT:    -8.370      2.881      4.333
REMARK INTER + INTRA:         -12.250
REMARK INTER:                 -11.403
REMARK INTRA:                  -0.847
REMARK UNBOUND:                -0.945
REMARK  Name = 
REMARK  6 active torsions:
REMARK  status: ('A' for Active; 'I' for Inactive)
REMARK    1  A    between atoms: C_2  and  C_4
REMARK    2  A    between atoms: C_7  and  N_8
REMARK    3  A    between atoms: N_8  and  C_9
REMARK    4  A    between atoms: C_9  and  C_10
REMARK    5  A    between atoms: C_10  and  C_11
REMARK    6  A    between atoms: C_15  and  C_16
REMARK                            x       y       z     vdW  Elec       q    Type
REMARK                         _______ _______ _______ _____ _____    ______ ____
ROOT
ATOM      1  C   UNL     1      44.000   5.497  11.095  0.00  0.00    +0.000 C 
ENDROOT
BRANCH   1   2
ATOM      2  N   UNL     1      43.698   4.722   9.898  0.00  0.00    +0.000 N 
ATOM      3  H   UNL     1      42.833   4.185   9.931  0.00  0.00    +0.000 HD
BRANCH   2   7
ATOM      4  C   UNL     1      46.578   2.554   7.696  0.00  0.00    +0.000 A 
ATOM      5  C   UNL     1      46.560   3.948   7.617  0.00  0.00    +0.000 A 
ATOM      6  C   UNL     1      45.626   4.680   8.360  0.00  0.00    +0.000 A 
ATOM      7  C   UNL     1      44.714   4.050   9.215  0.00  0.00    +0.000 A 
ATOM      8  C   UNL     1      44.745   2.649   9.278  0.00  0.00    +0.000 A 
ATOM      9  C   UNL     1      45.660   1.905   8.525  0.00  0.00    +0.000 A 
BRANCH   4  11
ATOM     10  N   UNL     1      48.646   2.337   6.423  0.00  0.00    +0.000 N 
ATOM     11  C   UNL     1      47.505   1.734   6.874  0.00  0.00    +0.000 C 
ATOM     12  O   UNL     1      47.275   0.557   6.625  0.00  0.00    +0.000 OA
ATOM     13  H   UNL     1      49.305   1.742   5.937  0.00  0.00    +0.000 HD
ATOM     14  H   UNL     1      48.987   3.210   6.799  0.00  0.00    +0.000 HD
ENDBRANCH   4  11
ENDBRANCH   2   7
ENDBRANCH   1   2
BRANCH   1  15
ATOM     15  C   UNL     1      44.473   4.581  12.230  0.00  0.00    +0.000 C 
BRANCH  15  16
ATOM     16  C   UNL     1      45.753   5.091  12.837  0.00  0.00    +0.000 A 
ATOM     17  C   UNL     1      46.501   6.075  12.203  0.00  0.00    +0.000 A 
ATOM     18  N   UNL     1      47.616   6.618  12.725  0.00  0.00    +0.000 NA
ATOM     19  C   UNL     1      48.008   6.161  13.942  0.00  0.00    +0.000 A 
ATOM     20  C   UNL     1      47.356   5.170  14.683  0.00  0.00    +0.000 A 
ATOM     21  C   UNL     1      46.201   4.641  14.089  0.00  0.00    +0.000 A 
BRANCH  20  22
ATOM     22  C   UNL     1      47.849   4.733  16.010  0.00  0.00    +0.000 A 
ATOM     23  C   UNL     1      47.493   3.480  16.551  0.00  0.00    +0.000 A 
ATOM     24  C   UNL     1      47.981   3.047  17.791  0.00  0.00    +0.000 A 
ATOM     25  C   UNL     1      48.827   3.867  18.527  0.00  0.00    +0.000 A 
ATOM     26  C   UNL     1      49.175   5.109  18.018  0.00  0.00    +0.000 A 
ATOM     27  F   UNL     1      49.987   5.905  18.725  0.00  0.00    +0.000 F 
ATOM     28  C   UNL     1      48.701   5.543  16.780  0.00  0.00    +0.000 A 
ENDBRANCH  20  22
ENDBRANCH  15  16
ENDBRANCH   1  15
TORSDOF 6
ENDMDL
MODEL 4
REMARK VINA RESULT:    -8.112      3.739      7.383
REMARK INTER + INTRA:         -11.902
REMARK INTER:                 -11.329
REMARK INTRA:                  -0.573
REMARK UNBOUND:                -0.945
REMARK  Name = 
REMARK  6 active torsions:
REMARK  status: ('A' for Active; 'I' for Inactive)
REMARK    1  A    between atoms: C_2  and  C_4
REMARK    2  A    between atoms: C_7  and  N_8
REMARK    3  A    between atoms: N_8  and  C_9
REMARK    4  A    between atoms: C_9  and  C_10
REMARK    5  A    between atoms: C_10  and  C_11
REMARK    6  A    between atoms: C_15  and  C_16
REMARK                            x       y       z     vdW  Elec       q    Type
REMARK                         _______ _______ _______ _____ _____    ______ ____
ROOT
ATOM      1  C   UNL     1      47.445   7.151  11.781  0.00  0.00    +0.000 C 
ENDROOT
BRANCH   1   2
ATOM      2  N   UNL     1      48.011   7.440  13.093  0.00  0.00    +0.000 N 
ATOM      3  H   UNL     1      48.926   7.886  13.087  0.00  0.00    +0.000 HD
BRANCH   2   7
ATOM      4  C   UNL     1      47.705   4.478  16.090  0.00  0.00    +0.000 A 
ATOM      5  C   UNL     1      48.499   5.604  16.316  0.00  0.00    +0.000 A 
ATOM      6  C   UNL     1      48.590   6.605  15.341  0.00  0.00    +0.000 A 
ATOM      7  C   UNL     1      47.876   6.523  14.139  0.00  0.00    +0.000 A 
ATOM      8  C   UNL     1      47.087   5.384  13.928  0.00  0.00    +0.000 A 
ATOM      9  C   UNL     1      47.004   4.368  14.887  0.00  0.00    +0.000 A 
BRANCH   4  11
ATOM     10  N   UNL     1      48.810   2.903  17.587  0.00  0.00    +0.000 N 
ATOM     11  C   UNL     1      47.632   3.361  17.067  0.00  0.00    +0.000 C 
ATOM     12  O   UNL     1      46.561   2.879  17.415  0.00  0.00    +0.000 OA
ATOM     13  H   UNL     1      48.737   2.200  18.311  0.00  0.00    +0.000 HD
ATOM     14  H   UNL     1      49.675   3.419  17.516  0.00  0.00    +0.000 HD
ENDBRANCH   4  11
ENDBRANCH   2   7
ENDBRANCH   1   2
BRANCH   1  15
ATOM     15  C   UNL     1      45.935   7.417  11.770  0.00  0.00    +0.000 C 
BRANCH  15  16
ATOM     16  C   UNL     1      45.193   6.287  11.108  0.00  0.00    +0.000 A 
ATOM     17  C   UNL     1      43.837   6.095  11.334  0.00  0.00    +0.000 A 
ATOM     18  N   UNL     1      43.105   5.146  10.722  0.00  0.00    +0.000 NA
ATOM     19  C   UNL     1      43.754   4.347   9.838  0.00  0.00    +0.000 A 
ATOM     20  C   UNL     1      45.115   4.424   9.525  0.00  0.00    +0.000 A 
ATOM     21  C   UNL     1      45.827   5.431  10.192  0.00  0.00    +0.000 A 
BRANCH  20  22
ATOM     22  C   UNL     1      45.744   3.513   8.540  0.00  0.00    +0.000 A 
ATOM     23  C   UNL     1      46.371   4.008   7.377  0.00  0.00    +0.000 A 
ATOM     24  C   UNL     1      46.996   3.156   6.457  0.00  0.00    +0.000 A 
ATOM     25  C   UNL     1      46.995   1.783   6.673  0.00  0.00    +0.000 A 
ATOM     26  C   UNL     1      46.369   1.278   7.803  0.00  0.00    +0.000 A 
ATOM     27  F   UNL     1      46.361  -0.044   8.014  0.00  0.00    +0.000 F 
ATOM     28  C   UNL     1      45.754   2.121   8.728  0.00  0.00    +0.000 A 
ENDBRANCH  20  22
ENDBRANCH  15  16
ENDBRANCH   1  15
TORSDOF 6
ENDMDL
MODEL 5
REMARK VINA RESULT:    -7.850      3.609      7.024
REMARK INTER + INTRA:         -11.549
REMARK INTER:                 -10.713
REMARK INTRA:                  -0.835
REMARK UNBOUND:                -0.945
REMARK  Name = 
REMARK  6 active torsions:
REMARK  status: ('A' for Active; 'I' for Inactive)
REMARK    1  A    between atoms: C_2  and  C_4
REMARK    2  A    between atoms: C_7  and  N_8
REMARK    3  A    between atoms: N_8  and  C_9
REMARK    4  A    between atoms: C_9  and  C_10
REMARK    5  A    between atoms: C_10  and  C_11
REMARK    6  A    between atoms: C_15  and  C_16
REMARK                            x       y       z     vdW  Elec       q    Type
REMARK                         _______ _______ _______ _____ _____    ______ ____
ROOT
ATOM      1  C   UNL     1      44.906   6.645  12.873  0.00  0.00    +0.000 C 
ENDROOT
BRANCH   1   2
ATOM      2  N   UNL     1      45.453   7.996  12.840  0.00  0.00    +0.000 N 
ATOM      3  H   UNL     1      44.847   8.705  12.431  0.00  0.00    +0.000 HD
BRANCH   2   7
ATOM      4  C   UNL     1      49.492   8.459  11.691  0.00  0.00    +0.000 A 
ATOM      5  C   UNL     1      48.652   9.574  11.713  0.00  0.00    +0.000 A 
ATOM      6  C   UNL     1      47.317   9.439  12.114  0.00  0.00    +0.000 A 
ATOM      7  C   UNL     1      46.799   8.206  12.529  0.00  0.00    +0.000 A 
ATOM      8  C   UNL     1      47.656   7.097  12.498  0.00  0.00    +0.000 A 
ATOM      9  C   UNL     1      48.986   7.216  12.079  0.00  0.00    +0.000 A 
BRANCH   4  11
ATOM     10  N   UNL     1      51.560   7.366  11.004  0.00  0.00    +0.000 N 
ATOM     11  C   UNL     1      50.894   8.542  11.208  0.00  0.00    +0.000 C 
ATOM     12  O   UNL     1      51.432   9.618  10.977  0.00  0.00    +0.000 OA
ATOM     13  H   UNL     1      52.483   7.439  10.597  0.00  0.00    +0.000 HD
ATOM     14  H   UNL     1      51.089   6.475  10.949  0.00  0.00    +0.000 HD
ENDBRANCH   4  11
ENDBRANCH   2   7
ENDBRANCH   1   2
BRANCH   1  15
ATOM     15  C   UNL     1      43.950   6.417  11.697  0.00  0.00    +0.000 C 
BRANCH  15  16
ATOM     16  C   UNL     1      43.996   4.986  11.233  0.00  0.00    +0.000 A 
ATOM     17  C   UNL     1      43.182   4.021  11.813  0.00  0.00    +0.000 A 
ATOM     18  N   UNL     1      43.129   2.742  11.399  0.00  0.00    +0.000 NA
ATOM     19  C   UNL     1      43.925   2.403  10.354  0.00  0.00    +0.000 A 
ATOM     20  C   UNL     1      44.797   3.269   9.686  0.00  0.00    +0.000 A 
ATOM     21  C   UNL     1      44.810   4.588  10.160  0.00  0.00    +0.000 A 
BRANCH  20  22
ATOM     22  C   UNL     1      45.629   2.816   8.546  0.00  0.00    +0.000 A 
ATOM     23  C   UNL     1      46.100   3.723   7.574  0.00  0.00    +0.000 A 
ATOM     24  C   UNL     1      46.913   3.308   6.511  0.00  0.00    +0.000 A 
ATOM     25  C   UNL     1      47.261   1.969   6.388  0.00  0.00    +0.000 A 
ATOM     26  C   UNL     1      46.793   1.061   7.325  0.00  0.00    +0.000 A 
ATOM     27  F   UNL     1      47.123  -0.233   7.209  0.00  0.00    +0.000 F 
ATOM     28  C   UNL     1      45.993   1.468   8.391  0.00  0.00    +0.000 A 
ENDBRANCH  20  22
ENDBRANCH  15  16
ENDBRANCH   1  15
TORSDOF 6
ENDMDL
MODEL 6
REMARK VINA RESULT:    -7.516      4.479      8.163
REMARK INTER + INTRA:         -11.097
REMARK INTER:                 -10.539
REMARK INTRA:                  -0.557
REMARK UNBOUND:                -0.945
REMARK  Name = 
REMARK  6 active torsions:
REMARK  status: ('A' for Active; 'I' for Inactive)
REMARK    1  A    between atoms: C_2  and  C_4
REMARK    2  A    between atoms: C_7  and  N_8
REMARK    3  A    between atoms: N_8  and  C_9
REMARK    4  A    between atoms: C_9  and  C_10
REMARK    5  A    between atoms: C_10  and  C_11
REMARK    6  A    between atoms: C_15  and  C_16
REMARK                            x       y       z     vdW  Elec       q    Type
REMARK                         _______ _______ _______ _____ _____    ______ ____
ROOT
ATOM      1  C   UNL     1      46.755   4.539  13.753  0.00  0.00    +0.000 C 
ENDROOT
BRANCH   1   2
ATOM      2  N   UNL     1      46.526   4.232  15.159  0.00  0.00    +0.000 N 
ATOM      3  H   UNL     1      45.695   4.654  15.570  0.00  0.00    +0.000 HD
BRANCH   2   7
ATOM      4  C   UNL     1      49.901   3.959  17.686  0.00  0.00    +0.000 A 
ATOM      5  C   UNL     1      49.422   5.217  17.314  0.00  0.00    +0.000 A 
ATOM      6  C   UNL     1      48.290   5.322  16.496  0.00  0.00    +0.000 A 
ATOM      7  C   UNL     1      47.596   4.188  16.057  0.00  0.00    +0.000 A 
ATOM      8  C   UNL     1      48.094   2.934  16.438  0.00  0.00    +0.000 A 
ATOM      9  C   UNL     1      49.236   2.816  17.238  0.00  0.00    +0.000 A 
BRANCH   4  11
ATOM     10  N   UNL     1      51.166   4.398  19.723  0.00  0.00    +0.000 N 
ATOM     11  C   UNL     1      51.137   3.799  18.495  0.00  0.00    +0.000 C 
ATOM     12  O   UNL     1      52.087   3.138  18.095  0.00  0.00    +0.000 OA
ATOM     13  H   UNL     1      51.980   4.210  20.294  0.00  0.00    +0.000 HD
ATOM     14  H   UNL     1      50.335   4.739  20.184  0.00  0.00    +0.000 HD
ENDBRANCH   4  11
ENDBRANCH   2   7
ENDBRANCH   1   2
BRANCH   1  15
ATOM     15  C   UNL     1      45.772   5.608  13.263  0.00  0.00    +0.000 C 
BRANCH  15  16
ATOM     16  C   UNL     1      45.030   5.138  12.040  0.00  0.00    +0.000 A 
ATOM     17  C   UNL     1      43.699   5.477  11.839  0.00  0.00    +0.000 A 
ATOM     18  N   UNL     1      43.001   5.145  10.737  0.00  0.00    +0.000 NA
ATOM     19  C   UNL     1      43.661   4.440   9.784  0.00  0.00    +0.000 A 
ATOM     20  C   UNL     1      44.994   4.024   9.862  0.00  0.00    +0.000 A 
ATOM     21  C   UNL     1      45.670   4.399  11.032  0.00  0.00    +0.000 A 
BRANCH  20  22
ATOM     22  C   UNL     1      45.641   3.260   8.770  0.00  0.00    +0.000 A 
ATOM     23  C   UNL     1      46.191   3.909   7.645  0.00  0.00    +0.000 A 
ATOM     24  C   UNL     1      46.833   3.195   6.624  0.00  0.00    +0.000 A 
ATOM     25  C   UNL     1      46.925   1.811   6.698  0.00  0.00    +0.000 A 
ATOM     26  C   UNL     1      46.376   1.156   7.790  0.00  0.00    +0.000 A 
ATOM     27  F   UNL     1      46.459  -0.179   7.866  0.00  0.00    +0.000 F 
ATOM     28  C   UNL     1      45.745   1.860   8.815  0.00  0.00    +0.000 A 
ENDBRANCH  20  22
ENDBRANCH  15  16
ENDBRANCH   1  15
TORSDOF 6
ENDMDL
MODEL 7
REMARK VINA RESULT:    -7.486      1.782      2.417
REMARK INTER + INTRA:         -11.057
REMARK INTER:                 -10.174
REMARK INTRA:                  -0.883
REMARK UNBOUND:                -0.945
REMARK  Name = 
REMARK  6 active torsions:
REMARK  status: ('A' for Active; 'I' for Inactive)
REMARK    1  A    between atoms: C_2  and  C_4
REMARK    2  A    between atoms: C_7  and  N_8
REMARK    3  A    between atoms: N_8  and  C_9
REMARK    4  A    between atoms: C_9  and  C_10
REMARK    5  A    between atoms: C_10  and  C_11
REMARK    6  A    between atoms: C_15  and  C_16
REMARK                            x       y       z     vdW  Elec       q    Type
REMARK                         _______ _______ _______ _____ _____    ______ ____
ROOT
ATOM      1  C   UNL     1      43.712   4.044  11.544  0.00  0.00    +0.000 C 
ENDROOT
BRANCH   1   2
ATOM      2  N   UNL     1      43.663   3.049  10.479  0.00  0.00    +0.000 N 
ATOM      3  H   UNL     1      43.386   2.112  10.767  0.00  0.00    +0.000 HD
BRANCH   2   7
ATOM      4  C   UNL     1      46.477   2.805   7.338  0.00  0.00    +0.000 A 
ATOM      5  C   UNL     1      45.883   4.034   7.633  0.00  0.00    +0.000 A 
ATOM      6  C   UNL     1      44.966   4.134   8.687  0.00  0.00    +0.000 A 
ATOM      7  C   UNL     1      44.645   3.029   9.485  0.00  0.00    +0.000 A 
ATOM      8  C   UNL     1      45.249   1.803   9.171  0.00  0.00    +0.000 A 
ATOM      9  C   UNL     1      46.151   1.686   8.108  0.00  0.00    +0.000 A 
BRANCH   4  11
ATOM     10  N   UNL     1      48.653   2.152   6.451  0.00  0.00    +0.000 N 
ATOM     11  C   UNL     1      47.403   2.638   6.187  0.00  0.00    +0.000 C 
ATOM     12  O   UNL     1      47.059   2.901   5.042  0.00  0.00    +0.000 OA
ATOM     13  H   UNL     1      49.240   1.965   5.649  0.00  0.00    +0.000 HD
ATOM     14  H   UNL     1      48.890   1.702   7.324  0.00  0.00    +0.000 HD
ENDBRANCH   4  11
ENDBRANCH   2   7
ENDBRANCH   1   2
BRANCH   1  15
ATOM     15  C   UNL     1      45.133   4.170  12.105  0.00  0.00    +0.000 C 
BRANCH  15  16
ATOM     16  C   UNL     1      45.601   5.601  12.074  0.00  0.00    +0.000 A 
ATOM     17  C   UNL     1      44.698   6.643  11.912  0.00  0.00    +0.000 A 
ATOM     18  N   UNL     1      45.044   7.943  11.942  0.00  0.00    +0.000 NA
ATOM     19  C   UNL     1      46.356   8.222  12.146  0.00  0.00    +0.000 A 
ATOM     20  C   UNL     1      47.369   7.273  12.314  0.00  0.00    +0.000 A 
ATOM     21  C   UNL     1      46.950   5.936  12.273  0.00  0.00    +0.000 A 
BRANCH  20  22
ATOM     22  C   UNL     1      48.780   7.665  12.539  0.00  0.00    +0.000 A 
ATOM     23  C   UNL     1      49.639   7.972  11.463  0.00  0.00    +0.000 A 
ATOM     24  C   UNL     1      50.965   8.375  11.670  0.00  0.00    +0.000 A 
ATOM     25  C   UNL     1      51.468   8.464  12.962  0.00  0.00    +0.000 A 
ATOM     26  C   UNL     1      50.643   8.150  14.031  0.00  0.00    +0.000 A 
ATOM     27  F   UNL     1      51.123   8.232  15.279  0.00  0.00    +0.000 F 
ATOM     28  C   UNL     1      49.319   7.759  13.834  0.00  0.00    +0.000 A 
ENDBRANCH  20  22
ENDBRANCH  15  16
ENDBRANCH   1  15
TORSDOF 6
ENDMDL
MODEL 8
REMARK VINA RESULT:    -7.110      3.983      7.675
REMARK INTER + INTRA:         -10.548
REMARK INTER:                  -9.471
REMARK INTRA:                  -1.078
REMARK UNBOUND:                -0.945
REMARK  Name = 
REMARK  6 active torsions:
REMARK  status: ('A' for Active; 'I' for Inactive)
REMARK    1  A    between atoms: C_2  and  C_4
REMARK    2  A    between atoms: C_7  and  N_8
REMARK    3  A    between atoms: N_8  and  C_9
REMARK    4  A    between atoms: C_9  and  C_10
REMARK    5  A    between atoms: C_10  and  C_11
REMARK    6  A    between atoms: C_15  and  C_16
REMARK                            x       y       z     vdW  Elec       q    Type
REMARK                         _______ _______ _______ _____ _____    ______ ____
ROOT
ATOM      1  C   UNL     1      49.497   7.298  12.873  0.00  0.00    +0.000 C 
ENDROOT
BRANCH   1   2
ATOM      2  N   UNL     1      49.567   7.566  14.305  0.00  0.00    +0.000 N 
ATOM      3  H   UNL     1      50.434   7.992  14.628  0.00  0.00    +0.000 HD
BRANCH   2   7
ATOM      4  C   UNL     1      48.075   4.587  16.902  0.00  0.00    +0.000 A 
ATOM      5  C   UNL     1      49.136   5.393  17.319  0.00  0.00    +0.000 A 
ATOM      6  C   UNL     1      49.625   6.400  16.478  0.00  0.00    +0.000 A 
ATOM      7  C   UNL     1      49.055   6.646  15.223  0.00  0.00    +0.000 A 
ATOM      8  C   UNL     1      47.993   5.824  14.819  0.00  0.00    +0.000 A 
ATOM      9  C   UNL     1      47.509   4.801  15.644  0.00  0.00    +0.000 A 
BRANCH   4  11
ATOM     10  N   UNL     1      48.294   3.126  18.842  0.00  0.00    +0.000 N 
ATOM     11  C   UNL     1      47.569   3.464  17.733  0.00  0.00    +0.000 C 
ATOM     12  O   UNL     1      46.532   2.874  17.456  0.00  0.00    +0.000 OA
ATOM     13  H   UNL     1      47.893   2.417  19.441  0.00  0.00    +0.000 HD
ATOM     14  H   UNL     1      49.004   3.728  19.234  0.00  0.00    +0.000 HD
ENDBRANCH   4  11
ENDBRANCH   2   7
ENDBRANCH   1   2
BRANCH   1  15
ATOM     15  C   UNL     1      48.719   8.403  12.151  0.00  0.00    +0.000 C 
BRANCH  15  16
ATOM     16  C   UNL     1      47.278   8.010  11.957  0.00  0.00    +0.000 A 
ATOM     17  C   UNL     1      46.250   8.888  12.276  0.00  0.00    +0.000 A 
ATOM     18  N   UNL     1      44.948   8.622  12.064  0.00  0.00    +0.000 NA
ATOM     19  C   UNL     1      44.652   7.422  11.504  0.00  0.00    +0.000 A 
ATOM     20  C   UNL     1      45.585   6.444  11.144  0.00  0.00    +0.000 A 
ATOM     21  C   UNL     1      46.925   6.776  11.388  0.00  0.00    +0.000 A 
BRANCH  20  22
ATOM     22  C   UNL     1      45.175   5.159  10.530  0.00  0.00    +0.000 A 
ATOM     23  C   UNL     1      45.572   4.809   9.222  0.00  0.00    +0.000 A 
ATOM     24  C   UNL     1      45.215   3.583   8.647  0.00  0.00    +0.000 A 
ATOM     25  C   UNL     1      44.437   2.682   9.363  0.00  0.00    +0.000 A 
ATOM     26  C   UNL     1      44.024   3.016  10.644  0.00  0.00    +0.000 A 
ATOM     27  F   UNL     1      43.271   2.153  11.339  0.00  0.00    +0.000 F 
ATOM     28  C   UNL     1      44.384   4.230  11.227  0.00  0.00    +0.000 A 
ENDBRANCH  20  22
ENDBRANCH  15  16
ENDBRANCH   1  15
TORSDOF 6
ENDMDL
MODEL 9
REMARK VINA RESULT:    -6.439      3.386      7.308
REMARK INTER + INTRA:          -9.642
REMARK INTER:                  -8.769
REMARK INTRA:                  -0.873
REMARK UNBOUND:                -0.945
REMARK  Name = 
REMARK  6 active torsions:
REMARK  status: ('A' for Active; 'I' for Inactive)
REMARK    1  A    between atoms: C_2  and  C_4
REMARK    2  A    between atoms: C_7  and  N_8
REMARK    3  A    between atoms: N_8  and  C_9
REMARK    4  A    between atoms: C_9  and  C_10
REMARK    5  A    between atoms: C_10  and  C_11
REMARK    6  A    between atoms: C_15  and  C_16
REMARK                            x       y       z     vdW  Elec       q    Type
REMARK                         _______ _______ _______ _____ _____    ______ ____
ROOT
ATOM      1  C   UNL     1      44.883   4.962  13.687  0.00  0.00    +0.000 C 
ENDROOT
BRANCH   1   2
ATOM      2  N   UNL     1      46.282   5.367  13.757  0.00  0.00    +0.000 N 
ATOM      3  H   UNL     1      46.784   5.067  14.591  0.00  0.00    +0.000 HD
BRANCH   2   7
ATOM      4  C   UNL     1      47.549   9.105  12.250  0.00  0.00    +0.000 A 
ATOM      5  C   UNL     1      46.205   8.917  12.578  0.00  0.00    +0.000 A 
ATOM      6  C   UNL     1      45.776   7.691  13.101  0.00  0.00    +0.000 A 
ATOM      7  C   UNL     1      46.672   6.641  13.335  0.00  0.00    +0.000 A 
ATOM      8  C   UNL     1      48.017   6.847  12.996  0.00  0.00    +0.000 A 
ATOM      9  C   UNL     1      48.454   8.061  12.454  0.00  0.00    +0.000 A 
BRANCH   4  11
ATOM     10  N   UNL     1      49.330  10.728  11.879  0.00  0.00    +0.000 N 
ATOM     11  C   UNL     1      48.036  10.364  11.630  0.00  0.00    +0.000 C 
ATOM     12  O   UNL     1      47.320  11.042  10.903  0.00  0.00    +0.000 OA
ATOM     13  H   UNL     1      49.670  11.542  11.383  0.00  0.00    +0.000 HD
ATOM     14  H   UNL     1      50.012  10.090  12.262  0.00  0.00    +0.000 HD
ENDBRANCH   4  11
ENDBRANCH   2   7
ENDBRANCH   1   2
BRANCH   1  15
ATOM     15  C   UNL     1      44.741   3.625  12.952  0.00  0.00    +0.000 C 
BRANCH  15  16
ATOM     16  C   UNL     1      44.499   3.839  11.482  0.00  0.00    +0.000 A 
ATOM     17  C   UNL     1      43.563   4.764  11.041  0.00  0.00    +0.000 A 
ATOM     18  N   UNL     1      43.348   5.049   9.743  0.00  0.00    +0.000 NA
ATOM     19  C   UNL     1      44.105   4.382   8.836  0.00  0.00    +0.000 A 
ATOM     20  C   UNL     1      45.073   3.420   9.142  0.00  0.00    +0.000 A 
ATOM     21  C   UNL     1      45.253   3.164  10.509  0.00  0.00    +0.000 A 
BRANCH  20  22
ATOM     22  C   UNL     1      45.862   2.741   8.087  0.00  0.00    +0.000 A 
ATOM     23  C   UNL     1      46.331   1.421   8.254  0.00  0.00    +0.000 A 
ATOM     24  C   UNL     1      47.050   0.761   7.249  0.00  0.00    +0.000 A 
ATOM     25  C   UNL     1      47.330   1.415   6.055  0.00  0.00    +0.000 A 
ATOM     26  C   UNL     1      46.891   2.718   5.880  0.00  0.00    +0.000 A 
ATOM     27  F   UNL     1      47.162   3.355   4.733  0.00  0.00    +0.000 F 
ATOM     28  C   UNL     1      46.166   3.378   6.872  0.00  0.00    +0.000 A 
ENDBRANCH  20  22
ENDBRANCH  15  16
ENDBRANCH   1  15
TORSDOF 6
ENDMDL
