MODEL 1
REMARK VINA RESULT:    -8.661      0.000      0.000
REMARK INTER + INTRA:         -12.220
REMARK INTER:                 -11.192
REMARK INTRA:                  -1.028
REMARK UNBOUND:                -1.028
REMARK  Name = 
REMARK  5 active torsions:
REMARK  status: ('A' for Active; 'I' for Inactive)
REMARK    1  A    between atoms: C_2  and  C_4
REMARK    2  A    between atoms: C_7  and  O_8
REMARK    3  A    between atoms: O_8  and  C_9
REMARK    4  A    between atoms: C_9  and  C_10
REMARK    5  A    between atoms: C_14  and  C_15
REMARK                            x       y       z     vdW  Elec       q    Type
REMARK                         _______ _______ _______ _____ _____    ______ ____
ROOT
ATOM      1  C   UNL     1      43.450   4.511  11.262  0.00  0.00    +0.000 C 
ENDROOT
BRANCH   1   2
ATOM      2  C   UNL     1      44.695   4.908  12.024  0.00  0.00    +0.000 A 
ATOM      3  C   UNL     1      45.309   3.973  12.867  0.00  0.00    +0.000 A 
ATOM      4  C   UNL     1      46.501   4.281  13.513  0.00  0.00    +0.000 A 
ATOM      5  C   UNL     1      47.107   5.521  13.305  0.00  0.00    +0.000 A 
ATOM      6  C   UNL     1      46.542   6.477  12.440  0.00  0.00    +0.000 A 
ATOM      7  C   UNL     1      45.322   6.147  11.817  0.00  0.00    +0.000 A 
BRANCH   6   8
ATOM      8  C   UNL     1      47.225   7.758  12.164  0.00  0.00    +0.000 A 
ATOM      9  C   UNL     1      46.589   8.993  12.355  0.00  0.00    +0.000 A 
ATOM     10  N   UNL     1      47.152  10.211  12.140  0.00  0.00    +0.000 NA
ATOM     11  C   UNL     1      48.433  10.207  11.718  0.00  0.00    +0.000 A 
ATOM     12  C   UNL     1      49.160   9.051  11.503  0.00  0.00    +0.000 A 
ATOM     13  F   UNL     1      50.431   9.111  11.092  0.00  0.00    +0.000 F 
ATOM     14  C   UNL     1      48.554   7.820  11.721  0.00  0.00    +0.000 A 
ENDBRANCH   6   8
ENDBRANCH   1   2
BRANCH   1  15
ATOM     15  O   UNL     1      43.601   4.699   9.852  0.00  0.00    +0.000 OA
BRANCH  15  19
ATOM     16  C   UNL     1      46.330   2.287   7.806  0.00  0.00    +0.000 A 
ATOM     17  C   UNL     1      45.442   1.679   8.698  0.00  0.00    +0.000 A 
ATOM     18  C   UNL     1      44.514   2.456   9.403  0.00  0.00    +0.000 A 
ATOM     19  C   UNL     1      44.468   3.842   9.225  0.00  0.00    +0.000 A 
ATOM     20  C   UNL     1      45.370   4.444   8.344  0.00  0.00    +0.000 A 
ATOM     21  C   UNL     1      46.303   3.674   7.642  0.00  0.00    +0.000 A 
BRANCH  16  23
ATOM     22  N   UNL     1      48.440   2.149   6.597  0.00  0.00    +0.000 N 
ATOM     23  C   UNL     1      47.327   1.489   7.045  0.00  0.00    +0.000 C 
ATOM     24  O   UNL     1      47.183   0.291   6.855  0.00  0.00    +0.000 OA
ATOM     25  H   UNL     1      49.157   1.574   6.175  0.00  0.00    +0.000 HD
ATOM     26  H   UNL     1      48.713   3.051   6.955  0.00  0.00    +0.000 HD
ENDBRANCH  16  23
ENDBRANCH  15  19
ENDBRANCH   1  15
TORSDOF 5
ENDMDL
MODEL 2
REMARK VINA RESULT:    -8.605      2.824      3.896
REMARK INTER + INTRA:         -12.147
REMARK INTER:                 -11.357
REMARK INTRA:                  -0.790
REMARK UNBOUND:                -1.028
REMARK  Name = 
REMARK  5 active torsions:
REMARK  status: ('A' for Active; 'I' for Inactive)
REMARK    1  A    between atoms: C_2  and  C_4
REMARK    2  A    between atoms: C_7  and  O_8
REMARK    3  A    between atoms: O_8  and  C_9
REMARK    4  A    between atoms: C_9  and  C_10
REMARK    5  A    between atoms: C_14  and  C_15
REMARK                            x       y       z     vdW  Elec       q    Type
REMARK                         _______ _______ _______ _____ _____    ______ ____
ROOT
ATOM      1  C   UNL     1      43.873   4.705  11.396  0.00  0.00    +0.000 C 
ENDROOT
BRANCH   1   2
ATOM      2  C   UNL     1      45.147   5.338  11.908  0.00  0.00    +0.000 A 
ATOM      3  C   UNL     1      45.656   6.472  11.263  0.00  0.00    +0.000 A 
ATOM      4  C   UNL     1      46.777   7.126  11.764  0.00  0.00    +0.000 A 
ATOM      5  C   UNL     1      47.389   6.666  12.931  0.00  0.00    +0.000 A 
ATOM      6  C   UNL     1      46.891   5.551  13.630  0.00  0.00    +0.000 A 
ATOM      7  C   UNL     1      45.768   4.894  13.087  0.00  0.00    +0.000 A 
BRANCH   6   8
ATOM      8  C   UNL     1      47.495   5.113  14.905  0.00  0.00    +0.000 A 
ATOM      9  C   UNL     1      48.516   5.843  15.531  0.00  0.00    +0.000 A 
ATOM     10  N   UNL     1      49.111   5.516  16.708  0.00  0.00    +0.000 NA
ATOM     11  C   UNL     1      48.659   4.398  17.312  0.00  0.00    +0.000 A 
ATOM     12  C   UNL     1      47.654   3.605  16.791  0.00  0.00    +0.000 A 
ATOM     13  F   UNL     1      47.241   2.512  17.441  0.00  0.00    +0.000 F 
ATOM     14  C   UNL     1      47.072   3.959  15.580  0.00  0.00    +0.000 A 
ENDBRANCH   6   8
ENDBRANCH   1   2
BRANCH   1  15
ATOM     15  O   UNL     1      43.795   4.736   9.968  0.00  0.00    +0.000 OA
BRANCH  15  19
ATOM     16  C   UNL     1      46.357   2.240   7.810  0.00  0.00    +0.000 A 
ATOM     17  C   UNL     1      45.499   1.662   8.750  0.00  0.00    +0.000 A 
ATOM     18  C   UNL     1      44.628   2.467   9.493  0.00  0.00    +0.000 A 
ATOM     19  C   UNL     1      44.608   3.852   9.305  0.00  0.00    +0.000 A 
ATOM     20  C   UNL     1      45.480   4.425   8.376  0.00  0.00    +0.000 A 
ATOM     21  C   UNL     1      46.357   3.626   7.635  0.00  0.00    +0.000 A 
BRANCH  16  23
ATOM     22  N   UNL     1      48.389   2.043   6.482  0.00  0.00    +0.000 N 
ATOM     23  C   UNL     1      47.294   1.411   7.006  0.00  0.00    +0.000 C 
ATOM     24  O   UNL     1      47.120   0.212   6.849  0.00  0.00    +0.000 OA
ATOM     25  H   UNL     1      49.071   1.449   6.030  0.00  0.00    +0.000 HD
ATOM     26  H   UNL     1      48.697   2.947   6.805  0.00  0.00    +0.000 HD
ENDBRANCH  16  23
ENDBRANCH  15  19
ENDBRANCH   1  15
TORSDOF 5
ENDMDL
MODEL 3
REMARK VINA RESULT:    -8.224      1.567      2.275
REMARK INTER + INTRA:         -11.655
REMARK INTER:                 -10.840
REMARK INTRA:                  -0.816
REMARK UNBOUND:                -1.028
REMARK  Name = 
REMARK  5 active torsions:
REMARK  status: ('A' for Active; 'I' for Inactive)
REMARK    1  A    between atoms: C_2  and  C_4
REMARK    2  A    between atoms: C_7  and  O_8
REMARK    3  A    between atoms: O_8  and  C_9
REMARK    4  A    between atoms: C_9  and  C_10
REMARK    5  A    between atoms: C_14  and  C_15
REMARK                            x       y       z     vdW  Elec       q    Type
REMARK                         _______ _______ _______ _____ _____    ______ ____
ROOT
ATOM      1  C   UNL     1      43.983   3.329  11.631  0.00  0.00    +0.000 C 
ENDROOT
BRANCH   1   2
ATOM      2  C   UNL     1      44.418   4.777  11.638  0.00  0.00    +0.000 A 
ATOM      3  C   UNL     1      43.470   5.779  11.398  0.00  0.00    +0.000 A 
ATOM      4  C   UNL     1      43.823   7.121  11.485  0.00  0.00    +0.000 A 
ATOM      5  C   UNL     1      45.126   7.479  11.834  0.00  0.00    +0.000 A 
ATOM      6  C   UNL     1      46.103   6.505  12.117  0.00  0.00    +0.000 A 
ATOM      7  C   UNL     1      45.723   5.153  11.999  0.00  0.00    +0.000 A 
BRANCH   6   8
ATOM      8  C   UNL     1      47.459   6.887  12.560  0.00  0.00    +0.000 A 
ATOM      9  C   UNL     1      47.998   6.434  13.772  0.00  0.00    +0.000 A 
ATOM     10  N   UNL     1      49.240   6.727  14.241  0.00  0.00    +0.000 NA
ATOM     11  C   UNL     1      50.003   7.512  13.453  0.00  0.00    +0.000 A 
ATOM     12  C   UNL     1      49.578   8.010  12.236  0.00  0.00    +0.000 A 
ATOM     13  F   UNL     1      50.384   8.777  11.494  0.00  0.00    +0.000 F 
ATOM     14  C   UNL     1      48.299   7.702  11.787  0.00  0.00    +0.000 A 
ENDBRANCH   6   8
ENDBRANCH   1   2
BRANCH   1  15
ATOM     15  O   UNL     1      43.518   2.915  10.343  0.00  0.00    +0.000 OA
BRANCH  15  19
ATOM     16  C   UNL     1      46.456   2.544   7.397  0.00  0.00    +0.000 A 
ATOM     17  C   UNL     1      45.801   3.772   7.535  0.00  0.00    +0.000 A 
ATOM     18  C   UNL     1      44.811   3.933   8.510  0.00  0.00    +0.000 A 
ATOM     19  C   UNL     1      44.464   2.871   9.352  0.00  0.00    +0.000 A 
ATOM     20  C   UNL     1      45.110   1.643   9.197  0.00  0.00    +0.000 A 
ATOM     21  C   UNL     1      46.097   1.474   8.220  0.00  0.00    +0.000 A 
BRANCH  16  23
ATOM     22  N   UNL     1      47.500   3.187   5.293  0.00  0.00    +0.000 N 
ATOM     23  C   UNL     1      47.512   2.342   6.370  0.00  0.00    +0.000 C 
ATOM     24  O   UNL     1      48.376   1.487   6.495  0.00  0.00    +0.000 OA
ATOM     25  H   UNL     1      48.284   3.107   4.658  0.00  0.00    +0.000 HD
ATOM     26  H   UNL     1      46.980   4.050   5.289  0.00  0.00    +0.000 HD
ENDBRANCH  16  23
ENDBRANCH  15  19
ENDBRANCH   1  15
TORSDOF 5
ENDMDL
MODEL 4
REMARK VINA RESULT:    -7.128      3.506      6.813
REMARK INTER + INTRA:         -10.239
REMARK INTER:                  -9.320
REMARK INTRA:                  -0.919
REMARK UNBOUND:                -1.028
REMARK  Name = 
REMARK  5 active torsions:
REMARK  status: ('A' for Active; 'I' for Inactive)
REMARK    1  A    between atoms: C_2  and  C_4
REMARK    2  A    between atoms: C_7  and  O_8
REMARK    3  A    between atoms: O_8  and  C_9
REMARK    4  A    between atoms: C_9  and  C_10
REMARK    5  A    between atoms: C_14  and  C_15
REMARK                            x       y       z     vdW  Elec       q    Type
REMARK                         _______ _______ _______ _____ _____    ______ ____
ROOT
ATOM      1  C   UNL     1      44.813   7.707  11.820  0.00  0.00    +0.000 C 
ENDROOT
BRANCH   1   2
ATOM      2  C   UNL     1      44.476   6.271  11.489  0.00  0.00    +0.000 A 
ATOM      3  C   UNL     1      43.386   5.660  12.120  0.00  0.00    +0.000 A 
ATOM      4  C   UNL     1      43.001   4.370  11.772  0.00  0.00    +0.000 A 
ATOM      5  C   UNL     1      43.689   3.682  10.771  0.00  0.00    +0.000 A 
ATOM      6  C   UNL     1      44.769   4.270  10.088  0.00  0.00    +0.000 A 
ATOM      7  C   UNL     1      45.152   5.570  10.477  0.00  0.00    +0.000 A 
BRANCH   6   8
ATOM      8  C   UNL     1      45.446   3.569   8.978  0.00  0.00    +0.000 A 
ATOM      9  C   UNL     1      45.986   4.260   7.883  0.00  0.00    +0.000 A 
ATOM     10  N   UNL     1      46.636   3.690   6.835  0.00  0.00    +0.000 NA
ATOM     11  C   UNL     1      46.770   2.349   6.876  0.00  0.00    +0.000 A 
ATOM     12  C   UNL     1      46.283   1.567   7.907  0.00  0.00    +0.000 A 
ATOM     13  F   UNL     1      46.455   0.241   7.896  0.00  0.00    +0.000 F 
ATOM     14  C   UNL     1      45.614   2.177   8.961  0.00  0.00    +0.000 A 
ENDBRANCH   6   8
ENDBRANCH   1   2
BRANCH   1  15
ATOM     15  O   UNL     1      45.729   7.805  12.914  0.00  0.00    +0.000 OA
BRANCH  15  19
ATOM     16  C   UNL     1      49.735   8.212  11.800  0.00  0.00    +0.000 A 
ATOM     17  C   UNL     1      49.310   6.988  12.323  0.00  0.00    +0.000 A 
ATOM     18  C   UNL     1      47.975   6.815  12.709  0.00  0.00    +0.000 A 
ATOM     19  C   UNL     1      47.058   7.862  12.578  0.00  0.00    +0.000 A 
ATOM     20  C   UNL     1      47.493   9.088  12.069  0.00  0.00    +0.000 A 
ATOM     21  C   UNL     1      48.827   9.268  11.688  0.00  0.00    +0.000 A 
BRANCH  16  23
ATOM     22  N   UNL     1      51.855   7.321  10.998  0.00  0.00    +0.000 N 
ATOM     23  C   UNL     1      51.146   8.426  11.382  0.00  0.00    +0.000 C 
ATOM     24  O   UNL     1      51.644   9.542  11.346  0.00  0.00    +0.000 OA
ATOM     25  H   UNL     1      52.776   7.494  10.616  0.00  0.00    +0.000 HD
ATOM     26  H   UNL     1      51.409   6.446  10.766  0.00  0.00    +0.000 HD
ENDBRANCH  16  23
ENDBRANCH  15  19
ENDBRANCH   1  15
TORSDOF 5
ENDMDL
MODEL 5
REMARK VINA RESULT:    -6.862      4.727      8.149
REMARK INTER + INTRA:          -9.896
REMARK INTER:                  -9.356
REMARK INTRA:                  -0.540
REMARK UNBOUND:                -1.028
REMARK  Name = 
REMARK  5 active torsions:
REMARK  status: ('A' for Active; 'I' for Inactive)
REMARK    1  A    between atoms: C_2  and  C_4
REMARK    2  A    between atoms: C_7  and  O_8
REMARK    3  A    between atoms: O_8  and  C_9
REMARK    4  A    between atoms: C_9  and  C_10
REMARK    5  A    between atoms: C_14  and  C_15
REMARK                            x       y       z     vdW  Elec       q    Type
REMARK                         _______ _______ _______ _____ _____    ______ ____
ROOT
ATOM      1  C   UNL     1      45.899   5.203  14.037  0.00  0.00    +0.000 C 
ENDROOT
BRANCH   1   2
ATOM      2  C   UNL     1      45.026   4.836  12.857  0.00  0.00    +0.000 A 
ATOM      3  C   UNL     1      43.669   5.182  12.875  0.00  0.00    +0.000 A 
ATOM      4  C   UNL     1      42.863   4.934  11.770  0.00  0.00    +0.000 A 
ATOM      5  C   UNL     1      43.409   4.357  10.623  0.00  0.00    +0.000 A 
ATOM      6  C   UNL     1      44.775   4.025  10.549  0.00  0.00    +0.000 A 
ATOM      7  C   UNL     1      45.564   4.266  11.692  0.00  0.00    +0.000 A 
BRANCH   6   8
ATOM      8  C   UNL     1      45.366   3.485   9.307  0.00  0.00    +0.000 A 
ATOM      9  C   UNL     1      45.770   4.318   8.254  0.00  0.00    +0.000 A 
ATOM     10  N   UNL     1      46.334   3.900   7.091  0.00  0.00    +0.000 NA
ATOM     11  C   UNL     1      46.520   2.571   6.964  0.00  0.00    +0.000 A 
ATOM     12  C   UNL     1      46.167   1.657   7.939  0.00  0.00    +0.000 A 
ATOM     13  F   UNL     1      46.385   0.349   7.760  0.00  0.00    +0.000 F 
ATOM     14  C   UNL     1      45.582   2.112   9.114  0.00  0.00    +0.000 A 
ENDBRANCH   6   8
ENDBRANCH   1   2
BRANCH   1  15
ATOM     15  O   UNL     1      46.903   4.216  14.289  0.00  0.00    +0.000 OA
BRANCH  15  19
ATOM     16  C   UNL     1      48.565   4.407  18.117  0.00  0.00    +0.000 A 
ATOM     17  C   UNL     1      47.971   3.209  17.707  0.00  0.00    +0.000 A 
ATOM     18  C   UNL     1      47.402   3.109  16.432  0.00  0.00    +0.000 A 
ATOM     19  C   UNL     1      47.420   4.201  15.559  0.00  0.00    +0.000 A 
ATOM     20  C   UNL     1      48.000   5.399  15.981  0.00  0.00    +0.000 A 
ATOM     21  C   UNL     1      48.565   5.508  17.257  0.00  0.00    +0.000 A 
BRANCH  16  23
ATOM     22  N   UNL     1      48.570   3.874  20.494  0.00  0.00    +0.000 N 
ATOM     23  C   UNL     1      49.176   4.544  19.466  0.00  0.00    +0.000 C 
ATOM     24  O   UNL     1      50.194   5.195  19.648  0.00  0.00    +0.000 OA
ATOM     25  H   UNL     1      49.055   3.890  21.381  0.00  0.00    +0.000 HD
ATOM     26  H   UNL     1      47.904   3.133  20.337  0.00  0.00    +0.000 HD
ENDBRANCH  16  23
ENDBRANCH  15  19
ENDBRANCH   1  15
TORSDOF 5
ENDMDL
MODEL 6
REMARK VINA RESULT:    -6.797      5.591      7.963
REMARK INTER + INTRA:          -9.811
REMARK INTER:                  -9.019
REMARK INTRA:                  -0.793
REMARK UNBOUND:                -1.028
REMARK  Name = 
REMARK  5 active torsions:
REMARK  status: ('A' for Active; 'I' for Inactive)
REMARK    1  A    between atoms: C_2  and  C_4
REMARK    2  A    between atoms: C_7  and  O_8
REMARK    3  A    between atoms: O_8  and  C_9
REMARK    4  A    between atoms: C_9  and  C_10
REMARK    5  A    between atoms: C_14  and  C_15
REMARK                            x       y       z     vdW  Elec       q    Type
REMARK                         _______ _______ _______ _____ _____    ______ ____
ROOT
ATOM      1  C   UNL     1      48.919   6.533  15.957  0.00  0.00    +0.000 C 
ENDROOT
BRANCH   1   2
ATOM      2  C   UNL     1      48.362   6.690  14.559  0.00  0.00    +0.000 A 
ATOM      3  C   UNL     1      49.039   7.500  13.639  0.00  0.00    +0.000 A 
ATOM      4  C   UNL     1      48.598   7.594  12.323  0.00  0.00    +0.000 A 
ATOM      5  C   UNL     1      47.487   6.859  11.905  0.00  0.00    +0.000 A 
ATOM      6  C   UNL     1      46.798   6.007  12.788  0.00  0.00    +0.000 A 
ATOM      7  C   UNL     1      47.252   5.949  14.121  0.00  0.00    +0.000 A 
BRANCH   6   8
ATOM      8  C   UNL     1      45.670   5.174  12.323  0.00  0.00    +0.000 A 
ATOM      9  C   UNL     1      44.913   4.390  13.207  0.00  0.00    +0.000 A 
ATOM     10  N   UNL     1      43.854   3.613  12.860  0.00  0.00    +0.000 NA
ATOM     11  C   UNL     1      43.515   3.617  11.555  0.00  0.00    +0.000 A 
ATOM     12  C   UNL     1      44.184   4.356  10.598  0.00  0.00    +0.000 A 
ATOM     13  F   UNL     1      43.794   4.327   9.319  0.00  0.00    +0.000 F 
ATOM     14  C   UNL     1      45.270   5.134  10.980  0.00  0.00    +0.000 A 
ENDBRANCH   6   8
ENDBRANCH   1   2
BRANCH   1  15
ATOM     15  O   UNL     1      48.323   5.435  16.652  0.00  0.00    +0.000 OA
BRANCH  15  19
ATOM     16  C   UNL     1      51.015   2.338  17.435  0.00  0.00    +0.000 A 
ATOM     17  C   UNL     1      49.725   2.008  17.011  0.00  0.00    +0.000 A 
ATOM     18  C   UNL     1      48.795   3.019  16.741  0.00  0.00    +0.000 A 
ATOM     19  C   UNL     1      49.145   4.364  16.894  0.00  0.00    +0.000 A 
ATOM     20  C   UNL     1      50.431   4.686  17.333  0.00  0.00    +0.000 A 
ATOM     21  C   UNL     1      51.363   3.680  17.611  0.00  0.00    +0.000 A 
BRANCH  16  23
ATOM     22  N   UNL     1      51.554   0.086  18.191  0.00  0.00    +0.000 N 
ATOM     23  C   UNL     1      52.024   1.287  17.731  0.00  0.00    +0.000 C 
ATOM     24  O   UNL     1      53.218   1.468  17.539  0.00  0.00    +0.000 OA
ATOM     25  H   UNL     1      52.240  -0.652  18.286  0.00  0.00    +0.000 HD
ATOM     26  H   UNL     1      50.586  -0.182  18.109  0.00  0.00    +0.000 HD
ENDBRANCH  16  23
ENDBRANCH  15  19
ENDBRANCH   1  15
TORSDOF 5
ENDMDL
MODEL 7
REMARK VINA RESULT:    -6.478      3.805      7.471
REMARK INTER + INTRA:          -9.399
REMARK INTER:                  -8.683
REMARK INTRA:                  -0.716
REMARK UNBOUND:                -1.028
REMARK  Name = 
REMARK  5 active torsions:
REMARK  status: ('A' for Active; 'I' for Inactive)
REMARK    1  A    between atoms: C_2  and  C_4
REMARK    2  A    between atoms: C_7  and  O_8
REMARK    3  A    between atoms: O_8  and  C_9
REMARK    4  A    between atoms: C_9  and  C_10
REMARK    5  A    between atoms: C_14  and  C_15
REMARK                            x       y       z     vdW  Elec       q    Type
REMARK                         _______ _______ _______ _____ _____    ______ ____
ROOT
ATOM      1  C   UNL     1      45.704   7.527  11.921  0.00  0.00    +0.000 C 
ENDROOT
BRANCH   1   2
ATOM      2  C   UNL     1      45.018   6.286  11.394  0.00  0.00    +0.000 A 
ATOM      3  C   UNL     1      43.693   6.026  11.766  0.00  0.00    +0.000 A 
ATOM      4  C   UNL     1      43.010   4.941  11.228  0.00  0.00    +0.000 A 
ATOM      5  C   UNL     1      43.636   4.114  10.294  0.00  0.00    +0.000 A 
ATOM      6  C   UNL     1      44.955   4.359   9.867  0.00  0.00    +0.000 A 
ATOM      7  C   UNL     1      45.631   5.452  10.445  0.00  0.00    +0.000 A 
BRANCH   6   8
ATOM      8  C   UNL     1      45.588   3.528   8.823  0.00  0.00    +0.000 A 
ATOM      9  C   UNL     1      46.198   4.093   7.694  0.00  0.00    +0.000 A 
ATOM     10  N   UNL     1      46.814   3.400   6.701  0.00  0.00    +0.000 NA
ATOM     11  C   UNL     1      46.837   2.058   6.838  0.00  0.00    +0.000 A 
ATOM     12  C   UNL     1      46.273   1.394   7.911  0.00  0.00    +0.000 A 
ATOM     13  F   UNL     1      46.335   0.060   7.997  0.00  0.00    +0.000 F 
ATOM     14  C   UNL     1      45.641   2.129   8.906  0.00  0.00    +0.000 A 
ENDBRANCH   6   8
ENDBRANCH   1   2
BRANCH   1  15
ATOM     15  O   UNL     1      47.102   7.536  11.619  0.00  0.00    +0.000 OA
BRANCH  15  19
ATOM     16  C   UNL     1      49.855   7.179  14.740  0.00  0.00    +0.000 A 
ATOM     17  C   UNL     1      48.592   6.600  14.896  0.00  0.00    +0.000 A 
ATOM     18  C   UNL     1      47.643   6.701  13.872  0.00  0.00    +0.000 A 
ATOM     19  C   UNL     1      47.946   7.381  12.688  0.00  0.00    +0.000 A 
ATOM     20  C   UNL     1      49.204   7.971  12.546  0.00  0.00    +0.000 A 
ATOM     21  C   UNL     1      50.155   7.879  13.569  0.00  0.00    +0.000 A 
BRANCH  16  23
ATOM     22  N   UNL     1      52.187   7.277  15.437  0.00  0.00    +0.000 N 
ATOM     23  C   UNL     1      50.883   7.089  15.811  0.00  0.00    +0.000 C 
ATOM     24  O   UNL     1      50.582   6.894  16.979  0.00  0.00    +0.000 OA
ATOM     25  H   UNL     1      52.862   7.319  16.189  0.00  0.00    +0.000 HD
ATOM     26  H   UNL     1      52.441   7.692  14.554  0.00  0.00    +0.000 HD
ENDBRANCH  16  23
ENDBRANCH  15  19
ENDBRANCH   1  15
TORSDOF 5
ENDMDL
MODEL 8
REMARK VINA RESULT:    -6.452      4.886      8.465
REMARK INTER + INTRA:          -9.366
REMARK INTER:                  -8.619
REMARK INTRA:                  -0.747
REMARK UNBOUND:                -1.028
REMARK  Name = 
REMARK  5 active torsions:
REMARK  status: ('A' for Active; 'I' for Inactive)
REMARK    1  A    between atoms: C_2  and  C_4
REMARK    2  A    between atoms: C_7  and  O_8
REMARK    3  A    between atoms: O_8  and  C_9
REMARK    4  A    between atoms: C_9  and  C_10
REMARK    5  A    between atoms: C_14  and  C_15
REMARK                            x       y       z     vdW  Elec       q    Type
REMARK                         _______ _______ _______ _____ _____    ______ ____
ROOT
ATOM      1  C   UNL     1      48.437   7.126  13.829  0.00  0.00    +0.000 C 
ENDROOT
BRANCH   1   2
ATOM      2  C   UNL     1      47.156   7.153  13.025  0.00  0.00    +0.000 A 
ATOM      3  C   UNL     1      46.409   8.336  12.966  0.00  0.00    +0.000 A 
ATOM      4  C   UNL     1      45.275   8.415  12.165  0.00  0.00    +0.000 A 
ATOM      5  C   UNL     1      44.886   7.318  11.395  0.00  0.00    +0.000 A 
ATOM      6  C   UNL     1      45.627   6.122  11.397  0.00  0.00    +0.000 A 
ATOM      7  C   UNL     1      46.759   6.061  12.235  0.00  0.00    +0.000 A 
BRANCH   6   8
ATOM      8  C   UNL     1      45.257   4.990  10.523  0.00  0.00    +0.000 A 
ATOM      9  C   UNL     1      44.462   3.929  10.981  0.00  0.00    +0.000 A 
ATOM     10  N   UNL     1      44.067   2.863  10.236  0.00  0.00    +0.000 NA
ATOM     11  C   UNL     1      44.475   2.851   8.951  0.00  0.00    +0.000 A 
ATOM     12  C   UNL     1      45.254   3.846   8.391  0.00  0.00    +0.000 A 
ATOM     13  F   UNL     1      45.621   3.783   7.106  0.00  0.00    +0.000 F 
ATOM     14  C   UNL     1      45.652   4.918   9.179  0.00  0.00    +0.000 A 
ENDBRANCH   6   8
ENDBRANCH   1   2
BRANCH   1  15
ATOM     15  O   UNL     1      48.618   5.880  14.507  0.00  0.00    +0.000 OA
BRANCH  15  19
ATOM     16  C   UNL     1      48.114   6.185  18.642  0.00  0.00    +0.000 A 
ATOM     17  C   UNL     1      47.786   4.978  18.018  0.00  0.00    +0.000 A 
ATOM     18  C   UNL     1      47.941   4.840  16.634  0.00  0.00    +0.000 A 
ATOM     19  C   UNL     1      48.420   5.903  15.864  0.00  0.00    +0.000 A 
ATOM     20  C   UNL     1      48.729   7.112  16.492  0.00  0.00    +0.000 A 
ATOM     21  C   UNL     1      48.571   7.259  17.874  0.00  0.00    +0.000 A 
BRANCH  16  23
ATOM     22  N   UNL     1      47.112   5.503  20.755  0.00  0.00    +0.000 N 
ATOM     23  C   UNL     1      47.959   6.363  20.111  0.00  0.00    +0.000 C 
ATOM     24  O   UNL     1      48.586   7.214  20.725  0.00  0.00    +0.000 OA
ATOM     25  H   UNL     1      47.098   5.566  21.765  0.00  0.00    +0.000 HD
ATOM     26  H   UNL     1      46.793   4.643  20.335  0.00  0.00    +0.000 HD
ENDBRANCH  16  23
ENDBRANCH  15  19
ENDBRANCH   1  15
TORSDOF 5
ENDMDL
MODEL 9
REMARK VINA RESULT:    -6.398      4.150      5.998
REMARK INTER + INTRA:          -9.296
REMARK INTER:                  -8.357
REMARK INTRA:                  -0.939
REMARK UNBOUND:                -1.028
REMARK  Name = 
REMARK  5 active torsions:
REMARK  status: ('A' for Active; 'I' for Inactive)
REMARK    1  A    between atoms: C_2  and  C_4
REMARK    2  A    between atoms: C_7  and  O_8
REMARK    3  A    between atoms: O_8  and  C_9
REMARK    4  A    between atoms: C_9  and  C_10
REMARK    5  A    between atoms: C_14  and  C_15
REMARK                            x       y       z     vdW  Elec       q    Type
REMARK                         _______ _______ _______ _____ _____    ______ ____
ROOT
ATOM      1  C   UNL     1      47.755   7.705  12.282  0.00  0.00    +0.000 C 
ENDROOT
BRANCH   1   2
ATOM      2  C   UNL     1      48.257   7.787  13.706  0.00  0.00    +0.000 A 
ATOM      3  C   UNL     1      48.562   9.039  14.254  0.00  0.00    +0.000 A 
ATOM      4  C   UNL     1      48.943   9.152  15.587  0.00  0.00    +0.000 A 
ATOM      5  C   UNL     1      49.002   8.016  16.395  0.00  0.00    +0.000 A 
ATOM      6  C   UNL     1      48.671   6.742  15.895  0.00  0.00    +0.000 A 
ATOM      7  C   UNL     1      48.311   6.654  14.535  0.00  0.00    +0.000 A 
BRANCH   6   8
ATOM      8  C   UNL     1      48.662   5.554  16.772  0.00  0.00    +0.000 A 
ATOM      9  C   UNL     1      49.643   5.348  17.752  0.00  0.00    +0.000 A 
ATOM     10  N   UNL     1      49.694   4.292  18.606  0.00  0.00    +0.000 NA
ATOM     11  C   UNL     1      48.703   3.384  18.489  0.00  0.00    +0.000 A 
ATOM     12  C   UNL     1      47.682   3.488  17.564  0.00  0.00    +0.000 A 
ATOM     13  F   UNL     1      46.721   2.560  17.501  0.00  0.00    +0.000 F 
ATOM     14  C   UNL     1      47.661   4.574  16.697  0.00  0.00    +0.000 A 
ENDBRANCH   6   8
ENDBRANCH   1   2
BRANCH   1  15
ATOM     15  O   UNL     1      46.327   7.733  12.214  0.00  0.00    +0.000 OA
BRANCH  15  19
ATOM     16  C   UNL     1      44.518   4.066  11.362  0.00  0.00    +0.000 A 
ATOM     17  C   UNL     1      44.438   4.561  12.666  0.00  0.00    +0.000 A 
ATOM     18  C   UNL     1      45.033   5.785  12.989  0.00  0.00    +0.000 A 
ATOM     19  C   UNL     1      45.714   6.522  12.016  0.00  0.00    +0.000 A 
ATOM     20  C   UNL     1      45.804   6.014  10.718  0.00  0.00    +0.000 A 
ATOM     21  C   UNL     1      45.216   4.787  10.390  0.00  0.00    +0.000 A 
BRANCH  16  23
ATOM     22  N   UNL     1      44.430   2.109   9.914  0.00  0.00    +0.000 N 
ATOM     23  C   UNL     1      43.896   2.767  10.988  0.00  0.00    +0.000 C 
ATOM     24  O   UNL     1      42.974   2.287  11.630  0.00  0.00    +0.000 OA
ATOM     25  H   UNL     1      44.069   1.181   9.737  0.00  0.00    +0.000 HD
ATOM     26  H   UNL     1      45.336   2.339   9.535  0.00  0.00    +0.000 HD
ENDBRANCH  16  23
ENDBRANCH  15  19
ENDBRANCH   1  15
TORSDOF 5
ENDMDL
