MODEL 1
REMARK VINA RESULT:    -9.092      0.000      0.000
REMARK INTER + INTRA:         -12.634
REMARK INTER:                 -11.750
REMARK INTRA:                  -0.884
REMARK UNBOUND:                -0.884
REMARK  Name = 
REMARK  5 active torsions:
REMARK  status: ('A' for Active; 'I' for Inactive)
REMARK    1  A    between atoms: C_2  and  C_4
REMARK    2  A    between atoms: C_7  and  N_8
REMARK    3  A    between atoms: N_8  and  C_9
REMARK    4  A    between atoms: C_9  and  C_10
REMARK    5  A    between atoms: C_14  and  C_15
REMARK                            x       y       z     vdW  Elec       q    Type
REMARK                         _______ _______ _______ _____ _____    ______ ____
ROOT
ATOM      1  C   UNL     1      43.995   4.857  11.426  0.00  0.00    +0.000 C 
ATOM      2  C   UNL     1      42.917   5.303  12.417  0.00  0.00    +0.000 C 
ATOM      3  C   UNL     1      43.018   5.971  11.087  0.00  0.00    +0.000 C 
ENDROOT
BRANCH   1   4
ATOM      4  C   UNL     1      45.404   5.199  11.922  0.00  0.00    +0.000 A 
ATOM      5  C   UNL     1      46.151   6.244  11.352  0.00  0.00    +0.000 A 
ATOM      6  C   UNL     1      47.239   6.806  12.016  0.00  0.00    +0.000 A 
ATOM      7  C   UNL     1      47.608   6.318  13.264  0.00  0.00    +0.000 A 
ATOM      8  C   UNL     1      46.956   5.208  13.821  0.00  0.00    +0.000 A 
ATOM      9  C   UNL     1      45.888   4.632  13.116  0.00  0.00    +0.000 A 
BRANCH   8  10
ATOM     10  C   UNL     1      47.283   4.728  15.224  0.00  0.00    +0.000 C 
ATOM     11  C   UNL     1      48.375   5.620  15.842  0.00  0.00    +0.000 C 
ATOM     12  C   UNL     1      48.864   5.067  17.170  0.00  0.00    +0.000 C 
ATOM     13  O   UNL     1      49.277   3.711  17.030  0.00  0.00    +0.000 OA
ATOM     14  C   UNL     1      48.199   2.860  16.643  0.00  0.00    +0.000 C 
ATOM     15  C   UNL     1      47.684   3.248  15.265  0.00  0.00    +0.000 C 
ENDBRANCH   8  10
ENDBRANCH   1   4
BRANCH   1  16
ATOM     16  N   UNL     1      43.816   3.558  10.744  0.00  0.00    +0.000 N 
ATOM     17  H   UNL     1      42.879   3.166  10.757  0.00  0.00    +0.000 HD
BRANCH  16  21
ATOM     18  C   UNL     1      46.366   2.604   7.539  0.00  0.00    +0.000 A 
ATOM     19  C   UNL     1      45.859   3.900   7.649  0.00  0.00    +0.000 A 
ATOM     20  C   UNL     1      44.952   4.201   8.659  0.00  0.00    +0.000 A 
ATOM     21  C   UNL     1      44.527   3.225   9.569  0.00  0.00    +0.000 A 
ATOM     22  C   UNL     1      44.965   1.908   9.380  0.00  0.00    +0.000 A 
ATOM     23  C   UNL     1      45.867   1.591   8.359  0.00  0.00    +0.000 A 
BRANCH  18  25
ATOM     24  N   UNL     1      47.584   3.128   5.528  0.00  0.00    +0.000 N 
ATOM     25  C   UNL     1      47.500   2.327   6.625  0.00  0.00    +0.000 C 
ATOM     26  O   UNL     1      48.350   1.486   6.890  0.00  0.00    +0.000 OA
ATOM     27  H   UNL     1      48.439   3.078   4.988  0.00  0.00    +0.000 HD
ATOM     28  H   UNL     1      47.044   3.983   5.455  0.00  0.00    +0.000 HD
ENDBRANCH  18  25
ENDBRANCH  16  21
ENDBRANCH   1  16
TORSDOF 5
ENDMDL
MODEL 2
REMARK VINA RESULT:    -8.690      2.060      3.473
REMARK INTER + INTRA:         -12.115
REMARK INTER:                 -11.126
REMARK INTRA:                  -0.989
REMARK UNBOUND:                -0.884
REMARK  Name = 
REMARK  5 active torsions:
REMARK  status: ('A' for Active; 'I' for Inactive)
REMARK    1  A    between atoms: C_2  and  C_4
REMARK    2  A    between atoms: C_7  and  N_8
REMARK    3  A    between atoms: N_8  and  C_9
REMARK    4  A    between atoms: C_9  and  C_10
REMARK    5  A    between atoms: C_14  and  C_15
REMARK                            x       y       z     vdW  Elec       q    Type
REMARK                         _______ _______ _______ _____ _____    ______ ____
ROOT
ATOM      1  C   UNL     1      43.943   4.846  11.649  0.00  0.00    +0.000 C 
ATOM      2  C   UNL     1      42.643   5.280  12.330  0.00  0.00    +0.000 C 
ATOM      3  C   UNL     1      43.019   5.872  11.013  0.00  0.00    +0.000 C 
ENDROOT
BRANCH   1   4
ATOM      4  C   UNL     1      45.178   5.309  12.429  0.00  0.00    +0.000 A 
ATOM      5  C   UNL     1      45.749   4.517  13.440  0.00  0.00    +0.000 A 
ATOM      6  C   UNL     1      47.053   4.733  13.882  0.00  0.00    +0.000 A 
ATOM      7  C   UNL     1      47.806   5.760  13.326  0.00  0.00    +0.000 A 
ATOM      8  C   UNL     1      47.239   6.639  12.391  0.00  0.00    +0.000 A 
ATOM      9  C   UNL     1      45.911   6.428  11.989  0.00  0.00    +0.000 A 
BRANCH   8  10
ATOM     10  C   UNL     1      48.079   7.701  11.703  0.00  0.00    +0.000 C 
ATOM     11  C   UNL     1      49.573   7.438  11.962  0.00  0.00    +0.000 C 
ATOM     12  C   UNL     1      50.438   8.576  11.449  0.00  0.00    +0.000 C 
ATOM     13  O   UNL     1      50.000   9.823  11.983  0.00  0.00    +0.000 OA
ATOM     14  C   UNL     1      48.674  10.145  11.569  0.00  0.00    +0.000 C 
ATOM     15  C   UNL     1      47.684   9.125  12.115  0.00  0.00    +0.000 C 
ENDBRANCH   8  10
ENDBRANCH   1   4
BRANCH   1  16
ATOM     16  N   UNL     1      43.993   3.499  11.042  0.00  0.00    +0.000 N 
ATOM     17  H   UNL     1      43.176   2.912  11.179  0.00  0.00    +0.000 HD
BRANCH  16  21
ATOM     18  C   UNL     1      46.338   2.706   7.643  0.00  0.00    +0.000 A 
ATOM     19  C   UNL     1      46.037   4.028   7.974  0.00  0.00    +0.000 A 
ATOM     20  C   UNL     1      45.195   4.294   9.048  0.00  0.00    +0.000 A 
ATOM     21  C   UNL     1      44.634   3.259   9.806  0.00  0.00    +0.000 A 
ATOM     22  C   UNL     1      44.863   1.939   9.396  0.00  0.00    +0.000 A 
ATOM     23  C   UNL     1      45.697   1.659   8.308  0.00  0.00    +0.000 A 
BRANCH  18  25
ATOM     24  N   UNL     1      47.429   3.210   5.556  0.00  0.00    +0.000 N 
ATOM     25  C   UNL     1      47.408   2.414   6.659  0.00  0.00    +0.000 C 
ATOM     26  O   UNL     1      48.265   1.566   6.872  0.00  0.00    +0.000 OA
ATOM     27  H   UNL     1      48.247   3.149   4.962  0.00  0.00    +0.000 HD
ATOM     28  H   UNL     1      46.895   4.069   5.514  0.00  0.00    +0.000 HD
ENDBRANCH  18  25
ENDBRANCH  16  21
ENDBRANCH   1  16
TORSDOF 5
ENDMDL
MODEL 3
REMARK VINA RESULT:    -8.410      2.277      2.948
REMARK INTER + INTRA:         -11.753
REMARK INTER:                 -11.292
REMARK INTRA:                  -0.461
REMARK UNBOUND:                -0.884
REMARK  Name = 
REMARK  5 active torsions:
REMARK  status: ('A' for Active; 'I' for Inactive)
REMARK    1  A    between atoms: C_2  and  C_4
REMARK    2  A    between atoms: C_7  and  N_8
REMARK    3  A    between atoms: N_8  and  C_9
REMARK    4  A    between atoms: C_9  and  C_10
REMARK    5  A    between atoms: C_14  and  C_15
REMARK                            x       y       z     vdW  Elec       q    Type
REMARK                         _______ _______ _______ _____ _____    ______ ____
ROOT
ATOM      1  C   UNL     1      44.348   4.630  11.635  0.00  0.00    +0.000 C 
ATOM      2  C   UNL     1      45.063   3.648  12.565  0.00  0.00    +0.000 C 
ATOM      3  C   UNL     1      43.728   4.190  12.952  0.00  0.00    +0.000 C 
ENDROOT
BRANCH   1   4
ATOM      4  C   UNL     1      45.083   5.972  11.546  0.00  0.00    +0.000 A 
ATOM      5  C   UNL     1      44.388   7.193  11.532  0.00  0.00    +0.000 A 
ATOM      6  C   UNL     1      45.025   8.395  11.831  0.00  0.00    +0.000 A 
ATOM      7  C   UNL     1      46.380   8.396  12.137  0.00  0.00    +0.000 A 
ATOM      8  C   UNL     1      47.134   7.216  12.059  0.00  0.00    +0.000 A 
ATOM      9  C   UNL     1      46.480   6.022  11.717  0.00  0.00    +0.000 A 
BRANCH   8  10
ATOM     10  C   UNL     1      48.591   7.185  12.486  0.00  0.00    +0.000 C 
ATOM     11  C   UNL     1      48.692   7.324  14.016  0.00  0.00    +0.000 C 
ATOM     12  C   UNL     1      50.133   7.484  14.469  0.00  0.00    +0.000 C 
ATOM     13  O   UNL     1      50.763   8.559  13.778  0.00  0.00    +0.000 OA
ATOM     14  C   UNL     1      50.836   8.322  12.373  0.00  0.00    +0.000 C 
ATOM     15  C   UNL     1      49.439   8.247  11.773  0.00  0.00    +0.000 C 
ENDBRANCH   8  10
ENDBRANCH   1   4
BRANCH   1  16
ATOM     16  N   UNL     1      43.755   4.101  10.389  0.00  0.00    +0.000 N 
ATOM     17  H   UNL     1      42.932   4.582  10.040  0.00  0.00    +0.000 HD
BRANCH  16  21
ATOM     18  C   UNL     1      46.504   2.471   7.655  0.00  0.00    +0.000 A 
ATOM     19  C   UNL     1      46.260   3.846   7.645  0.00  0.00    +0.000 A 
ATOM     20  C   UNL     1      45.293   4.380   8.490  0.00  0.00    +0.000 A 
ATOM     21  C   UNL     1      44.550   3.564   9.351  0.00  0.00    +0.000 A 
ATOM     22  C   UNL     1      44.734   2.178   9.273  0.00  0.00    +0.000 A 
ATOM     23  C   UNL     1      45.694   1.628   8.417  0.00  0.00    +0.000 A 
BRANCH  18  25
ATOM     24  N   UNL     1      48.498   2.840   6.355  0.00  0.00    +0.000 N 
ATOM     25  C   UNL     1      47.681   1.922   6.940  0.00  0.00    +0.000 C 
ATOM     26  O   UNL     1      47.940   0.726   6.950  0.00  0.00    +0.000 OA
ATOM     27  H   UNL     1      49.392   2.508   6.017  0.00  0.00    +0.000 HD
ATOM     28  H   UNL     1      48.428   3.826   6.576  0.00  0.00    +0.000 HD
ENDBRANCH  18  25
ENDBRANCH  16  21
ENDBRANCH   1  16
TORSDOF 5
ENDMDL
MODEL 4
REMARK VINA RESULT:    -7.336      2.437      7.632
REMARK INTER + INTRA:         -10.364
REMARK INTER:                  -9.485
REMARK INTRA:                  -0.879
REMARK UNBOUND:                -0.884
REMARK  Name = 
REMARK  5 active torsions:
REMARK  status: ('A' for Active; 'I' for Inactive)
REMARK    1  A    between atoms: C_2  and  C_4
REMARK    2  A    between atoms: C_7  and  N_8
REMARK    3  A    between atoms: N_8  and  C_9
REMARK    4  A    between atoms: C_9  and  C_10
REMARK    5  A    between atoms: C_14  and  C_15
REMARK                            x       y       z     vdW  Elec       q    Type
REMARK                         _______ _______ _______ _____ _____    ______ ____
ROOT
ATOM      1  C   UNL     1      46.344   6.877  12.800  0.00  0.00    +0.000 C 
ATOM      2  C   UNL     1      46.386   8.079  11.853  0.00  0.00    +0.000 C 
ATOM      3  C   UNL     1      45.938   8.267  13.264  0.00  0.00    +0.000 C 
ENDROOT
BRANCH   1   4
ATOM      4  C   UNL     1      45.270   5.864  12.389  0.00  0.00    +0.000 A 
ATOM      5  C   UNL     1      43.962   5.931  12.898  0.00  0.00    +0.000 A 
ATOM      6  C   UNL     1      42.903   5.281  12.269  0.00  0.00    +0.000 A 
ATOM      7  C   UNL     1      43.140   4.535  11.120  0.00  0.00    +0.000 A 
ATOM      8  C   UNL     1      44.445   4.355  10.639  0.00  0.00    +0.000 A 
ATOM      9  C   UNL     1      45.503   4.987  11.312  0.00  0.00    +0.000 A 
BRANCH   8  10
ATOM     10  C   UNL     1      44.707   3.628   9.332  0.00  0.00    +0.000 C 
ATOM     11  C   UNL     1      45.175   2.189   9.618  0.00  0.00    +0.000 C 
ATOM     12  C   UNL     1      45.625   1.486   8.348  0.00  0.00    +0.000 C 
ATOM     13  O   UNL     1      46.609   2.257   7.665  0.00  0.00    +0.000 OA
ATOM     14  C   UNL     1      46.096   3.517   7.234  0.00  0.00    +0.000 C 
ATOM     15  C   UNL     1      45.704   4.370   8.432  0.00  0.00    +0.000 C 
ENDBRANCH   8  10
ENDBRANCH   1   4
BRANCH   1  16
ATOM     16  N   UNL     1      47.628   6.337  13.294  0.00  0.00    +0.000 N 
ATOM     17  H   UNL     1      48.464   6.854  13.038  0.00  0.00    +0.000 HD
BRANCH  16  21
ATOM     18  C   UNL     1      48.403   4.256  16.865  0.00  0.00    +0.000 A 
ATOM     19  C   UNL     1      47.453   3.756  15.973  0.00  0.00    +0.000 A 
ATOM     20  C   UNL     1      47.133   4.481  14.831  0.00  0.00    +0.000 A 
ATOM     21  C   UNL     1      47.741   5.712  14.556  0.00  0.00    +0.000 A 
ATOM     22  C   UNL     1      48.613   6.247  15.513  0.00  0.00    +0.000 A 
ATOM     23  C   UNL     1      48.932   5.534  16.673  0.00  0.00    +0.000 A 
BRANCH  18  25
ATOM     24  N   UNL     1      48.296   3.522  19.156  0.00  0.00    +0.000 N 
ATOM     25  C   UNL     1      48.922   3.395  17.955  0.00  0.00    +0.000 C 
ATOM     26  O   UNL     1      49.801   2.566  17.757  0.00  0.00    +0.000 OA
ATOM     27  H   UNL     1      48.510   2.826  19.861  0.00  0.00    +0.000 HD
ATOM     28  H   UNL     1      47.409   4.003  19.243  0.00  0.00    +0.000 HD
ENDBRANCH  18  25
ENDBRANCH  16  21
ENDBRANCH   1  16
TORSDOF 5
ENDMDL
MODEL 5
REMARK VINA RESULT:    -6.991      2.822      4.668
REMARK INTER + INTRA:          -9.919
REMARK INTER:                  -8.972
REMARK INTRA:                  -0.947
REMARK UNBOUND:                -0.884
REMARK  Name = 
REMARK  5 active torsions:
REMARK  status: ('A' for Active; 'I' for Inactive)
REMARK    1  A    between atoms: C_2  and  C_4
REMARK    2  A    between atoms: C_7  and  N_8
REMARK    3  A    between atoms: N_8  and  C_9
REMARK    4  A    between atoms: C_9  and  C_10
REMARK    5  A    between atoms: C_14  and  C_15
REMARK                            x       y       z     vdW  Elec       q    Type
REMARK                         _______ _______ _______ _____ _____    ______ ____
ROOT
ATOM      1  C   UNL     1      47.793   7.956  13.269  0.00  0.00    +0.000 C 
ATOM      2  C   UNL     1      48.292   9.153  12.456  0.00  0.00    +0.000 C 
ATOM      3  C   UNL     1      48.723   7.775  12.080  0.00  0.00    +0.000 C 
ENDROOT
BRANCH   1   4
ATOM      4  C   UNL     1      48.361   7.954  14.692  0.00  0.00    +0.000 A 
ATOM      5  C   UNL     1      48.244   9.075  15.532  0.00  0.00    +0.000 A 
ATOM      6  C   UNL     1      48.404   8.968  16.911  0.00  0.00    +0.000 A 
ATOM      7  C   UNL     1      48.699   7.732  17.475  0.00  0.00    +0.000 A 
ATOM      8  C   UNL     1      48.928   6.610  16.665  0.00  0.00    +0.000 A 
ATOM      9  C   UNL     1      48.801   6.750  15.273  0.00  0.00    +0.000 A 
BRANCH   8  10
ATOM     10  C   UNL     1      49.152   5.236  17.270  0.00  0.00    +0.000 C 
ATOM     11  C   UNL     1      50.649   4.882  17.227  0.00  0.00    +0.000 C 
ATOM     12  C   UNL     1      50.896   3.445  17.652  0.00  0.00    +0.000 C 
ATOM     13  O   UNL     1      50.098   2.547  16.885  0.00  0.00    +0.000 OA
ATOM     14  C   UNL     1      48.703   2.765  17.089  0.00  0.00    +0.000 C 
ATOM     15  C   UNL     1      48.302   4.149  16.599  0.00  0.00    +0.000 C 
ENDBRANCH   8  10
ENDBRANCH   1   4
BRANCH   1  16
ATOM     16  N   UNL     1      46.383   7.545  13.104  0.00  0.00    +0.000 N 
ATOM     17  H   UNL     1      45.719   8.283  12.889  0.00  0.00    +0.000 HD
BRANCH  16  21
ATOM     18  C   UNL     1      44.825   4.000  11.463  0.00  0.00    +0.000 A 
ATOM     19  C   UNL     1      45.349   3.984  12.757  0.00  0.00    +0.000 A 
ATOM     20  C   UNL     1      45.939   5.131  13.275  0.00  0.00    +0.000 A 
ATOM     21  C   UNL     1      46.027   6.308  12.521  0.00  0.00    +0.000 A 
ATOM     22  C   UNL     1      45.591   6.275  11.190  0.00  0.00    +0.000 A 
ATOM     23  C   UNL     1      45.008   5.122  10.653  0.00  0.00    +0.000 A 
BRANCH  18  25
ATOM     24  N   UNL     1      44.481   2.185   9.918  0.00  0.00    +0.000 N 
ATOM     25  C   UNL     1      43.992   2.870  10.987  0.00  0.00    +0.000 C 
ATOM     26  O   UNL     1      42.974   2.528  11.575  0.00  0.00    +0.000 OA
ATOM     27  H   UNL     1      44.027   1.310   9.687  0.00  0.00    +0.000 HD
ATOM     28  H   UNL     1      45.439   2.300   9.610  0.00  0.00    +0.000 HD
ENDBRANCH  18  25
ENDBRANCH  16  21
ENDBRANCH   1  16
TORSDOF 5
ENDMDL
MODEL 6
REMARK VINA RESULT:    -6.461      3.687      8.219
REMARK INTER + INTRA:          -9.234
REMARK INTER:                  -8.047
REMARK INTRA:                  -1.186
REMARK UNBOUND:                -0.884
REMARK  Name = 
REMARK  5 active torsions:
REMARK  status: ('A' for Active; 'I' for Inactive)
REMARK    1  A    between atoms: C_2  and  C_4
REMARK    2  A    between atoms: C_7  and  N_8
REMARK    3  A    between atoms: N_8  and  C_9
REMARK    4  A    between atoms: C_9  and  C_10
REMARK    5  A    between atoms: C_14  and  C_15
REMARK                            x       y       z     vdW  Elec       q    Type
REMARK                         _______ _______ _______ _____ _____    ______ ____
ROOT
ATOM      1  C   UNL     1      49.302   7.867  12.984  0.00  0.00    +0.000 C 
ATOM      2  C   UNL     1      49.797   7.758  11.541  0.00  0.00    +0.000 C 
ATOM      3  C   UNL     1      49.845   9.076  12.239  0.00  0.00    +0.000 C 
ENDROOT
BRANCH   1   4
ATOM      4  C   UNL     1      47.789   7.648  13.087  0.00  0.00    +0.000 A 
ATOM      5  C   UNL     1      46.892   8.727  13.166  0.00  0.00    +0.000 A 
ATOM      6  C   UNL     1      45.538   8.568  12.880  0.00  0.00    +0.000 A 
ATOM      7  C   UNL     1      45.053   7.316  12.524  0.00  0.00    +0.000 A 
ATOM      8  C   UNL     1      45.892   6.192  12.536  0.00  0.00    +0.000 A 
ATOM      9  C   UNL     1      47.246   6.368  12.866  0.00  0.00    +0.000 A 
BRANCH   8  10
ATOM     10  C   UNL     1      45.400   4.839  12.054  0.00  0.00    +0.000 C 
ATOM     11  C   UNL     1      45.001   4.925  10.569  0.00  0.00    +0.000 C 
ATOM     12  C   UNL     1      44.331   3.647  10.096  0.00  0.00    +0.000 C 
ATOM     13  O   UNL     1      43.234   3.309  10.940  0.00  0.00    +0.000 OA
ATOM     14  C   UNL     1      43.652   3.040  12.277  0.00  0.00    +0.000 C 
ATOM     15  C   UNL     1      44.251   4.289  12.909  0.00  0.00    +0.000 C 
ENDBRANCH   8  10
ENDBRANCH   1   4
BRANCH   1  16
ATOM     16  N   UNL     1      50.142   7.288  14.053  0.00  0.00    +0.000 N 
ATOM     17  H   UNL     1      51.140   7.465  13.989  0.00  0.00    +0.000 HD
BRANCH  16  21
ATOM     18  C   UNL     1      48.326   6.923  17.828  0.00  0.00    +0.000 A 
ATOM     19  C   UNL     1      48.633   8.193  17.335  0.00  0.00    +0.000 A 
ATOM     20  C   UNL     1      49.306   8.317  16.125  0.00  0.00    +0.000 A 
ATOM     21  C   UNL     1      49.693   7.190  15.389  0.00  0.00    +0.000 A 
ATOM     22  C   UNL     1      49.470   5.925  15.949  0.00  0.00    +0.000 A 
ATOM     23  C   UNL     1      48.806   5.788  17.173  0.00  0.00    +0.000 A 
BRANCH  18  25
ATOM     24  N   UNL     1      46.588   5.698  18.958  0.00  0.00    +0.000 N 
ATOM     25  C   UNL     1      47.412   6.780  18.987  0.00  0.00    +0.000 C 
ATOM     26  O   UNL     1      47.460   7.543  19.943  0.00  0.00    +0.000 OA
ATOM     27  H   UNL     1      46.086   5.481  19.810  0.00  0.00    +0.000 HD
ATOM     28  H   UNL     1      46.739   4.935  18.308  0.00  0.00    +0.000 HD
ENDBRANCH  18  25
ENDBRANCH  16  21
ENDBRANCH   1  16
TORSDOF 5
ENDMDL
MODEL 7
REMARK VINA RESULT:    -6.239      3.578      7.650
REMARK INTER + INTRA:          -8.947
REMARK INTER:                  -8.437
REMARK INTRA:                  -0.509
REMARK UNBOUND:                -0.884
REMARK  Name = 
REMARK  5 active torsions:
REMARK  status: ('A' for Active; 'I' for Inactive)
REMARK    1  A    between atoms: C_2  and  C_4
REMARK    2  A    between atoms: C_7  and  N_8
REMARK    3  A    between atoms: N_8  and  C_9
REMARK    4  A    between atoms: C_9  and  C_10
REMARK    5  A    between atoms: C_14  and  C_15
REMARK                            x       y       z     vdW  Elec       q    Type
REMARK                         _______ _______ _______ _____ _____    ______ ____
ROOT
ATOM      1  C   UNL     1      48.326   7.896  14.287  0.00  0.00    +0.000 C 
ATOM      2  C   UNL     1      49.493   7.325  13.478  0.00  0.00    +0.000 C 
ATOM      3  C   UNL     1      49.385   8.800  13.677  0.00  0.00    +0.000 C 
ENDROOT
BRANCH   1   4
ATOM      4  C   UNL     1      46.985   7.698  13.573  0.00  0.00    +0.000 A 
ATOM      5  C   UNL     1      46.342   8.756  12.909  0.00  0.00    +0.000 A 
ATOM      6  C   UNL     1      45.351   8.521  11.959  0.00  0.00    +0.000 A 
ATOM      7  C   UNL     1      44.975   7.216  11.666  0.00  0.00    +0.000 A 
ATOM      8  C   UNL     1      45.515   6.137  12.381  0.00  0.00    +0.000 A 
ATOM      9  C   UNL     1      46.485   6.399  13.362  0.00  0.00    +0.000 A 
BRANCH   8  10
ATOM     10  C   UNL     1      45.188   4.703  12.004  0.00  0.00    +0.000 C 
ATOM     11  C   UNL     1      44.961   4.598  10.485  0.00  0.00    +0.000 C 
ATOM     12  C   UNL     1      44.451   3.223  10.089  0.00  0.00    +0.000 C 
ATOM     13  O   UNL     1      43.292   2.879  10.842  0.00  0.00    +0.000 OA
ATOM     14  C   UNL     1      43.568   2.788  12.238  0.00  0.00    +0.000 C 
ATOM     15  C   UNL     1      43.992   4.144  12.786  0.00  0.00    +0.000 C 
ENDBRANCH   8  10
ENDBRANCH   1   4
BRANCH   1  16
ATOM     16  N   UNL     1      48.344   7.714  15.754  0.00  0.00    +0.000 N 
ATOM     17  H   UNL     1      47.600   8.169  16.274  0.00  0.00    +0.000 HD
BRANCH  16  21
ATOM     18  C   UNL     1      49.837   4.015  17.084  0.00  0.00    +0.000 A 
ATOM     19  C   UNL     1      48.505   4.109  16.676  0.00  0.00    +0.000 A 
ATOM     20  C   UNL     1      47.983   5.346  16.313  0.00  0.00    +0.000 A 
ATOM     21  C   UNL     1      48.766   6.506  16.354  0.00  0.00    +0.000 A 
ATOM     22  C   UNL     1      50.067   6.409  16.864  0.00  0.00    +0.000 A 
ATOM     23  C   UNL     1      50.598   5.173  17.246  0.00  0.00    +0.000 A 
BRANCH  18  25
ATOM     24  N   UNL     1      51.383   2.582  18.250  0.00  0.00    +0.000 N 
ATOM     25  C   UNL     1      50.469   2.683  17.247  0.00  0.00    +0.000 C 
ATOM     26  O   UNL     1      50.124   1.720  16.574  0.00  0.00    +0.000 OA
ATOM     27  H   UNL     1      51.694   1.650  18.495  0.00  0.00    +0.000 HD
ATOM     28  H   UNL     1      51.465   3.296  18.965  0.00  0.00    +0.000 HD
ENDBRANCH  18  25
ENDBRANCH  16  21
ENDBRANCH   1  16
TORSDOF 5
ENDMDL
MODEL 8
REMARK VINA RESULT:    -6.103      2.978      4.865
REMARK INTER + INTRA:          -8.771
REMARK INTER:                  -8.150
REMARK INTRA:                  -0.621
REMARK UNBOUND:                -0.884
REMARK  Name = 
REMARK  5 active torsions:
REMARK  status: ('A' for Active; 'I' for Inactive)
REMARK    1  A    between atoms: C_2  and  C_4
REMARK    2  A    between atoms: C_7  and  N_8
REMARK    3  A    between atoms: N_8  and  C_9
REMARK    4  A    between atoms: C_9  and  C_10
REMARK    5  A    between atoms: C_14  and  C_15
REMARK                            x       y       z     vdW  Elec       q    Type
REMARK                         _______ _______ _______ _____ _____    ______ ____
ROOT
ATOM      1  C   UNL     1      48.058   7.795  13.370  0.00  0.00    +0.000 C 
ATOM      2  C   UNL     1      48.338   9.284  13.157  0.00  0.00    +0.000 C 
ATOM      3  C   UNL     1      48.606   8.318  12.052  0.00  0.00    +0.000 C 
ENDROOT
BRANCH   1   4
ATOM      4  C   UNL     1      49.007   7.177  14.402  0.00  0.00    +0.000 A 
ATOM      5  C   UNL     1      50.369   7.516  14.445  0.00  0.00    +0.000 A 
ATOM      6  C   UNL     1      51.143   7.272  15.577  0.00  0.00    +0.000 A 
ATOM      7  C   UNL     1      50.566   6.667  16.686  0.00  0.00    +0.000 A 
ATOM      8  C   UNL     1      49.238   6.217  16.648  0.00  0.00    +0.000 A 
ATOM      9  C   UNL     1      48.487   6.438  15.482  0.00  0.00    +0.000 A 
BRANCH   8  10
ATOM     10  C   UNL     1      48.566   5.645  17.884  0.00  0.00    +0.000 C 
ATOM     11  C   UNL     1      47.947   6.782  18.717  0.00  0.00    +0.000 C 
ATOM     12  C   UNL     1      47.427   6.277  20.052  0.00  0.00    +0.000 C 
ATOM     13  O   UNL     1      48.445   5.573  20.757  0.00  0.00    +0.000 OA
ATOM     14  C   UNL     1      48.872   4.406  20.055  0.00  0.00    +0.000 C 
ATOM     15  C   UNL     1      49.517   4.788  18.730  0.00  0.00    +0.000 C 
ENDBRANCH   8  10
ENDBRANCH   1   4
BRANCH   1  16
ATOM     16  N   UNL     1      46.649   7.351  13.397  0.00  0.00    +0.000 N 
ATOM     17  H   UNL     1      45.945   8.081  13.448  0.00  0.00    +0.000 HD
BRANCH  16  21
ATOM     18  C   UNL     1      44.845   4.172  11.316  0.00  0.00    +0.000 A 
ATOM     19  C   UNL     1      45.270   3.976  12.632  0.00  0.00    +0.000 A 
ATOM     20  C   UNL     1      45.940   4.997  13.297  0.00  0.00    +0.000 A 
ATOM     21  C   UNL     1      46.206   6.221  12.672  0.00  0.00    +0.000 A 
ATOM     22  C   UNL     1      45.865   6.362  11.320  0.00  0.00    +0.000 A 
ATOM     23  C   UNL     1      45.203   5.337  10.636  0.00  0.00    +0.000 A 
BRANCH  18  25
ATOM     24  N   UNL     1      44.153   2.952   9.359  0.00  0.00    +0.000 N 
ATOM     25  C   UNL     1      43.932   3.192  10.680  0.00  0.00    +0.000 C 
ATOM     26  O   UNL     1      43.091   2.580  11.326  0.00  0.00    +0.000 OA
ATOM     27  H   UNL     1      43.665   2.164   8.949  0.00  0.00    +0.000 HD
ATOM     28  H   UNL     1      45.006   3.251   8.902  0.00  0.00    +0.000 HD
ENDBRANCH  18  25
ENDBRANCH  16  21
ENDBRANCH   1  16
TORSDOF 5
ENDMDL
