MODEL 1
REMARK VINA RESULT:    -8.352      0.000      0.000
REMARK INTER + INTRA:         -10.761
REMARK INTER:                 -10.305
REMARK INTRA:                  -0.456
REMARK UNBOUND:                -0.456
REMARK  Name = 
REMARK  4 active torsions:
REMARK  status: ('A' for Active; 'I' for Inactive)
REMARK    1  A    between atoms: C_2  and  C_4
REMARK    2  A    between atoms: C_7  and  N_8
REMARK    3  A    between atoms: N_8  and  C_9
REMARK    4  A    between atoms: C_9  and  C_10
REMARK                            x       y       z     vdW  Elec       q    Type
REMARK                         _______ _______ _______ _____ _____    ______ ____
ROOT
ATOM      1  C   UNL     1      46.450   2.316   7.712  0.00  0.00    +0.000 A 
ATOM      2  C   UNL     1      46.466   3.680   7.464  0.00  0.00    +0.000 A 
ATOM      3  N   UNL     1      45.641   4.548   8.106  0.00  0.00    +0.000 NA
ATOM      4  C   UNL     1      44.774   4.019   9.000  0.00  0.00    +0.000 A 
ATOM      5  C   UNL     1      44.765   2.631   9.217  0.00  0.00    +0.000 A 
ATOM      6  N   UNL     1      45.602   1.750   8.608  0.00  0.00    +0.000 NA
ENDROOT
BRANCH   1   8
ATOM      7  N   UNL     1      48.505   2.020   6.471  0.00  0.00    +0.000 N 
ATOM      8  C   UNL     1      47.386   1.418   6.981  0.00  0.00    +0.000 C 
ATOM      9  O   UNL     1      47.176   0.219   6.842  0.00  0.00    +0.000 OA
ATOM     10  H   UNL     1      49.189   1.459   5.981  0.00  0.00    +0.000 HD
ATOM     11  H   UNL     1      48.663   3.008   6.618  0.00  0.00    +0.000 HD
ENDBRANCH   1   8
BRANCH   4  12
ATOM     12  N   UNL     1      43.821   4.830   9.666  0.00  0.00    +0.000 N 
ATOM     13  H   UNL     1      42.891   4.617   9.322  0.00  0.00    +0.000 HD
BRANCH  12  14
ATOM     14  C   UNL     1      43.875   4.931  11.149  0.00  0.00    +0.000 C 
ATOM     15  C   UNL     1      42.949   4.057  11.980  0.00  0.00    +0.000 C 
ATOM     16  C   UNL     1      42.651   5.514  11.853  0.00  0.00    +0.000 C 
BRANCH  14  17
ATOM     17  C   UNL     1      45.223   5.354  11.733  0.00  0.00    +0.000 A 
ATOM     18  C   UNL     1      45.893   6.501  11.268  0.00  0.00    +0.000 A 
ATOM     19  C   UNL     1      47.063   6.963  11.877  0.00  0.00    +0.000 A 
ATOM     20  C   UNL     1      47.599   6.277  12.963  0.00  0.00    +0.000 A 
ATOM     21  C   UNL     1      46.981   5.118  13.420  0.00  0.00    +0.000 A 
ATOM     22  C   UNL     1      45.813   4.660  12.803  0.00  0.00    +0.000 A 
ENDBRANCH  14  17
ENDBRANCH  12  14
ENDBRANCH   4  12
TORSDOF 4
ENDMDL
MODEL 2
REMARK VINA RESULT:    -6.324      3.763      5.880
REMARK INTER + INTRA:          -8.259
REMARK INTER:                  -8.139
REMARK INTRA:                  -0.120
REMARK UNBOUND:                -0.456
REMARK  Name = 
REMARK  4 active torsions:
REMARK  status: ('A' for Active; 'I' for Inactive)
REMARK    1  A    between atoms: C_2  and  C_4
REMARK    2  A    between atoms: C_7  and  N_8
REMARK    3  A    between atoms: N_8  and  C_9
REMARK    4  A    between atoms: C_9  and  C_10
REMARK                            x       y       z     vdW  Elec       q    Type
REMARK                         _______ _______ _______ _____ _____    ______ ____
ROOT
ATOM      1  C   UNL     1      48.424   6.836  13.307  0.00  0.00    +0.000 A 
ATOM      2  C   UNL     1      47.678   7.005  12.151  0.00  0.00    +0.000 A 
ATOM      3  N   UNL     1      46.595   6.235  11.862  0.00  0.00    +0.000 NA
ATOM      4  C   UNL     1      46.278   5.268  12.753  0.00  0.00    +0.000 A 
ATOM      5  C   UNL     1      47.064   5.106  13.907  0.00  0.00    +0.000 A 
ATOM      6  N   UNL     1      48.130   5.883  14.229  0.00  0.00    +0.000 NA
ENDROOT
BRANCH   1   8
ATOM      7  N   UNL     1      50.635   7.596  12.692  0.00  0.00    +0.000 N 
ATOM      8  C   UNL     1      49.594   7.718  13.571  0.00  0.00    +0.000 C 
ATOM      9  O   UNL     1      49.628   8.505  14.510  0.00  0.00    +0.000 OA
ATOM     10  H   UNL     1      51.452   8.183  12.806  0.00  0.00    +0.000 HD
ATOM     11  H   UNL     1      50.572   6.953  11.913  0.00  0.00    +0.000 HD
ENDBRANCH   1   8
BRANCH   4  12
ATOM     12  N   UNL     1      45.214   4.364  12.507  0.00  0.00    +0.000 N 
ATOM     13  H   UNL     1      44.663   4.248  13.351  0.00  0.00    +0.000 HD
BRANCH  12  14
ATOM     14  C   UNL     1      44.373   4.558  11.295  0.00  0.00    +0.000 C 
ATOM     15  C   UNL     1      43.523   5.813  11.183  0.00  0.00    +0.000 C 
ATOM     16  C   UNL     1      42.858   4.512  11.484  0.00  0.00    +0.000 C 
BRANCH  14  17
ATOM     17  C   UNL     1      44.891   3.892  10.020  0.00  0.00    +0.000 A 
ATOM     18  C   UNL     1      45.426   4.653   8.964  0.00  0.00    +0.000 A 
ATOM     19  C   UNL     1      46.012   4.048   7.849  0.00  0.00    +0.000 A 
ATOM     20  C   UNL     1      46.065   2.660   7.759  0.00  0.00    +0.000 A 
ATOM     21  C   UNL     1      45.508   1.882   8.768  0.00  0.00    +0.000 A 
ATOM     22  C   UNL     1      44.920   2.494   9.879  0.00  0.00    +0.000 A 
ENDBRANCH  14  17
ENDBRANCH  12  14
ENDBRANCH   4  12
TORSDOF 4
ENDMDL
MODEL 3
REMARK VINA RESULT:    -6.190      4.531      6.686
REMARK INTER + INTRA:          -8.093
REMARK INTER:                  -8.069
REMARK INTRA:                  -0.024
REMARK UNBOUND:                -0.456
REMARK  Name = 
REMARK  4 active torsions:
REMARK  status: ('A' for Active; 'I' for Inactive)
REMARK    1  A    between atoms: C_2  and  C_4
REMARK    2  A    between atoms: C_7  and  N_8
REMARK    3  A    between atoms: N_8  and  C_9
REMARK    4  A    between atoms: C_9  and  C_10
REMARK                            x       y       z     vdW  Elec       q    Type
REMARK                         _______ _______ _______ _____ _____    ______ ____
ROOT
ATOM      1  C   UNL     1      48.334   5.875  15.432  0.00  0.00    +0.000 A 
ATOM      2  C   UNL     1      47.649   4.831  16.033  0.00  0.00    +0.000 A 
ATOM      3  N   UNL     1      46.815   4.010  15.340  0.00  0.00    +0.000 NA
ATOM      4  C   UNL     1      46.661   4.268  14.021  0.00  0.00    +0.000 A 
ATOM      5  C   UNL     1      47.353   5.346  13.442  0.00  0.00    +0.000 A 
ATOM      6  N   UNL     1      48.213   6.158  14.109  0.00  0.00    +0.000 NA
ENDROOT
BRANCH   1   8
ATOM      7  N   UNL     1      50.482   6.949  15.713  0.00  0.00    +0.000 N 
ATOM      8  C   UNL     1      49.240   6.732  16.244  0.00  0.00    +0.000 C 
ATOM      9  O   UNL     1      48.903   7.216  17.318  0.00  0.00    +0.000 OA
ATOM     10  H   UNL     1      51.138   7.539  16.209  0.00  0.00    +0.000 HD
ATOM     11  H   UNL     1      50.728   6.553  14.814  0.00  0.00    +0.000 HD
ENDBRANCH   1   8
BRANCH   4  12
ATOM     12  N   UNL     1      45.757   3.518  13.227  0.00  0.00    +0.000 N 
ATOM     13  H   UNL     1      45.351   2.773  13.784  0.00  0.00    +0.000 HD
BRANCH  12  14
ATOM     14  C   UNL     1      44.745   4.243  12.413  0.00  0.00    +0.000 C 
ATOM     15  C   UNL     1      44.187   5.557  12.934  0.00  0.00    +0.000 C 
ATOM     16  C   UNL     1      43.330   4.336  12.982  0.00  0.00    +0.000 C 
BRANCH  14  17
ATOM     17  C   UNL     1      44.826   4.013  10.904  0.00  0.00    +0.000 A 
ATOM     18  C   UNL     1      45.401   4.973  10.049  0.00  0.00    +0.000 A 
ATOM     19  C   UNL     1      45.589   4.721   8.687  0.00  0.00    +0.000 A 
ATOM     20  C   UNL     1      45.193   3.501   8.144  0.00  0.00    +0.000 A 
ATOM     21  C   UNL     1      44.586   2.550   8.957  0.00  0.00    +0.000 A 
ATOM     22  C   UNL     1      44.397   2.810  10.317  0.00  0.00    +0.000 A 
ENDBRANCH  14  17
ENDBRANCH  12  14
ENDBRANCH   4  12
TORSDOF 4
ENDMDL
MODEL 4
REMARK VINA RESULT:    -6.008      4.031      6.168
REMARK INTER + INTRA:          -7.869
REMARK INTER:                  -8.351
REMARK INTRA:                   0.482
REMARK UNBOUND:                -0.456
REMARK  Name = 
REMARK  4 active torsions:
REMARK  status: ('A' for Active; 'I' for Inactive)
REMARK    1  A    between atoms: C_2  and  C_4
REMARK    2  A    between atoms: C_7  and  N_8
REMARK    3  A    between atoms: N_8  and  C_9
REMARK    4  A    between atoms: C_9  and  C_10
REMARK                            x       y       z     vdW  Elec       q    Type
REMARK                         _______ _______ _______ _____ _____    ______ ____
ROOT
ATOM      1  C   UNL     1      47.570   3.772  15.386  0.00  0.00    +0.000 A 
ATOM      2  C   UNL     1      47.568   5.158  15.411  0.00  0.00    +0.000 A 
ATOM      3  N   UNL     1      47.200   5.907  14.338  0.00  0.00    +0.000 NA
ATOM      4  C   UNL     1      46.846   5.237  13.217  0.00  0.00    +0.000 A 
ATOM      5  C   UNL     1      46.877   3.832  13.213  0.00  0.00    +0.000 A 
ATOM      6  N   UNL     1      47.212   3.065  14.283  0.00  0.00    +0.000 NA
ENDROOT
BRANCH   1   8
ATOM      7  N   UNL     1      47.019   2.890  17.569  0.00  0.00    +0.000 N 
ATOM      8  C   UNL     1      47.975   3.009  16.598  0.00  0.00    +0.000 C 
ATOM      9  O   UNL     1      49.090   2.515  16.724  0.00  0.00    +0.000 OA
ATOM     10  H   UNL     1      47.227   2.366  18.409  0.00  0.00    +0.000 HD
ATOM     11  H   UNL     1      46.100   3.290  17.430  0.00  0.00    +0.000 HD
ENDBRANCH   1   8
BRANCH   4  12
ATOM     12  N   UNL     1      46.519   5.926  12.023  0.00  0.00    +0.000 N 
ATOM     13  H   UNL     1      47.275   5.826  11.353  0.00  0.00    +0.000 HD
BRANCH  12  14
ATOM     14  C   UNL     1      45.180   5.711  11.413  0.00  0.00    +0.000 C 
ATOM     15  C   UNL     1      44.172   6.849  11.433  0.00  0.00    +0.000 C 
ATOM     16  C   UNL     1      43.979   5.695  12.359  0.00  0.00    +0.000 C 
BRANCH  14  17
ATOM     17  C   UNL     1      45.127   4.690  10.278  0.00  0.00    +0.000 A 
ATOM     18  C   UNL     1      45.712   4.959   9.026  0.00  0.00    +0.000 A 
ATOM     19  C   UNL     1      45.776   3.987   8.023  0.00  0.00    +0.000 A 
ATOM     20  C   UNL     1      45.243   2.720   8.248  0.00  0.00    +0.000 A 
ATOM     21  C   UNL     1      44.625   2.438   9.461  0.00  0.00    +0.000 A 
ATOM     22  C   UNL     1      44.560   3.416  10.458  0.00  0.00    +0.000 A 
ENDBRANCH  14  17
ENDBRANCH  12  14
ENDBRANCH   4  12
TORSDOF 4
ENDMDL
MODEL 5
REMARK VINA RESULT:    -5.741      3.187      5.232
REMARK INTER + INTRA:          -7.540
REMARK INTER:                  -7.275
REMARK INTRA:                  -0.265
REMARK UNBOUND:                -0.456
REMARK  Name = 
REMARK  4 active torsions:
REMARK  status: ('A' for Active; 'I' for Inactive)
REMARK    1  A    between atoms: C_2  and  C_4
REMARK    2  A    between atoms: C_7  and  N_8
REMARK    3  A    between atoms: N_8  and  C_9
REMARK    4  A    between atoms: C_9  and  C_10
REMARK                            x       y       z     vdW  Elec       q    Type
REMARK                         _______ _______ _______ _____ _____    ______ ____
ROOT
ATOM      1  C   UNL     1      44.669   3.943  11.650  0.00  0.00    +0.000 A 
ATOM      2  C   UNL     1      44.840   5.108  10.919  0.00  0.00    +0.000 A 
ATOM      3  N   UNL     1      45.438   6.214  11.437  0.00  0.00    +0.000 NA
ATOM      4  C   UNL     1      45.850   6.140  12.723  0.00  0.00    +0.000 A 
ATOM      5  C   UNL     1      45.646   4.953  13.447  0.00  0.00    +0.000 A 
ATOM      6  N   UNL     1      45.080   3.828  12.940  0.00  0.00    +0.000 NA
ENDROOT
BRANCH   1   8
ATOM      7  N   UNL     1      44.598   2.306   9.872  0.00  0.00    +0.000 N 
ATOM      8  C   UNL     1      44.015   2.763  11.023  0.00  0.00    +0.000 C 
ATOM      9  O   UNL     1      43.020   2.229  11.500  0.00  0.00    +0.000 OA
ATOM     10  H   UNL     1      44.211   1.494   9.409  0.00  0.00    +0.000 HD
ATOM     11  H   UNL     1      45.431   2.753   9.512  0.00  0.00    +0.000 HD
ENDBRANCH   1   8
BRANCH   4  12
ATOM     12  N   UNL     1      46.416   7.263  13.378  0.00  0.00    +0.000 N 
ATOM     13  H   UNL     1      46.309   7.163  14.382  0.00  0.00    +0.000 HD
BRANCH  12  14
ATOM     14  C   UNL     1      47.780   7.709  12.988  0.00  0.00    +0.000 C 
ATOM     15  C   UNL     1      48.870   6.666  12.803  0.00  0.00    +0.000 C 
ATOM     16  C   UNL     1      48.893   7.529  14.019  0.00  0.00    +0.000 C 
BRANCH  14  17
ATOM     17  C   UNL     1      47.845   9.006  12.181  0.00  0.00    +0.000 A 
ATOM     18  C   UNL     1      46.750   9.889  12.129  0.00  0.00    +0.000 A 
ATOM     19  C   UNL     1      46.841  11.132  11.496  0.00  0.00    +0.000 A 
ATOM     20  C   UNL     1      48.032  11.516  10.887  0.00  0.00    +0.000 A 
ATOM     21  C   UNL     1      49.119  10.648  10.889  0.00  0.00    +0.000 A 
ATOM     22  C   UNL     1      49.020   9.405  11.520  0.00  0.00    +0.000 A 
ENDBRANCH  14  17
ENDBRANCH  12  14
ENDBRANCH   4  12
TORSDOF 4
ENDMDL
MODEL 6
REMARK VINA RESULT:    -5.469      5.455      7.445
REMARK INTER + INTRA:          -7.204
REMARK INTER:                  -7.091
REMARK INTRA:                  -0.113
REMARK UNBOUND:                -0.456
REMARK  Name = 
REMARK  4 active torsions:
REMARK  status: ('A' for Active; 'I' for Inactive)
REMARK    1  A    between atoms: C_2  and  C_4
REMARK    2  A    between atoms: C_7  and  N_8
REMARK    3  A    between atoms: N_8  and  C_9
REMARK    4  A    between atoms: C_9  and  C_10
REMARK                            x       y       z     vdW  Elec       q    Type
REMARK                         _______ _______ _______ _____ _____    ______ ____
ROOT
ATOM      1  C   UNL     1      49.811   2.860  16.946  0.00  0.00    +0.000 A 
ATOM      2  C   UNL     1      48.904   2.148  16.176  0.00  0.00    +0.000 A 
ATOM      3  N   UNL     1      47.813   2.728  15.610  0.00  0.00    +0.000 NA
ATOM      4  C   UNL     1      47.631   4.048  15.847  0.00  0.00    +0.000 A 
ATOM      5  C   UNL     1      48.554   4.741  16.648  0.00  0.00    +0.000 A 
ATOM      6  N   UNL     1      49.667   4.187  17.197  0.00  0.00    +0.000 NA
ENDROOT
BRANCH   1   8
ATOM      7  N   UNL     1      51.736   2.909  18.408  0.00  0.00    +0.000 N 
ATOM      8  C   UNL     1      50.991   2.168  17.532  0.00  0.00    +0.000 C 
ATOM      9  O   UNL     1      51.283   1.010  17.252  0.00  0.00    +0.000 OA
ATOM     10  H   UNL     1      52.540   2.488  18.855  0.00  0.00    +0.000 HD
ATOM     11  H   UNL     1      51.461   3.855  18.636  0.00  0.00    +0.000 HD
ENDBRANCH   1   8
BRANCH   4  12
ATOM     12  N   UNL     1      46.485   4.729  15.364  0.00  0.00    +0.000 N 
ATOM     13  H   UNL     1      46.233   5.472  16.008  0.00  0.00    +0.000 HD
BRANCH  12  14
ATOM     14  C   UNL     1      46.454   5.165  13.943  0.00  0.00    +0.000 C 
ATOM     15  C   UNL     1      47.769   5.431  13.227  0.00  0.00    +0.000 C 
ATOM     16  C   UNL     1      46.923   6.588  13.641  0.00  0.00    +0.000 C 
BRANCH  14  17
ATOM     17  C   UNL     1      45.247   4.693  13.133  0.00  0.00    +0.000 A 
ATOM     18  C   UNL     1      44.079   5.473  13.041  0.00  0.00    +0.000 A 
ATOM     19  C   UNL     1      43.019   5.108  12.206  0.00  0.00    +0.000 A 
ATOM     20  C   UNL     1      43.099   3.942  11.450  0.00  0.00    +0.000 A 
ATOM     21  C   UNL     1      44.225   3.131  11.550  0.00  0.00    +0.000 A 
ATOM     22  C   UNL     1      45.280   3.500  12.390  0.00  0.00    +0.000 A 
ENDBRANCH  14  17
ENDBRANCH  12  14
ENDBRANCH   4  12
TORSDOF 4
ENDMDL
