MODEL 1
REMARK VINA RESULT:    -8.525      0.000      0.000
REMARK INTER + INTRA:         -12.513
REMARK INTER:                 -11.515
REMARK INTRA:                  -0.998
REMARK UNBOUND:                -0.998
REMARK  Name = 
REMARK  6 active torsions:
REMARK  status: ('A' for Active; 'I' for Inactive)
REMARK    1  A    between atoms: C_2  and  C_25
REMARK    2  A    between atoms: N_3  and  C_4
REMARK    3  A    between atoms: C_4  and  C_5
REMARK    4  A    between atoms: C_8  and  C_9
REMARK    5  A    between atoms: C_9  and  N_10
REMARK    6  A    between atoms: C_11  and  C_13
REMARK                            x       y       z     vdW  Elec       q    Type
REMARK                         _______ _______ _______ _____ _____    ______ ____
ROOT
ATOM      1  C   UNL     1      44.844   5.972  11.038  0.00  0.00    +0.000 A 
ATOM      2  C   UNL     1      44.431   7.254  11.426  0.00  0.00    +0.000 A 
ATOM      3  C   UNL     1      45.224   8.033  12.276  0.00  0.00    +0.000 A 
ATOM      4  C   UNL     1      46.456   7.554  12.740  0.00  0.00    +0.000 A 
ATOM      5  C   UNL     1      46.866   6.269  12.357  0.00  0.00    +0.000 A 
ATOM      6  C   UNL     1      46.073   5.492  11.508  0.00  0.00    +0.000 A 
ENDROOT
BRANCH   1   7
ATOM      7  C   UNL     1      43.999   5.144  10.105  0.00  0.00    +0.000 C 
BRANCH   7  10
ATOM      8  O   UNL     1      44.649   2.418   9.945  0.00  0.00    +0.000 OA
ATOM      9  C   UNL     1      45.063   3.182   9.084  0.00  0.00    +0.000 C 
ATOM     10  N   UNL     1      44.808   4.536   9.074  0.00  0.00    +0.000 N 
ATOM     11  H   UNL     1      44.978   5.073   8.234  0.00  0.00    +0.000 HD
BRANCH   9  12
ATOM     12  C   UNL     1      45.863   2.667   7.951  0.00  0.00    +0.000 A 
ATOM     13  C   UNL     1      46.140   3.435   6.817  0.00  0.00    +0.000 A 
ATOM     14  C   UNL     1      46.899   2.884   5.786  0.00  0.00    +0.000 A 
ATOM     15  C   UNL     1      47.357   1.584   5.928  0.00  0.00    +0.000 A 
ATOM     16  N   UNL     1      47.120   0.819   7.017  0.00  0.00    +0.000 NA
ATOM     17  C   UNL     1      46.387   1.382   8.012  0.00  0.00    +0.000 A 
ENDBRANCH   9  12
ENDBRANCH   7  10
ENDBRANCH   1   7
BRANCH   4  18
ATOM     18  C   UNL     1      47.310   8.381  13.668  0.00  0.00    +0.000 C 
BRANCH  18  19
ATOM     19  N   UNL     1      47.704   7.621  14.827  0.00  0.00    +0.000 N 
ATOM     20  C   UNL     1      48.946   7.047  14.918  0.00  0.00    +0.000 C 
ATOM     21  O   UNL     1      49.797   7.195  14.044  0.00  0.00    +0.000 OA
ATOM     22  H   UNL     1      46.960   7.296  15.436  0.00  0.00    +0.000 HD
BRANCH  20  23
ATOM     23  C   UNL     1      49.233   6.295  16.148  0.00  0.00    +0.000 A 
ATOM     24  C   UNL     1      50.282   6.688  16.967  0.00  0.00    +0.000 A 
ATOM     25  S   UNL     1      50.436   5.746  18.381  0.00  0.00    +0.000 S 
ATOM     26  C   UNL     1      49.139   4.747  17.921  0.00  0.00    +0.000 A 
ATOM     27  N   UNL     1      48.750   3.701  18.700  0.00  0.00    +0.000 NA
ATOM     28  C   UNL     1      47.776   3.007  18.217  0.00  0.00    +0.000 A 
ATOM     29  N   UNL     1      47.148   3.267  17.026  0.00  0.00    +0.000 N 
ATOM     30  C   UNL     1      47.491   4.325  16.218  0.00  0.00    +0.000 A 
ATOM     31  O   UNL     1      46.892   4.545  15.171  0.00  0.00    +0.000 OA
ATOM     32  C   UNL     1      48.588   5.134  16.713  0.00  0.00    +0.000 A 
ATOM     33  H   UNL     1      46.389   2.688  16.702  0.00  0.00    +0.000 HD
ENDBRANCH  20  23
ENDBRANCH  18  19
ENDBRANCH   4  18
TORSDOF 6
ENDMDL
MODEL 2
REMARK VINA RESULT:    -7.996      2.109      2.427
REMARK INTER + INTRA:         -11.799
REMARK INTER:                 -10.935
REMARK INTRA:                  -0.864
REMARK UNBOUND:                -0.998
REMARK  Name = 
REMARK  6 active torsions:
REMARK  status: ('A' for Active; 'I' for Inactive)
REMARK    1  A    between atoms: C_2  and  C_25
REMARK    2  A    between atoms: N_3  and  C_4
REMARK    3  A    between atoms: C_4  and  C_5
REMARK    4  A    between atoms: C_8  and  C_9
REMARK    5  A    between atoms: C_9  and  N_10
REMARK    6  A    between atoms: C_11  and  C_13
REMARK                            x       y       z     vdW  Elec       q    Type
REMARK                         _______ _______ _______ _____ _____    ______ ____
ROOT
ATOM      1  C   UNL     1      44.950   5.610  11.485  0.00  0.00    +0.000 A 
ATOM      2  C   UNL     1      45.001   7.010  11.537  0.00  0.00    +0.000 A 
ATOM      3  C   UNL     1      45.952   7.660  12.332  0.00  0.00    +0.000 A 
ATOM      4  C   UNL     1      46.885   6.925  13.074  0.00  0.00    +0.000 A 
ATOM      5  C   UNL     1      46.829   5.525  13.027  0.00  0.00    +0.000 A 
ATOM      6  C   UNL     1      45.879   4.876  12.233  0.00  0.00    +0.000 A 
ENDROOT
BRANCH   1   7
ATOM      7  C   UNL     1      43.940   4.912  10.612  0.00  0.00    +0.000 C 
BRANCH   7  10
ATOM      8  O   UNL     1      45.732   5.362   8.499  0.00  0.00    +0.000 OA
ATOM      9  C   UNL     1      45.439   4.212   8.799  0.00  0.00    +0.000 C 
ATOM     10  N   UNL     1      44.566   3.885   9.814  0.00  0.00    +0.000 N 
ATOM     11  H   UNL     1      44.536   2.936  10.163  0.00  0.00    +0.000 HD
BRANCH   9  12
ATOM     12  C   UNL     1      46.054   3.073   8.082  0.00  0.00    +0.000 A 
ATOM     13  C   UNL     1      46.817   3.240   6.924  0.00  0.00    +0.000 A 
ATOM     14  C   UNL     1      47.365   2.121   6.299  0.00  0.00    +0.000 A 
ATOM     15  C   UNL     1      47.134   0.874   6.860  0.00  0.00    +0.000 A 
ATOM     16  N   UNL     1      46.414   0.680   7.987  0.00  0.00    +0.000 NA
ATOM     17  C   UNL     1      45.899   1.787   8.582  0.00  0.00    +0.000 A 
ENDBRANCH   9  12
ENDBRANCH   7  10
ENDBRANCH   1   7
BRANCH   4  18
ATOM     18  C   UNL     1      47.903   7.618  13.944  0.00  0.00    +0.000 C 
BRANCH  18  19
ATOM     19  N   UNL     1      47.859   7.120  15.295  0.00  0.00    +0.000 N 
ATOM     20  C   UNL     1      48.977   6.612  15.908  0.00  0.00    +0.000 C 
ATOM     21  O   UNL     1      50.075   6.606  15.356  0.00  0.00    +0.000 OA
ATOM     22  H   UNL     1      46.943   6.901  15.673  0.00  0.00    +0.000 HD
BRANCH  20  23
ATOM     23  C   UNL     1      48.809   6.132  17.286  0.00  0.00    +0.000 A 
ATOM     24  C   UNL     1      49.105   4.812  17.598  0.00  0.00    +0.000 A 
ATOM     25  S   UNL     1      48.914   4.440  19.251  0.00  0.00    +0.000 S 
ATOM     26  C   UNL     1      48.378   6.016  19.600  0.00  0.00    +0.000 A 
ATOM     27  N   UNL     1      48.021   6.370  20.864  0.00  0.00    +0.000 NA
ATOM     28  C   UNL     1      47.602   7.584  20.981  0.00  0.00    +0.000 A 
ATOM     29  N   UNL     1      47.514   8.483  19.948  0.00  0.00    +0.000 N 
ATOM     30  C   UNL     1      47.885   8.176  18.660  0.00  0.00    +0.000 A 
ATOM     31  O   UNL     1      47.819   9.011  17.765  0.00  0.00    +0.000 OA
ATOM     32  C   UNL     1      48.357   6.818  18.473  0.00  0.00    +0.000 A 
ATOM     33  H   UNL     1      47.181   9.421  20.104  0.00  0.00    +0.000 HD
ENDBRANCH  20  23
ENDBRANCH  18  19
ENDBRANCH   4  18
TORSDOF 6
ENDMDL
MODEL 3
REMARK VINA RESULT:    -7.814      1.126      1.444
REMARK INTER + INTRA:         -11.553
REMARK INTER:                 -10.462
REMARK INTRA:                  -1.091
REMARK UNBOUND:                -0.998
REMARK  Name = 
REMARK  6 active torsions:
REMARK  status: ('A' for Active; 'I' for Inactive)
REMARK    1  A    between atoms: C_2  and  C_25
REMARK    2  A    between atoms: N_3  and  C_4
REMARK    3  A    between atoms: C_4  and  C_5
REMARK    4  A    between atoms: C_8  and  C_9
REMARK    5  A    between atoms: C_9  and  N_10
REMARK    6  A    between atoms: C_11  and  C_13
REMARK                            x       y       z     vdW  Elec       q    Type
REMARK                         _______ _______ _______ _____ _____    ______ ____
ROOT
ATOM      1  C   UNL     1      44.939   6.198  11.359  0.00  0.00    +0.000 A 
ATOM      2  C   UNL     1      45.959   5.579  12.095  0.00  0.00    +0.000 A 
ATOM      3  C   UNL     1      46.747   6.318  12.984  0.00  0.00    +0.000 A 
ATOM      4  C   UNL     1      46.519   7.688  13.171  0.00  0.00    +0.000 A 
ATOM      5  C   UNL     1      45.503   8.308  12.429  0.00  0.00    +0.000 A 
ATOM      6  C   UNL     1      44.716   7.568  11.541  0.00  0.00    +0.000 A 
ENDROOT
BRANCH   1   7
ATOM      7  C   UNL     1      44.078   5.395  10.419  0.00  0.00    +0.000 C 
BRANCH   7  10
ATOM      8  O   UNL     1      44.184   2.621  10.001  0.00  0.00    +0.000 OA
ATOM      9  C   UNL     1      44.856   3.358   9.292  0.00  0.00    +0.000 C 
ATOM     10  N   UNL     1      44.880   4.730   9.419  0.00  0.00    +0.000 N 
ATOM     11  H   UNL     1      45.267   5.297   8.676  0.00  0.00    +0.000 HD
BRANCH   9  12
ATOM     12  C   UNL     1      45.682   2.795   8.201  0.00  0.00    +0.000 A 
ATOM     13  C   UNL     1      46.041   3.537   7.073  0.00  0.00    +0.000 A 
ATOM     14  C   UNL     1      46.820   2.941   6.083  0.00  0.00    +0.000 A 
ATOM     15  C   UNL     1      47.217   1.625   6.260  0.00  0.00    +0.000 A 
ATOM     16  N   UNL     1      46.901   0.885   7.346  0.00  0.00    +0.000 NA
ATOM     17  C   UNL     1      46.149   1.491   8.300  0.00  0.00    +0.000 A 
ENDBRANCH   9  12
ENDBRANCH   7  10
ENDBRANCH   1   7
BRANCH   4  18
ATOM     18  C   UNL     1      47.373   8.495  14.115  0.00  0.00    +0.000 C 
BRANCH  18  19
ATOM     19  N   UNL     1      48.287   7.651  14.841  0.00  0.00    +0.000 N 
ATOM     20  C   UNL     1      48.647   7.930  16.135  0.00  0.00    +0.000 C 
ATOM     21  O   UNL     1      48.168   8.880  16.751  0.00  0.00    +0.000 OA
ATOM     22  H   UNL     1      48.860   7.018  14.292  0.00  0.00    +0.000 HD
BRANCH  20  23
ATOM     23  C   UNL     1      49.588   6.998  16.771  0.00  0.00    +0.000 A 
ATOM     24  C   UNL     1      50.798   7.468  17.261  0.00  0.00    +0.000 A 
ATOM     25  S   UNL     1      51.741   6.267  18.023  0.00  0.00    +0.000 S 
ATOM     26  C   UNL     1      50.588   5.066  17.676  0.00  0.00    +0.000 A 
ATOM     27  N   UNL     1      50.792   3.773  18.045  0.00  0.00    +0.000 NA
ATOM     28  C   UNL     1      49.853   2.961  17.692  0.00  0.00    +0.000 A 
ATOM     29  N   UNL     1      48.723   3.326  17.006  0.00  0.00    +0.000 N 
ATOM     30  C   UNL     1      48.464   4.624  16.632  0.00  0.00    +0.000 A 
ATOM     31  O   UNL     1      47.431   4.921  16.043  0.00  0.00    +0.000 OA
ATOM     32  C   UNL     1      49.493   5.577  17.001  0.00  0.00    +0.000 A 
ATOM     33  H   UNL     1      48.023   2.644  16.759  0.00  0.00    +0.000 HD
ENDBRANCH  20  23
ENDBRANCH  18  19
ENDBRANCH   4  18
TORSDOF 6
ENDMDL
MODEL 4
REMARK VINA RESULT:    -7.398      4.999      9.507
REMARK INTER + INTRA:         -10.991
REMARK INTER:                 -10.114
REMARK INTRA:                  -0.877
REMARK UNBOUND:                -0.998
REMARK  Name = 
REMARK  6 active torsions:
REMARK  status: ('A' for Active; 'I' for Inactive)
REMARK    1  A    between atoms: C_2  and  C_25
REMARK    2  A    between atoms: N_3  and  C_4
REMARK    3  A    between atoms: C_4  and  C_5
REMARK    4  A    between atoms: C_8  and  C_9
REMARK    5  A    between atoms: C_9  and  N_10
REMARK    6  A    between atoms: C_11  and  C_13
REMARK                            x       y       z     vdW  Elec       q    Type
REMARK                         _______ _______ _______ _____ _____    ______ ____
ROOT
ATOM      1  C   UNL     1      51.439   3.173  17.708  0.00  0.00    +0.000 A 
ATOM      2  C   UNL     1      50.742   2.067  17.200  0.00  0.00    +0.000 A 
ATOM      3  C   UNL     1      49.366   2.141  16.960  0.00  0.00    +0.000 A 
ATOM      4  C   UNL     1      48.661   3.326  17.203  0.00  0.00    +0.000 A 
ATOM      5  C   UNL     1      49.357   4.429  17.718  0.00  0.00    +0.000 A 
ATOM      6  C   UNL     1      50.732   4.356  17.957  0.00  0.00    +0.000 A 
ENDROOT
BRANCH   1   7
ATOM      7  C   UNL     1      52.925   3.099  17.945  0.00  0.00    +0.000 C 
BRANCH   7  10
ATOM      8  O   UNL     1      54.245   1.224  19.565  0.00  0.00    +0.000 OA
ATOM      9  C   UNL     1      54.087   0.980  18.376  0.00  0.00    +0.000 C 
ATOM     10  N   UNL     1      53.460   1.835  17.496  0.00  0.00    +0.000 N 
ATOM     11  H   UNL     1      53.159   1.493  16.592  0.00  0.00    +0.000 HD
BRANCH   9  12
ATOM     12  C   UNL     1      54.551  -0.306  17.810  0.00  0.00    +0.000 A 
ATOM     13  C   UNL     1      54.814  -0.475  16.448  0.00  0.00    +0.000 A 
ATOM     14  C   UNL     1      55.246  -1.716  15.984  0.00  0.00    +0.000 A 
ATOM     15  C   UNL     1      55.405  -2.743  16.901  0.00  0.00    +0.000 A 
ATOM     16  N   UNL     1      55.175  -2.609  18.226  0.00  0.00    +0.000 NA
ATOM     17  C   UNL     1      54.764  -1.388  18.654  0.00  0.00    +0.000 A 
ENDBRANCH   9  12
ENDBRANCH   7  10
ENDBRANCH   1   7
BRANCH   4  18
ATOM     18  C   UNL     1      47.175   3.409  16.962  0.00  0.00    +0.000 C 
BRANCH  18  19
ATOM     19  N   UNL     1      46.863   4.409  15.973  0.00  0.00    +0.000 N 
ATOM     20  C   UNL     1      46.978   4.149  14.630  0.00  0.00    +0.000 C 
ATOM     21  O   UNL     1      47.299   3.040  14.209  0.00  0.00    +0.000 OA
ATOM     22  H   UNL     1      46.827   5.372  16.291  0.00  0.00    +0.000 HD
BRANCH  20  23
ATOM     23  C   UNL     1      46.634   5.247  13.717  0.00  0.00    +0.000 A 
ATOM     24  C   UNL     1      47.544   6.273  13.498  0.00  0.00    +0.000 A 
ATOM     25  S   UNL     1      47.011   7.430  12.364  0.00  0.00    +0.000 S 
ATOM     26  C   UNL     1      45.523   6.630  12.166  0.00  0.00    +0.000 A 
ATOM     27  N   UNL     1      44.571   7.120  11.326  0.00  0.00    +0.000 NA
ATOM     28  C   UNL     1      43.480   6.433  11.296  0.00  0.00    +0.000 A 
ATOM     29  N   UNL     1      43.254   5.293  12.025  0.00  0.00    +0.000 N 
ATOM     30  C   UNL     1      44.195   4.749  12.868  0.00  0.00    +0.000 A 
ATOM     31  O   UNL     1      43.971   3.714  13.485  0.00  0.00    +0.000 OA
ATOM     32  C   UNL     1      45.440   5.488  12.944  0.00  0.00    +0.000 A 
ATOM     33  H   UNL     1      42.379   4.798  11.956  0.00  0.00    +0.000 HD
ENDBRANCH  20  23
ENDBRANCH  18  19
ENDBRANCH   4  18
TORSDOF 6
ENDMDL
MODEL 5
REMARK VINA RESULT:    -7.220      3.283      8.729
REMARK INTER + INTRA:         -10.751
REMARK INTER:                  -9.753
REMARK INTRA:                  -0.998
REMARK UNBOUND:                -0.998
REMARK  Name = 
REMARK  6 active torsions:
REMARK  status: ('A' for Active; 'I' for Inactive)
REMARK    1  A    between atoms: C_2  and  C_25
REMARK    2  A    between atoms: N_3  and  C_4
REMARK    3  A    between atoms: C_4  and  C_5
REMARK    4  A    between atoms: C_8  and  C_9
REMARK    5  A    between atoms: C_9  and  N_10
REMARK    6  A    between atoms: C_11  and  C_13
REMARK                            x       y       z     vdW  Elec       q    Type
REMARK                         _______ _______ _______ _____ _____    ______ ____
ROOT
ATOM      1  C   UNL     1      50.039   7.165  15.646  0.00  0.00    +0.000 A 
ATOM      2  C   UNL     1      48.800   6.518  15.536  0.00  0.00    +0.000 A 
ATOM      3  C   UNL     1      48.024   6.656  14.380  0.00  0.00    +0.000 A 
ATOM      4  C   UNL     1      48.479   7.427  13.302  0.00  0.00    +0.000 A 
ATOM      5  C   UNL     1      49.715   8.079  13.416  0.00  0.00    +0.000 A 
ATOM      6  C   UNL     1      50.490   7.941  14.571  0.00  0.00    +0.000 A 
ENDROOT
BRANCH   1   7
ATOM      7  C   UNL     1      50.882   6.997  16.883  0.00  0.00    +0.000 C 
BRANCH   7  10
ATOM      8  O   UNL     1      49.966   4.970  18.596  0.00  0.00    +0.000 OA
ATOM      9  C   UNL     1      50.897   4.735  17.837  0.00  0.00    +0.000 C 
ATOM     10  N   UNL     1      51.426   5.662  16.964  0.00  0.00    +0.000 N 
ATOM     11  H   UNL     1      52.031   5.355  16.213  0.00  0.00    +0.000 HD
BRANCH   9  12
ATOM     12  C   UNL     1      51.505   3.387  17.796  0.00  0.00    +0.000 A 
ATOM     13  C   UNL     1      52.808   3.137  18.234  0.00  0.00    +0.000 A 
ATOM     14  C   UNL     1      53.317   1.842  18.164  0.00  0.00    +0.000 A 
ATOM     15  C   UNL     1      52.501   0.840  17.661  0.00  0.00    +0.000 A 
ATOM     16  N   UNL     1      51.232   1.044  17.244  0.00  0.00    +0.000 NA
ATOM     17  C   UNL     1      50.756   2.313  17.332  0.00  0.00    +0.000 A 
ENDBRANCH   9  12
ENDBRANCH   7  10
ENDBRANCH   1   7
BRANCH   4  18
ATOM     18  C   UNL     1      47.643   7.593  12.059  0.00  0.00    +0.000 C 
BRANCH  18  19
ATOM     19  N   UNL     1      46.925   6.383  11.749  0.00  0.00    +0.000 N 
ATOM     20  C   UNL     1      45.555   6.329  11.802  0.00  0.00    +0.000 C 
ATOM     21  O   UNL     1      44.876   7.319  12.064  0.00  0.00    +0.000 OA
ATOM     22  H   UNL     1      47.457   5.518  11.762  0.00  0.00    +0.000 HD
BRANCH  20  23
ATOM     23  C   UNL     1      44.935   5.040  11.467  0.00  0.00    +0.000 A 
ATOM     24  C   UNL     1      44.193   4.362  12.424  0.00  0.00    +0.000 A 
ATOM     25  S   UNL     1      43.493   2.916  11.849  0.00  0.00    +0.000 S 
ATOM     26  C   UNL     1      44.202   3.118  10.317  0.00  0.00    +0.000 A 
ATOM     27  N   UNL     1      44.015   2.198   9.332  0.00  0.00    +0.000 NA
ATOM     28  C   UNL     1      44.635   2.459   8.232  0.00  0.00    +0.000 A 
ATOM     29  N   UNL     1      45.423   3.562   8.022  0.00  0.00    +0.000 N 
ATOM     30  C   UNL     1      45.622   4.528   8.980  0.00  0.00    +0.000 A 
ATOM     31  O   UNL     1      46.312   5.516   8.751  0.00  0.00    +0.000 OA
ATOM     32  C   UNL     1      44.951   4.279  10.240  0.00  0.00    +0.000 A 
ATOM     33  H   UNL     1      45.882   3.711   7.137  0.00  0.00    +0.000 HD
ENDBRANCH  20  23
ENDBRANCH  18  19
ENDBRANCH   4  18
TORSDOF 6
ENDMDL
MODEL 6
REMARK VINA RESULT:    -7.118      1.619      2.517
REMARK INTER + INTRA:         -10.613
REMARK INTER:                  -9.879
REMARK INTRA:                  -0.734
REMARK UNBOUND:                -0.998
REMARK  Name = 
REMARK  6 active torsions:
REMARK  status: ('A' for Active; 'I' for Inactive)
REMARK    1  A    between atoms: C_2  and  C_25
REMARK    2  A    between atoms: N_3  and  C_4
REMARK    3  A    between atoms: C_4  and  C_5
REMARK    4  A    between atoms: C_8  and  C_9
REMARK    5  A    between atoms: C_9  and  N_10
REMARK    6  A    between atoms: C_11  and  C_13
REMARK                            x       y       z     vdW  Elec       q    Type
REMARK                         _______ _______ _______ _____ _____    ______ ____
ROOT
ATOM      1  C   UNL     1      45.045   6.260  11.410  0.00  0.00    +0.000 A 
ATOM      2  C   UNL     1      44.919   7.643  11.598  0.00  0.00    +0.000 A 
ATOM      3  C   UNL     1      45.772   8.324  12.473  0.00  0.00    +0.000 A 
ATOM      4  C   UNL     1      46.782   7.641  13.163  0.00  0.00    +0.000 A 
ATOM      5  C   UNL     1      46.902   6.256  12.980  0.00  0.00    +0.000 A 
ATOM      6  C   UNL     1      46.050   5.576  12.106  0.00  0.00    +0.000 A 
ENDROOT
BRANCH   1   7
ATOM      7  C   UNL     1      44.140   5.531  10.451  0.00  0.00    +0.000 C 
BRANCH   7  10
ATOM      8  O   UNL     1      44.150   2.738  10.165  0.00  0.00    +0.000 OA
ATOM      9  C   UNL     1      44.835   3.418   9.412  0.00  0.00    +0.000 C 
ATOM     10  N   UNL     1      44.906   4.793   9.474  0.00  0.00    +0.000 N 
ATOM     11  H   UNL     1      45.300   5.310   8.699  0.00  0.00    +0.000 HD
BRANCH   9  12
ATOM     12  C   UNL     1      45.626   2.777   8.339  0.00  0.00    +0.000 A 
ATOM     13  C   UNL     1      46.051   1.448   8.412  0.00  0.00    +0.000 A 
ATOM     14  C   UNL     1      46.797   0.910   7.365  0.00  0.00    +0.000 A 
ATOM     15  C   UNL     1      47.086   1.720   6.278  0.00  0.00    +0.000 A 
ATOM     16  N   UNL     1      46.678   3.004   6.169  0.00  0.00    +0.000 NA
ATOM     17  C   UNL     1      45.945   3.502   7.198  0.00  0.00    +0.000 A 
ENDBRANCH   9  12
ENDBRANCH   7  10
ENDBRANCH   1   7
BRANCH   4  18
ATOM     18  C   UNL     1      47.695   8.365  14.119  0.00  0.00    +0.000 C 
BRANCH  18  19
ATOM     19  N   UNL     1      47.947   7.575  15.297  0.00  0.00    +0.000 N 
ATOM     20  C   UNL     1      49.127   6.895  15.464  0.00  0.00    +0.000 C 
ATOM     21  O   UNL     1      50.041   6.968  14.645  0.00  0.00    +0.000 OA
ATOM     22  H   UNL     1      47.141   7.315  15.856  0.00  0.00    +0.000 HD
BRANCH  20  23
ATOM     23  C   UNL     1      49.270   6.121  16.705  0.00  0.00    +0.000 A 
ATOM     24  C   UNL     1      48.425   5.047  16.949  0.00  0.00    +0.000 A 
ATOM     25  S   UNL     1      48.768   4.223  18.402  0.00  0.00    +0.000 S 
ATOM     26  C   UNL     1      50.023   5.306  18.783  0.00  0.00    +0.000 A 
ATOM     27  N   UNL     1      50.734   5.176  19.936  0.00  0.00    +0.000 NA
ATOM     28  C   UNL     1      51.633   6.083  20.115  0.00  0.00    +0.000 A 
ATOM     29  N   UNL     1      51.892   7.109  19.241  0.00  0.00    +0.000 N 
ATOM     30  C   UNL     1      51.215   7.266  18.055  0.00  0.00    +0.000 A 
ATOM     31  O   UNL     1      51.489   8.179  17.284  0.00  0.00    +0.000 OA
ATOM     32  C   UNL     1      50.187   6.275  17.809  0.00  0.00    +0.000 A 
ATOM     33  H   UNL     1      52.611   7.787  19.437  0.00  0.00    +0.000 HD
ENDBRANCH  20  23
ENDBRANCH  18  19
ENDBRANCH   4  18
TORSDOF 6
ENDMDL
MODEL 7
REMARK VINA RESULT:    -7.001      4.959      7.444
REMARK INTER + INTRA:         -10.455
REMARK INTER:                  -9.500
REMARK INTRA:                  -0.955
REMARK UNBOUND:                -0.998
REMARK  Name = 
REMARK  6 active torsions:
REMARK  status: ('A' for Active; 'I' for Inactive)
REMARK    1  A    between atoms: C_2  and  C_25
REMARK    2  A    between atoms: N_3  and  C_4
REMARK    3  A    between atoms: C_4  and  C_5
REMARK    4  A    between atoms: C_8  and  C_9
REMARK    5  A    between atoms: C_9  and  N_10
REMARK    6  A    between atoms: C_11  and  C_13
REMARK                            x       y       z     vdW  Elec       q    Type
REMARK                         _______ _______ _______ _____ _____    ______ ____
ROOT
ATOM      1  C   UNL     1      50.461   8.785  11.509  0.00  0.00    +0.000 A 
ATOM      2  C   UNL     1      49.570   9.864  11.597  0.00  0.00    +0.000 A 
ATOM      3  C   UNL     1      48.255   9.669  12.032  0.00  0.00    +0.000 A 
ATOM      4  C   UNL     1      47.808   8.395  12.407  0.00  0.00    +0.000 A 
ATOM      5  C   UNL     1      48.697   7.316  12.312  0.00  0.00    +0.000 A 
ATOM      6  C   UNL     1      50.011   7.510  11.878  0.00  0.00    +0.000 A 
ENDROOT
BRANCH   1   7
ATOM      7  C   UNL     1      51.884   9.000  11.062  0.00  0.00    +0.000 C 
BRANCH   7  10
ATOM      8  O   UNL     1      52.717   9.038   8.381  0.00  0.00    +0.000 OA
ATOM      9  C   UNL     1      52.765   7.987   9.007  0.00  0.00    +0.000 C 
ATOM     10  N   UNL     1      52.373   7.861  10.322  0.00  0.00    +0.000 N 
ATOM     11  H   UNL     1      52.642   7.040  10.849  0.00  0.00    +0.000 HD
BRANCH   9  12
ATOM     12  C   UNL     1      53.294   6.761   8.369  0.00  0.00    +0.000 A 
ATOM     13  C   UNL     1      54.309   5.993   8.945  0.00  0.00    +0.000 A 
ATOM     14  C   UNL     1      54.761   4.851   8.286  0.00  0.00    +0.000 A 
ATOM     15  C   UNL     1      54.175   4.515   7.075  0.00  0.00    +0.000 A 
ATOM     16  N   UNL     1      53.181   5.226   6.499  0.00  0.00    +0.000 NA
ATOM     17  C   UNL     1      52.753   6.329   7.165  0.00  0.00    +0.000 A 
ENDBRANCH   9  12
ENDBRANCH   7  10
ENDBRANCH   1   7
BRANCH   4  18
ATOM     18  C   UNL     1      46.388   8.174  12.862  0.00  0.00    +0.000 C 
BRANCH  18  19
ATOM     19  N   UNL     1      45.944   6.839  12.552  0.00  0.00    +0.000 N 
ATOM     20  C   UNL     1      44.912   6.613  11.676  0.00  0.00    +0.000 C 
ATOM     21  O   UNL     1      44.356   7.531  11.077  0.00  0.00    +0.000 OA
ATOM     22  H   UNL     1      46.220   6.104  13.195  0.00  0.00    +0.000 HD
BRANCH  20  23
ATOM     23  C   UNL     1      44.547   5.210  11.441  0.00  0.00    +0.000 A 
ATOM     24  C   UNL     1      43.827   4.514  12.402  0.00  0.00    +0.000 A 
ATOM     25  S   UNL     1      43.434   2.919  11.942  0.00  0.00    +0.000 S 
ATOM     26  C   UNL     1      44.257   3.086  10.463  0.00  0.00    +0.000 A 
ATOM     27  N   UNL     1      44.325   2.053   9.580  0.00  0.00    +0.000 NA
ATOM     28  C   UNL     1      45.008   2.305   8.514  0.00  0.00    +0.000 A 
ATOM     29  N   UNL     1      45.625   3.500   8.247  0.00  0.00    +0.000 N 
ATOM     30  C   UNL     1      45.564   4.577   9.099  0.00  0.00    +0.000 A 
ATOM     31  O   UNL     1      46.106   5.641   8.817  0.00  0.00    +0.000 OA
ATOM     32  C   UNL     1      44.813   4.344  10.317  0.00  0.00    +0.000 A 
ATOM     33  H   UNL     1      46.144   3.637   7.393  0.00  0.00    +0.000 HD
ENDBRANCH  20  23
ENDBRANCH  18  19
ENDBRANCH   4  18
TORSDOF 6
ENDMDL
MODEL 8
REMARK VINA RESULT:    -6.946      3.444      5.299
REMARK INTER + INTRA:         -10.380
REMARK INTER:                  -9.638
REMARK INTRA:                  -0.742
REMARK UNBOUND:                -0.998
REMARK  Name = 
REMARK  6 active torsions:
REMARK  status: ('A' for Active; 'I' for Inactive)
REMARK    1  A    between atoms: C_2  and  C_25
REMARK    2  A    between atoms: N_3  and  C_4
REMARK    3  A    between atoms: C_4  and  C_5
REMARK    4  A    between atoms: C_8  and  C_9
REMARK    5  A    between atoms: C_9  and  N_10
REMARK    6  A    between atoms: C_11  and  C_13
REMARK                            x       y       z     vdW  Elec       q    Type
REMARK                         _______ _______ _______ _____ _____    ______ ____
ROOT
ATOM      1  C   UNL     1      47.514   5.678  14.515  0.00  0.00    +0.000 A 
ATOM      2  C   UNL     1      48.355   6.193  15.512  0.00  0.00    +0.000 A 
ATOM      3  C   UNL     1      48.632   5.451  16.665  0.00  0.00    +0.000 A 
ATOM      4  C   UNL     1      48.091   4.170  16.837  0.00  0.00    +0.000 A 
ATOM      5  C   UNL     1      47.244   3.659  15.843  0.00  0.00    +0.000 A 
ATOM      6  C   UNL     1      46.967   4.400  14.691  0.00  0.00    +0.000 A 
ENDROOT
BRANCH   1   7
ATOM      7  C   UNL     1      47.234   6.470  13.264  0.00  0.00    +0.000 C 
BRANCH   7  10
ATOM      8  O   UNL     1      44.586   6.227  12.365  0.00  0.00    +0.000 OA
ATOM      9  C   UNL     1      45.463   5.568  11.823  0.00  0.00    +0.000 C 
ATOM     10  N   UNL     1      46.790   5.609  12.193  0.00  0.00    +0.000 N 
ATOM     11  H   UNL     1      47.495   5.225  11.577  0.00  0.00    +0.000 HD
BRANCH   9  12
ATOM     12  C   UNL     1      45.137   4.684  10.682  0.00  0.00    +0.000 A 
ATOM     13  C   UNL     1      45.522   4.978   9.371  0.00  0.00    +0.000 A 
ATOM     14  C   UNL     1      45.177   4.102   8.345  0.00  0.00    +0.000 A 
ATOM     15  C   UNL     1      44.464   2.957   8.667  0.00  0.00    +0.000 A 
ATOM     16  N   UNL     1      44.090   2.635   9.925  0.00  0.00    +0.000 NA
ATOM     17  C   UNL     1      44.446   3.501  10.909  0.00  0.00    +0.000 A 
ENDBRANCH   9  12
ENDBRANCH   7  10
ENDBRANCH   1   7
BRANCH   4  18
ATOM     18  C   UNL     1      48.372   3.370  18.083  0.00  0.00    +0.000 C 
BRANCH  18  19
ATOM     19  N   UNL     1      49.777   3.073  18.204  0.00  0.00    +0.000 N 
ATOM     20  C   UNL     1      50.407   2.223  17.331  0.00  0.00    +0.000 C 
ATOM     21  O   UNL     1      49.819   1.718  16.377  0.00  0.00    +0.000 OA
ATOM     22  H   UNL     1      50.214   3.283  19.096  0.00  0.00    +0.000 HD
BRANCH  20  23
ATOM     23  C   UNL     1      51.841   1.994  17.556  0.00  0.00    +0.000 A 
ATOM     24  C   UNL     1      52.324   0.698  17.670  0.00  0.00    +0.000 A 
ATOM     25  S   UNL     1      54.016   0.613  17.865  0.00  0.00    +0.000 S 
ATOM     26  C   UNL     1      54.157   2.307  17.858  0.00  0.00    +0.000 A 
ATOM     27  N   UNL     1      55.367   2.910  18.009  0.00  0.00    +0.000 NA
ATOM     28  C   UNL     1      55.326   4.199  18.017  0.00  0.00    +0.000 A 
ATOM     29  N   UNL     1      54.182   4.944  17.883  0.00  0.00    +0.000 N 
ATOM     30  C   UNL     1      52.941   4.379  17.707  0.00  0.00    +0.000 A 
ATOM     31  O   UNL     1      51.942   5.075  17.563  0.00  0.00    +0.000 OA
ATOM     32  C   UNL     1      52.931   2.930  17.696  0.00  0.00    +0.000 A 
ATOM     33  H   UNL     1      54.214   5.952  17.896  0.00  0.00    +0.000 HD
ENDBRANCH  20  23
ENDBRANCH  18  19
ENDBRANCH   4  18
TORSDOF 6
ENDMDL
MODEL 9
REMARK VINA RESULT:    -6.841      3.850      8.747
REMARK INTER + INTRA:         -10.239
REMARK INTER:                  -9.237
REMARK INTRA:                  -1.002
REMARK UNBOUND:                -0.998
REMARK  Name = 
REMARK  6 active torsions:
REMARK  status: ('A' for Active; 'I' for Inactive)
REMARK    1  A    between atoms: C_2  and  C_25
REMARK    2  A    between atoms: N_3  and  C_4
REMARK    3  A    between atoms: C_4  and  C_5
REMARK    4  A    between atoms: C_8  and  C_9
REMARK    5  A    between atoms: C_9  and  N_10
REMARK    6  A    between atoms: C_11  and  C_13
REMARK                            x       y       z     vdW  Elec       q    Type
REMARK                         _______ _______ _______ _____ _____    ______ ____
ROOT
ATOM      1  C   UNL     1      49.003   4.787  17.341  0.00  0.00    +0.000 A 
ATOM      2  C   UNL     1      49.719   5.920  16.930  0.00  0.00    +0.000 A 
ATOM      3  C   UNL     1      49.368   6.600  15.758  0.00  0.00    +0.000 A 
ATOM      4  C   UNL     1      48.282   6.173  14.983  0.00  0.00    +0.000 A 
ATOM      5  C   UNL     1      47.571   5.035  15.391  0.00  0.00    +0.000 A 
ATOM      6  C   UNL     1      47.922   4.357  16.561  0.00  0.00    +0.000 A 
ENDROOT
BRANCH   1   7
ATOM      7  C   UNL     1      49.369   4.070  18.614  0.00  0.00    +0.000 C 
BRANCH   7  10
ATOM      8  O   UNL     1      50.174   1.829  17.127  0.00  0.00    +0.000 OA
ATOM      9  C   UNL     1      51.007   2.443  17.781  0.00  0.00    +0.000 C 
ATOM     10  N   UNL     1      50.714   3.549  18.549  0.00  0.00    +0.000 N 
ATOM     11  H   UNL     1      51.463   4.143  18.880  0.00  0.00    +0.000 HD
BRANCH   9  12
ATOM     12  C   UNL     1      52.428   2.031  17.755  0.00  0.00    +0.000 A 
ATOM     13  C   UNL     1      52.821   0.702  17.579  0.00  0.00    +0.000 A 
ATOM     14  C   UNL     1      54.179   0.386  17.568  0.00  0.00    +0.000 A 
ATOM     15  C   UNL     1      55.095   1.414  17.726  0.00  0.00    +0.000 A 
ATOM     16  N   UNL     1      54.749   2.712  17.882  0.00  0.00    +0.000 NA
ATOM     17  C   UNL     1      53.421   2.994  17.880  0.00  0.00    +0.000 A 
ENDBRANCH   9  12
ENDBRANCH   7  10
ENDBRANCH   1   7
BRANCH   4  18
ATOM     18  C   UNL     1      47.907   6.890  13.712  0.00  0.00    +0.000 C 
BRANCH  18  19
ATOM     19  N   UNL     1      47.232   6.007  12.795  0.00  0.00    +0.000 N 
ATOM     20  C   UNL     1      46.310   6.478  11.895  0.00  0.00    +0.000 C 
ATOM     21  O   UNL     1      46.056   7.676  11.791  0.00  0.00    +0.000 OA
ATOM     22  H   UNL     1      47.249   5.017  13.017  0.00  0.00    +0.000 HD
BRANCH  20  23
ATOM     23  C   UNL     1      45.685   5.482  11.013  0.00  0.00    +0.000 A 
ATOM     24  C   UNL     1      45.808   5.608   9.636  0.00  0.00    +0.000 A 
ATOM     25  S   UNL     1      45.078   4.335   8.766  0.00  0.00    +0.000 S 
ATOM     26  C   UNL     1      44.527   3.600  10.197  0.00  0.00    +0.000 A 
ATOM     27  N   UNL     1      43.797   2.453  10.158  0.00  0.00    +0.000 NA
ATOM     28  C   UNL     1      43.416   2.021  11.313  0.00  0.00    +0.000 A 
ATOM     29  N   UNL     1      43.705   2.630  12.507  0.00  0.00    +0.000 N 
ATOM     30  C   UNL     1      44.458   3.778  12.596  0.00  0.00    +0.000 A 
ATOM     31  O   UNL     1      44.720   4.282  13.682  0.00  0.00    +0.000 OA
ATOM     32  C   UNL     1      44.906   4.308  11.323  0.00  0.00    +0.000 A 
ATOM     33  H   UNL     1      43.380   2.243  13.379  0.00  0.00    +0.000 HD
ENDBRANCH  20  23
ENDBRANCH  18  19
ENDBRANCH   4  18
TORSDOF 6
ENDMDL
