MODEL 1
REMARK VINA RESULT:    -8.146      0.000      0.000
REMARK INTER + INTRA:         -12.558
REMARK INTER:                 -11.480
REMARK INTRA:                  -1.079
REMARK UNBOUND:                -1.079
REMARK  Name = 
REMARK  7 active torsions:
REMARK  status: ('A' for Active; 'I' for Inactive)
REMARK    1  A    between atoms: C_2  and  C_19
REMARK    2  A    between atoms: N_3  and  C_4
REMARK    3  A    between atoms: C_4  and  C_5
REMARK    4  A    between atoms: C_8  and  C_9
REMARK    5  A    between atoms: C_9  and  N_10
REMARK    6  A    between atoms: N_10  and  C_11
REMARK    7  A    between atoms: C_11  and  C_12
REMARK                            x       y       z     vdW  Elec       q    Type
REMARK                         _______ _______ _______ _____ _____    ______ ____
ROOT
ATOM      1  C   UNL     1      46.546   7.562  12.935  0.00  0.00    +0.000 C 
ENDROOT
BRANCH   1   2
ATOM      2  C   UNL     1      45.839   6.374  12.334  0.00  0.00    +0.000 A 
ATOM      3  C   UNL     1      45.818   6.200  10.944  0.00  0.00    +0.000 A 
ATOM      4  C   UNL     1      45.192   5.089  10.370  0.00  0.00    +0.000 A 
ATOM      5  C   UNL     1      44.576   4.119  11.171  0.00  0.00    +0.000 A 
ATOM      6  C   UNL     1      44.563   4.315  12.561  0.00  0.00    +0.000 A 
ATOM      7  C   UNL     1      45.180   5.433  13.136  0.00  0.00    +0.000 A 
BRANCH   5   8
ATOM      8  C   UNL     1      43.890   2.916  10.550  0.00  0.00    +0.000 C 
BRANCH   8   9
ATOM      9  N   UNL     1      44.133   2.820   9.104  0.00  0.00    +0.000 NA
ATOM     10  H   UNL     1      44.477   3.723   8.775  0.00  0.00    +0.000 HD
BRANCH   9  11
ATOM     11  C   UNL     1      45.105   1.768   8.790  0.00  0.00    +0.000 C 
BRANCH  11  12
ATOM     12  C   UNL     1      46.341   2.320   8.068  0.00  0.00    +0.000 C 
ATOM     13  C   UNL     1      47.082   1.267   7.255  0.00  0.00    +0.000 C 
ATOM     14  C   UNL     1      47.942   2.124   6.350  0.00  0.00    +0.000 C 
ATOM     15  N   UNL     1      47.051   3.214   5.937  0.00  0.00    +0.000 NA
ATOM     16  C   UNL     1      46.078   3.417   7.033  0.00  0.00    +0.000 C 
ATOM     17  H   UNL     1      46.537   2.917   5.107  0.00  0.00    +0.000 HD
ENDBRANCH  11  12
ENDBRANCH   9  11
ENDBRANCH   8   9
ENDBRANCH   5   8
ENDBRANCH   1   2
BRANCH   1  20
ATOM     18  O   UNL     1      49.025   6.263  13.329  0.00  0.00    +0.000 OA
ATOM     19  C   UNL     1      48.390   6.660  14.301  0.00  0.00    +0.000 C 
ATOM     20  N   UNL     1      47.154   7.246  14.198  0.00  0.00    +0.000 N 
ATOM     21  H   UNL     1      46.769   7.731  15.001  0.00  0.00    +0.000 HD
BRANCH  19  22
ATOM     22  C   UNL     1      48.887   6.484  15.668  0.00  0.00    +0.000 A 
ATOM     23  C   UNL     1      49.747   7.417  16.235  0.00  0.00    +0.000 A 
ATOM     24  S   UNL     1      50.223   7.016  17.825  0.00  0.00    +0.000 S 
ATOM     25  C   UNL     1      49.264   5.611  17.818  0.00  0.00    +0.000 A 
ATOM     26  N   UNL     1      49.197   4.789  18.909  0.00  0.00    +0.000 NA
ATOM     27  C   UNL     1      48.403   3.785  18.764  0.00  0.00    +0.000 A 
ATOM     28  N   UNL     1      47.670   3.513  17.639  0.00  0.00    +0.000 N 
ATOM     29  C   UNL     1      47.766   4.261  16.496  0.00  0.00    +0.000 A 
ATOM     30  O   UNL     1      47.218   3.895  15.461  0.00  0.00    +0.000 OA
ATOM     31  C   UNL     1      48.610   5.436  16.614  0.00  0.00    +0.000 A 
ATOM     32  H   UNL     1      47.102   2.680  17.572  0.00  0.00    +0.000 HD
ENDBRANCH  19  22
ENDBRANCH   1  20
TORSDOF 7
ENDMDL
MODEL 2
REMARK VINA RESULT:    -7.262      2.061      3.085
REMARK INTER + INTRA:         -11.313
REMARK INTER:                 -10.293
REMARK INTRA:                  -1.019
REMARK UNBOUND:                -1.079
REMARK  Name = 
REMARK  7 active torsions:
REMARK  status: ('A' for Active; 'I' for Inactive)
REMARK    1  A    between atoms: C_2  and  C_19
REMARK    2  A    between atoms: N_3  and  C_4
REMARK    3  A    between atoms: C_4  and  C_5
REMARK    4  A    between atoms: C_8  and  C_9
REMARK    5  A    between atoms: C_9  and  N_10
REMARK    6  A    between atoms: N_10  and  C_11
REMARK    7  A    between atoms: C_11  and  C_12
REMARK                            x       y       z     vdW  Elec       q    Type
REMARK                         _______ _______ _______ _____ _____    ______ ____
ROOT
ATOM      1  C   UNL     1      47.514   3.275  14.793  0.00  0.00    +0.000 C 
ENDROOT
BRANCH   1   2
ATOM      2  C   UNL     1      46.705   3.852  13.659  0.00  0.00    +0.000 A 
ATOM      3  C   UNL     1      46.808   5.214  13.347  0.00  0.00    +0.000 A 
ATOM      4  C   UNL     1      46.088   5.761  12.280  0.00  0.00    +0.000 A 
ATOM      5  C   UNL     1      45.250   4.960  11.493  0.00  0.00    +0.000 A 
ATOM      6  C   UNL     1      45.116   3.604  11.833  0.00  0.00    +0.000 A 
ATOM      7  C   UNL     1      45.829   3.057  12.908  0.00  0.00    +0.000 A 
BRANCH   5   8
ATOM      8  C   UNL     1      44.462   5.552  10.340  0.00  0.00    +0.000 C 
BRANCH   8   9
ATOM      9  N   UNL     1      44.348   4.623   9.207  0.00  0.00    +0.000 NA
ATOM     10  H   UNL     1      43.621   4.968   8.580  0.00  0.00    +0.000 HD
BRANCH   9  11
ATOM     11  C   UNL     1      45.618   4.499   8.484  0.00  0.00    +0.000 C 
BRANCH  11  12
ATOM     12  C   UNL     1      45.739   3.153   7.757  0.00  0.00    +0.000 C 
ATOM     13  C   UNL     1      47.104   2.937   7.117  0.00  0.00    +0.000 C 
ATOM     14  C   UNL     1      47.096   1.443   6.870  0.00  0.00    +0.000 C 
ATOM     15  N   UNL     1      46.500   0.882   8.086  0.00  0.00    +0.000 NA
ATOM     16  C   UNL     1      45.578   1.904   8.628  0.00  0.00    +0.000 C 
ATOM     17  H   UNL     1      47.241   0.728   8.771  0.00  0.00    +0.000 HD
ENDBRANCH  11  12
ENDBRANCH   9  11
ENDBRANCH   8   9
ENDBRANCH   5   8
ENDBRANCH   1   2
BRANCH   1  20
ATOM     18  O   UNL     1      46.683   3.112  17.489  0.00  0.00    +0.000 OA
ATOM     19  C   UNL     1      47.371   4.060  17.125  0.00  0.00    +0.000 C 
ATOM     20  N   UNL     1      47.765   4.243  15.825  0.00  0.00    +0.000 N 
ATOM     21  H   UNL     1      48.489   4.921  15.618  0.00  0.00    +0.000 HD
BRANCH  19  22
ATOM     22  C   UNL     1      47.781   5.114  18.056  0.00  0.00    +0.000 A 
ATOM     23  C   UNL     1      46.834   5.829  18.779  0.00  0.00    +0.000 A 
ATOM     24  S   UNL     1      47.518   7.023  19.791  0.00  0.00    +0.000 S 
ATOM     25  C   UNL     1      49.097   6.592  19.327  0.00  0.00    +0.000 A 
ATOM     26  N   UNL     1      50.190   7.228  19.848  0.00  0.00    +0.000 NA
ATOM     27  C   UNL     1      51.317   6.767  19.427  0.00  0.00    +0.000 A 
ATOM     28  N   UNL     1      51.466   5.739  18.533  0.00  0.00    +0.000 N 
ATOM     29  C   UNL     1      50.402   5.127  17.926  0.00  0.00    +0.000 A 
ATOM     30  O   UNL     1      50.578   4.323  17.016  0.00  0.00    +0.000 OA
ATOM     31  C   UNL     1      49.103   5.571  18.396  0.00  0.00    +0.000 A 
ATOM     32  H   UNL     1      52.380   5.457  18.206  0.00  0.00    +0.000 HD
ENDBRANCH  19  22
ENDBRANCH   1  20
TORSDOF 7
ENDMDL
MODEL 3
REMARK VINA RESULT:    -7.129      2.050      3.237
REMARK INTER + INTRA:         -11.126
REMARK INTER:                 -10.224
REMARK INTRA:                  -0.902
REMARK UNBOUND:                -1.079
REMARK  Name = 
REMARK  7 active torsions:
REMARK  status: ('A' for Active; 'I' for Inactive)
REMARK    1  A    between atoms: C_2  and  C_19
REMARK    2  A    between atoms: N_3  and  C_4
REMARK    3  A    between atoms: C_4  and  C_5
REMARK    4  A    between atoms: C_8  and  C_9
REMARK    5  A    between atoms: C_9  and  N_10
REMARK    6  A    between atoms: N_10  and  C_11
REMARK    7  A    between atoms: C_11  and  C_12
REMARK                            x       y       z     vdW  Elec       q    Type
REMARK                         _______ _______ _______ _____ _____    ______ ____
ROOT
ATOM      1  C   UNL     1      47.287   3.822  14.710  0.00  0.00    +0.000 C 
ENDROOT
BRANCH   1   2
ATOM      2  C   UNL     1      46.372   4.209  13.575  0.00  0.00    +0.000 A 
ATOM      3  C   UNL     1      45.676   3.220  12.868  0.00  0.00    +0.000 A 
ATOM      4  C   UNL     1      44.801   3.562  11.832  0.00  0.00    +0.000 A 
ATOM      5  C   UNL     1      44.595   4.901  11.478  0.00  0.00    +0.000 A 
ATOM      6  C   UNL     1      45.325   5.888  12.160  0.00  0.00    +0.000 A 
ATOM      7  C   UNL     1      46.209   5.547  13.192  0.00  0.00    +0.000 A 
BRANCH   5   8
ATOM      8  C   UNL     1      43.653   5.275  10.350  0.00  0.00    +0.000 C 
BRANCH   8   9
ATOM      9  N   UNL     1      43.803   4.393   9.183  0.00  0.00    +0.000 NA
ATOM     10  H   UNL     1      43.194   4.736   8.440  0.00  0.00    +0.000 HD
BRANCH   9  11
ATOM     11  C   UNL     1      45.193   4.355   8.715  0.00  0.00    +0.000 C 
BRANCH  11  12
ATOM     12  C   UNL     1      45.492   3.088   7.902  0.00  0.00    +0.000 C 
ATOM     13  C   UNL     1      46.876   3.096   7.265  0.00  0.00    +0.000 C 
ATOM     14  C   UNL     1      47.065   1.634   6.919  0.00  0.00    +0.000 C 
ATOM     15  N   UNL     1      46.544   0.919   8.088  0.00  0.00    +0.000 NA
ATOM     16  C   UNL     1      45.493   1.773   8.685  0.00  0.00    +0.000 C 
ATOM     17  H   UNL     1      47.296   0.818   8.770  0.00  0.00    +0.000 HD
ENDBRANCH  11  12
ENDBRANCH   9  11
ENDBRANCH   8   9
ENDBRANCH   5   8
ENDBRANCH   1   2
BRANCH   1  20
ATOM     18  O   UNL     1      49.267   4.069  16.711  0.00  0.00    +0.000 OA
ATOM     19  C   UNL     1      48.392   4.924  16.617  0.00  0.00    +0.000 C 
ATOM     20  N   UNL     1      47.364   4.847  15.714  0.00  0.00    +0.000 N 
ATOM     21  H   UNL     1      46.792   5.667  15.544  0.00  0.00    +0.000 HD
BRANCH  19  22
ATOM     22  C   UNL     1      48.349   6.080  17.516  0.00  0.00    +0.000 A 
ATOM     23  C   UNL     1      48.151   5.909  18.881  0.00  0.00    +0.000 A 
ATOM     24  S   UNL     1      48.114   7.381  19.747  0.00  0.00    +0.000 S 
ATOM     25  C   UNL     1      48.401   8.285  18.335  0.00  0.00    +0.000 A 
ATOM     26  N   UNL     1      48.505   9.647  18.371  0.00  0.00    +0.000 NA
ATOM     27  C   UNL     1      48.759  10.186  17.228  0.00  0.00    +0.000 A 
ATOM     28  N   UNL     1      48.914   9.504  16.050  0.00  0.00    +0.000 N 
ATOM     29  C   UNL     1      48.740   8.150  15.951  0.00  0.00    +0.000 A 
ATOM     30  O   UNL     1      48.730   7.598  14.855  0.00  0.00    +0.000 OA
ATOM     31  C   UNL     1      48.499   7.480  17.216  0.00  0.00    +0.000 A 
ATOM     32  H   UNL     1      49.064   9.993  15.178  0.00  0.00    +0.000 HD
ENDBRANCH  19  22
ENDBRANCH   1  20
TORSDOF 7
ENDMDL
MODEL 4
REMARK VINA RESULT:    -7.098      4.382      8.899
REMARK INTER + INTRA:         -11.081
REMARK INTER:                 -10.135
REMARK INTRA:                  -0.946
REMARK UNBOUND:                -1.079
REMARK  Name = 
REMARK  7 active torsions:
REMARK  status: ('A' for Active; 'I' for Inactive)
REMARK    1  A    between atoms: C_2  and  C_19
REMARK    2  A    between atoms: N_3  and  C_4
REMARK    3  A    between atoms: C_4  and  C_5
REMARK    4  A    between atoms: C_8  and  C_9
REMARK    5  A    between atoms: C_9  and  N_10
REMARK    6  A    between atoms: N_10  and  C_11
REMARK    7  A    between atoms: C_11  and  C_12
REMARK                            x       y       z     vdW  Elec       q    Type
REMARK                         _______ _______ _______ _____ _____    ______ ____
ROOT
ATOM      1  C   UNL     1      47.102   3.432  16.813  0.00  0.00    +0.000 C 
ENDROOT
BRANCH   1   2
ATOM      2  C   UNL     1      48.577   3.389  17.121  0.00  0.00    +0.000 A 
ATOM      3  C   UNL     1      49.225   4.530  17.609  0.00  0.00    +0.000 A 
ATOM      4  C   UNL     1      50.586   4.500  17.929  0.00  0.00    +0.000 A 
ATOM      5  C   UNL     1      51.334   3.327  17.772  0.00  0.00    +0.000 A 
ATOM      6  C   UNL     1      50.693   2.195  17.244  0.00  0.00    +0.000 A 
ATOM      7  C   UNL     1      49.332   2.227  16.914  0.00  0.00    +0.000 A 
BRANCH   5   8
ATOM      8  C   UNL     1      52.813   3.293  18.110  0.00  0.00    +0.000 C 
BRANCH   8   9
ATOM      9  N   UNL     1      53.200   2.053  18.797  0.00  0.00    +0.000 NA
ATOM     10  H   UNL     1      52.779   1.267  18.303  0.00  0.00    +0.000 HD
BRANCH   9  11
ATOM     11  C   UNL     1      54.658   1.895  18.840  0.00  0.00    +0.000 C 
BRANCH  11  12
ATOM     12  C   UNL     1      55.147   0.798  17.886  0.00  0.00    +0.000 C 
ATOM     13  C   UNL     1      54.031  -0.118  17.401  0.00  0.00    +0.000 C 
ATOM     14  C   UNL     1      54.676  -0.785  16.205  0.00  0.00    +0.000 C 
ATOM     15  N   UNL     1      55.393   0.303  15.532  0.00  0.00    +0.000 NA
ATOM     16  C   UNL     1      55.775   1.280  16.575  0.00  0.00    +0.000 C 
ATOM     17  H   UNL     1      54.753   0.763  14.884  0.00  0.00    +0.000 HD
ENDBRANCH  11  12
ENDBRANCH   9  11
ENDBRANCH   8   9
ENDBRANCH   5   8
ENDBRANCH   1   2
BRANCH   1  20
ATOM     18  O   UNL     1      47.229   3.064  14.014  0.00  0.00    +0.000 OA
ATOM     19  C   UNL     1      46.825   4.131  14.465  0.00  0.00    +0.000 C 
ATOM     20  N   UNL     1      46.788   4.409  15.807  0.00  0.00    +0.000 N 
ATOM     21  H   UNL     1      46.265   5.215  16.131  0.00  0.00    +0.000 HD
BRANCH  19  22
ATOM     22  C   UNL     1      46.399   5.225  13.588  0.00  0.00    +0.000 A 
ATOM     23  C   UNL     1      47.252   6.287  13.314  0.00  0.00    +0.000 A 
ATOM     24  S   UNL     1      46.557   7.463  12.289  0.00  0.00    +0.000 S 
ATOM     25  C   UNL     1      45.116   6.570  12.148  0.00  0.00    +0.000 A 
ATOM     26  N   UNL     1      44.077   7.013  11.377  0.00  0.00    +0.000 NA
ATOM     27  C   UNL     1      43.069   6.212  11.342  0.00  0.00    +0.000 A 
ATOM     28  N   UNL     1      42.989   5.014  12.001  0.00  0.00    +0.000 N 
ATOM     29  C   UNL     1      43.969   4.567  12.846  0.00  0.00    +0.000 A 
ATOM     30  O   UNL     1      43.792   3.571  13.539  0.00  0.00    +0.000 OA
ATOM     31  C   UNL     1      45.153   5.406  12.890  0.00  0.00    +0.000 A 
ATOM     32  H   UNL     1      42.148   4.453  11.970  0.00  0.00    +0.000 HD
ENDBRANCH  19  22
ENDBRANCH   1  20
TORSDOF 7
ENDMDL
MODEL 5
REMARK VINA RESULT:    -7.031      3.290      7.972
REMARK INTER + INTRA:         -10.987
REMARK INTER:                  -9.900
REMARK INTRA:                  -1.087
REMARK UNBOUND:                -1.079
REMARK  Name = 
REMARK  7 active torsions:
REMARK  status: ('A' for Active; 'I' for Inactive)
REMARK    1  A    between atoms: C_2  and  C_19
REMARK    2  A    between atoms: N_3  and  C_4
REMARK    3  A    between atoms: C_4  and  C_5
REMARK    4  A    between atoms: C_8  and  C_9
REMARK    5  A    between atoms: C_9  and  N_10
REMARK    6  A    between atoms: N_10  and  C_11
REMARK    7  A    between atoms: C_11  and  C_12
REMARK                            x       y       z     vdW  Elec       q    Type
REMARK                         _______ _______ _______ _____ _____    ______ ____
ROOT
ATOM      1  C   UNL     1      48.205   8.122  12.141  0.00  0.00    +0.000 C 
ENDROOT
BRANCH   1   2
ATOM      2  C   UNL     1      48.965   7.757  13.391  0.00  0.00    +0.000 A 
ATOM      3  C   UNL     1      48.331   7.039  14.412  0.00  0.00    +0.000 A 
ATOM      4  C   UNL     1      49.029   6.667  15.566  0.00  0.00    +0.000 A 
ATOM      5  C   UNL     1      50.379   6.999  15.727  0.00  0.00    +0.000 A 
ATOM      6  C   UNL     1      51.002   7.755  14.721  0.00  0.00    +0.000 A 
ATOM      7  C   UNL     1      50.302   8.137  13.569  0.00  0.00    +0.000 A 
BRANCH   5   8
ATOM      8  C   UNL     1      51.136   6.603  16.981  0.00  0.00    +0.000 C 
BRANCH   8   9
ATOM      9  N   UNL     1      51.397   5.158  17.042  0.00  0.00    +0.000 NA
ATOM     10  H   UNL     1      52.406   5.013  17.037  0.00  0.00    +0.000 HD
BRANCH   9  11
ATOM     11  C   UNL     1      50.809   4.557  18.244  0.00  0.00    +0.000 C 
BRANCH  11  12
ATOM     12  C   UNL     1      49.919   3.353  17.911  0.00  0.00    +0.000 C 
ATOM     13  C   UNL     1      48.665   3.730  17.133  0.00  0.00    +0.000 C 
ATOM     14  C   UNL     1      48.225   2.389  16.585  0.00  0.00    +0.000 C 
ATOM     15  N   UNL     1      49.474   1.751  16.155  0.00  0.00    +0.000 NA
ATOM     16  C   UNL     1      50.550   2.277  17.023  0.00  0.00    +0.000 C 
ATOM     17  H   UNL     1      49.672   2.037  15.195  0.00  0.00    +0.000 HD
ENDBRANCH  11  12
ENDBRANCH   9  11
ENDBRANCH   8   9
ENDBRANCH   5   8
ENDBRANCH   1   2
BRANCH   1  20
ATOM     18  O   UNL     1      45.402   7.853  11.897  0.00  0.00    +0.000 OA
ATOM     19  C   UNL     1      46.134   6.971  11.460  0.00  0.00    +0.000 C 
ATOM     20  N   UNL     1      47.499   6.998  11.591  0.00  0.00    +0.000 N 
ATOM     21  H   UNL     1      48.061   6.356  11.043  0.00  0.00    +0.000 HD
BRANCH  19  22
ATOM     22  C   UNL     1      45.593   5.777  10.806  0.00  0.00    +0.000 A 
ATOM     23  C   UNL     1      45.834   5.536   9.458  0.00  0.00    +0.000 A 
ATOM     24  S   UNL     1      45.099   4.104   8.886  0.00  0.00    +0.000 S 
ATOM     25  C   UNL     1      44.475   3.742  10.427  0.00  0.00    +0.000 A 
ATOM     26  N   UNL     1      43.739   2.612  10.649  0.00  0.00    +0.000 NA
ATOM     27  C   UNL     1      43.366   2.458  11.873  0.00  0.00    +0.000 A 
ATOM     28  N   UNL     1      43.647   3.322  12.899  0.00  0.00    +0.000 N 
ATOM     29  C   UNL     1      44.311   4.504  12.709  0.00  0.00    +0.000 A 
ATOM     30  O   UNL     1      44.404   5.323  13.618  0.00  0.00    +0.000 OA
ATOM     31  C   UNL     1      44.799   4.711  11.358  0.00  0.00    +0.000 A 
ATOM     32  H   UNL     1      43.283   3.167  13.829  0.00  0.00    +0.000 HD
ENDBRANCH  19  22
ENDBRANCH   1  20
TORSDOF 7
ENDMDL
MODEL 6
REMARK VINA RESULT:    -6.989      2.739      3.597
REMARK INTER + INTRA:         -10.928
REMARK INTER:                  -8.984
REMARK INTRA:                  -1.944
REMARK UNBOUND:                -1.079
REMARK  Name = 
REMARK  7 active torsions:
REMARK  status: ('A' for Active; 'I' for Inactive)
REMARK    1  A    between atoms: C_2  and  C_19
REMARK    2  A    between atoms: N_3  and  C_4
REMARK    3  A    between atoms: C_4  and  C_5
REMARK    4  A    between atoms: C_8  and  C_9
REMARK    5  A    between atoms: C_9  and  N_10
REMARK    6  A    between atoms: N_10  and  C_11
REMARK    7  A    between atoms: C_11  and  C_12
REMARK                            x       y       z     vdW  Elec       q    Type
REMARK                         _______ _______ _______ _____ _____    ______ ____
ROOT
ATOM      1  C   UNL     1      48.977   7.862  13.171  0.00  0.00    +0.000 C 
ENDROOT
BRANCH   1   2
ATOM      2  C   UNL     1      47.563   7.827  12.649  0.00  0.00    +0.000 A 
ATOM      3  C   UNL     1      47.180   6.846  11.726  0.00  0.00    +0.000 A 
ATOM      4  C   UNL     1      45.865   6.780  11.254  0.00  0.00    +0.000 A 
ATOM      5  C   UNL     1      44.898   7.691  11.695  0.00  0.00    +0.000 A 
ATOM      6  C   UNL     1      45.293   8.700  12.588  0.00  0.00    +0.000 A 
ATOM      7  C   UNL     1      46.612   8.773  13.054  0.00  0.00    +0.000 A 
BRANCH   5   8
ATOM      8  C   UNL     1      43.473   7.627  11.178  0.00  0.00    +0.000 C 
BRANCH   8   9
ATOM      9  N   UNL     1      43.113   6.286  10.697  0.00  0.00    +0.000 NA
ATOM     10  H   UNL     1      43.966   5.812  10.398  0.00  0.00    +0.000 HD
BRANCH   9  11
ATOM     11  C   UNL     1      42.444   5.502  11.740  0.00  0.00    +0.000 C 
BRANCH  11  12
ATOM     12  C   UNL     1      43.233   4.238  12.107  0.00  0.00    +0.000 C 
ATOM     13  C   UNL     1      44.147   3.754  10.989  0.00  0.00    +0.000 C 
ATOM     14  C   UNL     1      45.076   2.818  11.732  0.00  0.00    +0.000 C 
ATOM     15  N   UNL     1      45.371   3.524  12.983  0.00  0.00    +0.000 NA
ATOM     16  C   UNL     1      44.195   4.368  13.290  0.00  0.00    +0.000 C 
ATOM     17  H   UNL     1      46.172   4.138  12.829  0.00  0.00    +0.000 HD
ENDBRANCH  11  12
ENDBRANCH   9  11
ENDBRANCH   8   9
ENDBRANCH   5   8
ENDBRANCH   1   2
BRANCH   1  20
ATOM     18  O   UNL     1      48.826   8.754  15.848  0.00  0.00    +0.000 OA
ATOM     19  C   UNL     1      48.995   7.561  15.617  0.00  0.00    +0.000 C 
ATOM     20  N   UNL     1      49.137   7.057  14.350  0.00  0.00    +0.000 N 
ATOM     21  H   UNL     1      49.072   6.055  14.206  0.00  0.00    +0.000 HD
BRANCH  19  22
ATOM     22  C   UNL     1      49.115   6.579  16.698  0.00  0.00    +0.000 A 
ATOM     23  C   UNL     1      49.884   6.853  17.822  0.00  0.00    +0.000 A 
ATOM     24  S   UNL     1      49.909   5.572  18.952  0.00  0.00    +0.000 S 
ATOM     25  C   UNL     1      48.862   4.633  17.994  0.00  0.00    +0.000 A 
ATOM     26  N   UNL     1      48.452   3.392  18.396  0.00  0.00    +0.000 NA
ATOM     27  C   UNL     1      47.633   2.819  17.581  0.00  0.00    +0.000 A 
ATOM     28  N   UNL     1      47.186   3.356  16.403  0.00  0.00    +0.000 N 
ATOM     29  C   UNL     1      47.630   4.559  15.923  0.00  0.00    +0.000 A 
ATOM     30  O   UNL     1      47.330   4.931  14.793  0.00  0.00    +0.000 OA
ATOM     31  C   UNL     1      48.519   5.274  16.820  0.00  0.00    +0.000 A 
ATOM     32  H   UNL     1      46.581   2.833  15.785  0.00  0.00    +0.000 HD
ENDBRANCH  19  22
ENDBRANCH   1  20
TORSDOF 7
ENDMDL
MODEL 7
REMARK VINA RESULT:    -6.892      2.837      8.422
REMARK INTER + INTRA:         -10.791
REMARK INTER:                  -9.490
REMARK INTRA:                  -1.300
REMARK UNBOUND:                -1.079
REMARK  Name = 
REMARK  7 active torsions:
REMARK  status: ('A' for Active; 'I' for Inactive)
REMARK    1  A    between atoms: C_2  and  C_19
REMARK    2  A    between atoms: N_3  and  C_4
REMARK    3  A    between atoms: C_4  and  C_5
REMARK    4  A    between atoms: C_8  and  C_9
REMARK    5  A    between atoms: C_9  and  N_10
REMARK    6  A    between atoms: N_10  and  C_11
REMARK    7  A    between atoms: C_11  and  C_12
REMARK                            x       y       z     vdW  Elec       q    Type
REMARK                         _______ _______ _______ _____ _____    ______ ____
ROOT
ATOM      1  C   UNL     1      47.542   7.820  11.853  0.00  0.00    +0.000 C 
ENDROOT
BRANCH   1   2
ATOM      2  C   UNL     1      48.220   7.915  13.196  0.00  0.00    +0.000 A 
ATOM      3  C   UNL     1      47.635   8.661  14.226  0.00  0.00    +0.000 A 
ATOM      4  C   UNL     1      48.235   8.736  15.488  0.00  0.00    +0.000 A 
ATOM      5  C   UNL     1      49.433   8.062  15.754  0.00  0.00    +0.000 A 
ATOM      6  C   UNL     1      50.040   7.348  14.709  0.00  0.00    +0.000 A 
ATOM      7  C   UNL     1      49.446   7.281  13.442  0.00  0.00    +0.000 A 
BRANCH   5   8
ATOM      8  C   UNL     1      50.090   8.147  17.119  0.00  0.00    +0.000 C 
BRANCH   8   9
ATOM      9  N   UNL     1      50.309   6.822  17.716  0.00  0.00    +0.000 NA
ATOM     10  H   UNL     1      51.041   6.905  18.422  0.00  0.00    +0.000 HD
BRANCH   9  11
ATOM     11  C   UNL     1      49.083   6.297  18.325  0.00  0.00    +0.000 C 
BRANCH  11  12
ATOM     12  C   UNL     1      48.438   5.199  17.468  0.00  0.00    +0.000 C 
ATOM     13  C   UNL     1      49.190   3.875  17.524  0.00  0.00    +0.000 C 
ATOM     14  C   UNL     1      48.157   2.910  16.982  0.00  0.00    +0.000 C 
ATOM     15  N   UNL     1      46.903   3.337  17.612  0.00  0.00    +0.000 NA
ATOM     16  C   UNL     1      47.016   4.791  17.860  0.00  0.00    +0.000 C 
ATOM     17  H   UNL     1      46.816   2.867  18.514  0.00  0.00    +0.000 HD
ENDBRANCH  11  12
ENDBRANCH   9  11
ENDBRANCH   8   9
ENDBRANCH   5   8
ENDBRANCH   1   2
BRANCH   1  20
ATOM     18  O   UNL     1      44.729   7.577  11.743  0.00  0.00    +0.000 OA
ATOM     19  C   UNL     1      45.428   6.577  11.610  0.00  0.00    +0.000 C 
ATOM     20  N   UNL     1      46.795   6.602  11.710  0.00  0.00    +0.000 N 
ATOM     21  H   UNL     1      47.328   5.798  11.396  0.00  0.00    +0.000 HD
BRANCH  19  22
ATOM     22  C   UNL     1      44.841   5.253  11.389  0.00  0.00    +0.000 A 
ATOM     23  C   UNL     1      44.075   4.644  12.376  0.00  0.00    +0.000 A 
ATOM     24  S   UNL     1      43.502   3.099  11.927  0.00  0.00    +0.000 S 
ATOM     25  C   UNL     1      44.223   3.215  10.390  0.00  0.00    +0.000 A 
ATOM     26  N   UNL     1      44.103   2.212   9.470  0.00  0.00    +0.000 NA
ATOM     27  C   UNL     1      44.673   2.461   8.342  0.00  0.00    +0.000 A 
ATOM     28  N   UNL     1      45.358   3.608   8.039  0.00  0.00    +0.000 N 
ATOM     29  C   UNL     1      45.572   4.605   8.954  0.00  0.00    +0.000 A 
ATOM     30  O   UNL     1      46.322   5.540   8.696  0.00  0.00    +0.000 OA
ATOM     31  C   UNL     1      44.911   4.402  10.230  0.00  0.00    +0.000 A 
ATOM     32  H   UNL     1      45.824   3.721   7.149  0.00  0.00    +0.000 HD
ENDBRANCH  19  22
ENDBRANCH   1  20
TORSDOF 7
ENDMDL
MODEL 8
REMARK VINA RESULT:    -6.654      3.552      8.291
REMARK INTER + INTRA:         -10.455
REMARK INTER:                  -8.727
REMARK INTRA:                  -1.728
REMARK UNBOUND:                -1.079
REMARK  Name = 
REMARK  7 active torsions:
REMARK  status: ('A' for Active; 'I' for Inactive)
REMARK    1  A    between atoms: C_2  and  C_19
REMARK    2  A    between atoms: N_3  and  C_4
REMARK    3  A    between atoms: C_4  and  C_5
REMARK    4  A    between atoms: C_8  and  C_9
REMARK    5  A    between atoms: C_9  and  N_10
REMARK    6  A    between atoms: N_10  and  C_11
REMARK    7  A    between atoms: C_11  and  C_12
REMARK                            x       y       z     vdW  Elec       q    Type
REMARK                         _______ _______ _______ _____ _____    ______ ____
ROOT
ATOM      1  C   UNL     1      48.490   8.321  14.736  0.00  0.00    +0.000 C 
ENDROOT
BRANCH   1   2
ATOM      2  C   UNL     1      49.038   7.755  16.022  0.00  0.00    +0.000 A 
ATOM      3  C   UNL     1      50.082   6.822  15.989  0.00  0.00    +0.000 A 
ATOM      4  C   UNL     1      50.622   6.310  17.173  0.00  0.00    +0.000 A 
ATOM      5  C   UNL     1      50.136   6.720  18.421  0.00  0.00    +0.000 A 
ATOM      6  C   UNL     1      49.062   7.623  18.451  0.00  0.00    +0.000 A 
ATOM      7  C   UNL     1      48.513   8.130  17.266  0.00  0.00    +0.000 A 
BRANCH   5   8
ATOM      8  C   UNL     1      50.715   6.159  19.706  0.00  0.00    +0.000 C 
BRANCH   8   9
ATOM      9  N   UNL     1      50.471   4.716  19.845  0.00  0.00    +0.000 NA
ATOM     10  H   UNL     1      50.970   4.384  20.671  0.00  0.00    +0.000 HD
BRANCH   9  11
ATOM     11  C   UNL     1      49.040   4.423  19.971  0.00  0.00    +0.000 C 
BRANCH  11  12
ATOM     12  C   UNL     1      48.530   3.535  18.828  0.00  0.00    +0.000 C 
ATOM     13  C   UNL     1      47.584   4.260  17.880  0.00  0.00    +0.000 C 
ATOM     14  C   UNL     1      47.588   3.341  16.677  0.00  0.00    +0.000 C 
ATOM     15  N   UNL     1      48.994   2.952  16.528  0.00  0.00    +0.000 NA
ATOM     16  C   UNL     1      49.597   2.986  17.878  0.00  0.00    +0.000 C 
ATOM     17  H   UNL     1      49.465   3.649  15.951  0.00  0.00    +0.000 HD
ENDBRANCH  11  12
ENDBRANCH   9  11
ENDBRANCH   8   9
ENDBRANCH   5   8
ENDBRANCH   1   2
BRANCH   1  20
ATOM     18  O   UNL     1      48.844   6.234  12.863  0.00  0.00    +0.000 OA
ATOM     19  C   UNL     1      47.725   6.461  13.311  0.00  0.00    +0.000 C 
ATOM     20  N   UNL     1      47.460   7.491  14.177  0.00  0.00    +0.000 N 
ATOM     21  H   UNL     1      46.572   7.509  14.666  0.00  0.00    +0.000 HD
BRANCH  19  22
ATOM     22  C   UNL     1      46.559   5.671  12.904  0.00  0.00    +0.000 A 
ATOM     23  C   UNL     1      46.512   4.303  13.143  0.00  0.00    +0.000 A 
ATOM     24  S   UNL     1      45.079   3.568  12.575  0.00  0.00    +0.000 S 
ATOM     25  C   UNL     1      44.463   5.058  12.032  0.00  0.00    +0.000 A 
ATOM     26  N   UNL     1      43.232   5.147  11.444  0.00  0.00    +0.000 NA
ATOM     27  C   UNL     1      42.890   6.346  11.119  0.00  0.00    +0.000 A 
ATOM     28  N   UNL     1      43.653   7.467  11.316  0.00  0.00    +0.000 N 
ATOM     29  C   UNL     1      44.922   7.416  11.827  0.00  0.00    +0.000 A 
ATOM     30  O   UNL     1      45.632   8.417  11.841  0.00  0.00    +0.000 OA
ATOM     31  C   UNL     1      45.346   6.096  12.258  0.00  0.00    +0.000 A 
ATOM     32  H   UNL     1      43.345   8.374  10.993  0.00  0.00    +0.000 HD
ENDBRANCH  19  22
ENDBRANCH   1  20
TORSDOF 7
ENDMDL
