MODEL 1
REMARK VINA RESULT:    -7.247      0.000      0.000
REMARK INTER + INTRA:         -11.034
REMARK INTER:                  -9.789
REMARK INTRA:                  -1.246
REMARK UNBOUND:                -1.246
REMARK  Name = 
REMARK  8 active torsions:
REMARK  status: ('A' for Active; 'I' for Inactive)
REMARK    1  A    between atoms: C_1  and  O_2
REMARK    2  A    between atoms: O_2  and  C_3
REMARK    3  A    between atoms: C_10  and  C_11
REMARK    4  A    between atoms: N_13  and  C_14
REMARK    5  A    between atoms: C_14  and  C_15
REMARK    6  A    between atoms: C_18  and  C_19
REMARK    7  A    between atoms: C_19  and  N_20
REMARK    8  A    between atoms: C_21  and  C_22
REMARK                            x       y       z     vdW  Elec       q    Type
REMARK                         _______ _______ _______ _____ _____    ______ ____
ROOT
ATOM      1  C   UNL     1      47.686   7.120  13.781  0.00  0.00    +0.000 C 
ATOM      2  O   UNL     1      48.327   7.704  12.910  0.00  0.00    +0.000 OA
ATOM      3  N   UNL     1      46.332   6.948  13.660  0.00  0.00    +0.000 N 
ATOM      4  H   UNL     1      45.813   6.452  14.372  0.00  0.00    +0.000 HD
ENDROOT
BRANCH   1  12
ATOM      5  C   UNL     1      47.228   4.285  15.705  0.00  0.00    +0.000 A 
ATOM      6  N   UNL     1      47.264   3.300  16.628  0.00  0.00    +0.000 NA
ATOM      7  C   UNL     1      48.169   3.382  17.605  0.00  0.00    +0.000 A 
ATOM      8  N   UNL     1      49.066   4.346  17.783  0.00  0.00    +0.000 NA
ATOM      9  C   UNL     1      48.996   5.308  16.849  0.00  0.00    +0.000 A 
ATOM     10  S   UNL     1      50.071   6.619  16.927  0.00  0.00    +0.000 S 
ATOM     11  C   UNL     1      49.391   7.319  15.537  0.00  0.00    +0.000 A 
ATOM     12  C   UNL     1      48.347   6.584  14.985  0.00  0.00    +0.000 A 
ATOM     13  C   UNL     1      48.115   5.375  15.773  0.00  0.00    +0.000 A 
BRANCH   5  15
ATOM     14  C   UNL     1      46.782   3.477  13.545  0.00  0.00    +0.000 C 
ATOM     15  O   UNL     1      46.302   4.191  14.684  0.00  0.00    +0.000 OA
ENDBRANCH   5  15
ENDBRANCH   1  12
BRANCH   3  16
ATOM     16  C   UNL     1      45.609   7.455  12.516  0.00  0.00    +0.000 C 
BRANCH  16  17
ATOM     17  C   UNL     1      45.406   6.384  11.473  0.00  0.00    +0.000 A 
ATOM     18  C   UNL     1      46.264   6.288  10.370  0.00  0.00    +0.000 A 
ATOM     19  C   UNL     1      46.037   5.336   9.369  0.00  0.00    +0.000 A 
ATOM     20  C   UNL     1      44.935   4.473   9.441  0.00  0.00    +0.000 A 
ATOM     21  C   UNL     1      44.096   4.549  10.560  0.00  0.00    +0.000 A 
ATOM     22  C   UNL     1      44.322   5.500  11.560  0.00  0.00    +0.000 A 
BRANCH  20  23
ATOM     23  C   UNL     1      44.639   3.502   8.327  0.00  0.00    +0.000 C 
BRANCH  23  24
ATOM     24  N   UNL     1      45.789   3.235   7.497  0.00  0.00    +0.000 N 
ATOM     25  C   UNL     1      46.480   2.053   7.637  0.00  0.00    +0.000 C 
ATOM     26  C   UNL     1      47.641   1.882   6.698  0.00  0.00    +0.000 C 
ATOM     27  O   UNL     1      46.185   1.195   8.464  0.00  0.00    +0.000 OA
ATOM     28  H   UNL     1      46.029   3.889   6.764  0.00  0.00    +0.000 HD
ENDBRANCH  23  24
ENDBRANCH  20  23
ENDBRANCH  16  17
ENDBRANCH   3  16
TORSDOF 6
ENDMDL
MODEL 2
REMARK VINA RESULT:    -7.086      1.065      1.588
REMARK INTER + INTRA:         -10.818
REMARK INTER:                  -9.562
REMARK INTRA:                  -1.256
REMARK UNBOUND:                -1.246
REMARK  Name = 
REMARK  8 active torsions:
REMARK  status: ('A' for Active; 'I' for Inactive)
REMARK    1  A    between atoms: C_1  and  O_2
REMARK    2  A    between atoms: O_2  and  C_3
REMARK    3  A    between atoms: C_10  and  C_11
REMARK    4  A    between atoms: N_13  and  C_14
REMARK    5  A    between atoms: C_14  and  C_15
REMARK    6  A    between atoms: C_18  and  C_19
REMARK    7  A    between atoms: C_19  and  N_20
REMARK    8  A    between atoms: C_21  and  C_22
REMARK                            x       y       z     vdW  Elec       q    Type
REMARK                         _______ _______ _______ _____ _____    ______ ____
ROOT
ATOM      1  C   UNL     1      48.624   6.880  14.524  0.00  0.00    +0.000 C 
ATOM      2  O   UNL     1      49.424   6.984  13.598  0.00  0.00    +0.000 OA
ATOM      3  N   UNL     1      47.366   7.414  14.428  0.00  0.00    +0.000 N 
ATOM      4  H   UNL     1      46.706   7.309  15.188  0.00  0.00    +0.000 HD
ENDROOT
BRANCH   1  12
ATOM      5  C   UNL     1      47.278   4.198  16.240  0.00  0.00    +0.000 A 
ATOM      6  N   UNL     1      46.966   3.215  17.112  0.00  0.00    +0.000 NA
ATOM      7  C   UNL     1      47.736   3.059  18.190  0.00  0.00    +0.000 A 
ATOM      8  N   UNL     1      48.804   3.777  18.519  0.00  0.00    +0.000 NA
ATOM      9  C   UNL     1      49.079   4.746  17.631  0.00  0.00    +0.000 A 
ATOM     10  S   UNL     1      50.413   5.761  17.897  0.00  0.00    +0.000 S 
ATOM     11  C   UNL     1      50.095   6.631  16.474  0.00  0.00    +0.000 A 
ATOM     12  C   UNL     1      48.985   6.178  15.769  0.00  0.00    +0.000 A 
ATOM     13  C   UNL     1      48.380   5.043  16.464  0.00  0.00    +0.000 A 
BRANCH   5  15
ATOM     14  C   UNL     1      46.995   3.659  13.972  0.00  0.00    +0.000 C 
ATOM     15  O   UNL     1      46.490   4.349  15.115  0.00  0.00    +0.000 OA
ENDBRANCH   5  15
ENDBRANCH   1  12
BRANCH   3  16
ATOM     16  C   UNL     1      46.939   8.128  13.247  0.00  0.00    +0.000 C 
BRANCH  16  17
ATOM     17  C   UNL     1      46.188   7.226  12.299  0.00  0.00    +0.000 A 
ATOM     18  C   UNL     1      44.885   6.804  12.595  0.00  0.00    +0.000 A 
ATOM     19  C   UNL     1      44.213   5.915  11.746  0.00  0.00    +0.000 A 
ATOM     20  C   UNL     1      44.836   5.416  10.595  0.00  0.00    +0.000 A 
ATOM     21  C   UNL     1      46.126   5.864  10.284  0.00  0.00    +0.000 A 
ATOM     22  C   UNL     1      46.799   6.752  11.131  0.00  0.00    +0.000 A 
BRANCH  20  23
ATOM     23  C   UNL     1      44.149   4.398   9.723  0.00  0.00    +0.000 C 
BRANCH  23  24
ATOM     24  N   UNL     1      44.778   4.248   8.433  0.00  0.00    +0.000 N 
ATOM     25  C   UNL     1      45.482   3.104   8.139  0.00  0.00    +0.000 C 
ATOM     26  C   UNL     1      46.068   3.057   6.755  0.00  0.00    +0.000 C 
ATOM     27  O   UNL     1      45.633   2.182   8.935  0.00  0.00    +0.000 OA
ATOM     28  H   UNL     1      44.629   4.958   7.729  0.00  0.00    +0.000 HD
ENDBRANCH  23  24
ENDBRANCH  20  23
ENDBRANCH  16  17
ENDBRANCH   3  16
TORSDOF 6
ENDMDL
MODEL 3
REMARK VINA RESULT:    -6.915      1.664      2.322
REMARK INTER + INTRA:         -10.586
REMARK INTER:                  -9.767
REMARK INTRA:                  -0.819
REMARK UNBOUND:                -1.246
REMARK  Name = 
REMARK  8 active torsions:
REMARK  status: ('A' for Active; 'I' for Inactive)
REMARK    1  A    between atoms: C_1  and  O_2
REMARK    2  A    between atoms: O_2  and  C_3
REMARK    3  A    between atoms: C_10  and  C_11
REMARK    4  A    between atoms: N_13  and  C_14
REMARK    5  A    between atoms: C_14  and  C_15
REMARK    6  A    between atoms: C_18  and  C_19
REMARK    7  A    between atoms: C_19  and  N_20
REMARK    8  A    between atoms: C_21  and  C_22
REMARK                            x       y       z     vdW  Elec       q    Type
REMARK                         _______ _______ _______ _____ _____    ______ ____
ROOT
ATOM      1  C   UNL     1      46.745   4.882  14.151  0.00  0.00    +0.000 C 
ATOM      2  O   UNL     1      46.811   3.655  14.162  0.00  0.00    +0.000 OA
ATOM      3  N   UNL     1      45.622   5.521  13.696  0.00  0.00    +0.000 N 
ATOM      4  H   UNL     1      45.567   6.531  13.707  0.00  0.00    +0.000 HD
ENDROOT
BRANCH   1  12
ATOM      5  C   UNL     1      48.311   5.269  17.208  0.00  0.00    +0.000 A 
ATOM      6  N   UNL     1      49.080   5.632  18.257  0.00  0.00    +0.000 NA
ATOM      7  C   UNL     1      50.029   6.549  18.059  0.00  0.00    +0.000 A 
ATOM      8  N   UNL     1      50.316   7.166  16.918  0.00  0.00    +0.000 NA
ATOM      9  C   UNL     1      49.529   6.782  15.900  0.00  0.00    +0.000 A 
ATOM     10  S   UNL     1      49.758   7.472  14.367  0.00  0.00    +0.000 S 
ATOM     11  C   UNL     1      48.488   6.555  13.711  0.00  0.00    +0.000 A 
ATOM     12  C   UNL     1      47.868   5.711  14.626  0.00  0.00    +0.000 A 
ATOM     13  C   UNL     1      48.498   5.846  15.939  0.00  0.00    +0.000 A 
BRANCH   5  15
ATOM     14  C   UNL     1      47.858   2.979  17.464  0.00  0.00    +0.000 C 
ATOM     15  O   UNL     1      47.340   4.308  17.411  0.00  0.00    +0.000 OA
ENDBRANCH   5  15
ENDBRANCH   1  12
BRANCH   3  16
ATOM     16  C   UNL     1      44.483   4.781  13.202  0.00  0.00    +0.000 C 
BRANCH  16  17
ATOM     17  C   UNL     1      44.664   4.391  11.757  0.00  0.00    +0.000 A 
ATOM     18  C   UNL     1      45.198   5.298  10.832  0.00  0.00    +0.000 A 
ATOM     19  C   UNL     1      45.306   4.958   9.478  0.00  0.00    +0.000 A 
ATOM     20  C   UNL     1      44.864   3.711   9.017  0.00  0.00    +0.000 A 
ATOM     21  C   UNL     1      44.360   2.792   9.947  0.00  0.00    +0.000 A 
ATOM     22  C   UNL     1      44.252   3.132  11.301  0.00  0.00    +0.000 A 
BRANCH  20  23
ATOM     23  C   UNL     1      44.901   3.371   7.550  0.00  0.00    +0.000 C 
BRANCH  23  24
ATOM     24  N   UNL     1      46.244   3.297   7.026  0.00  0.00    +0.000 N 
ATOM     25  C   UNL     1      46.975   2.140   7.168  0.00  0.00    +0.000 C 
ATOM     26  C   UNL     1      48.349   2.179   6.557  0.00  0.00    +0.000 C 
ATOM     27  O   UNL     1      46.554   1.144   7.748  0.00  0.00    +0.000 OA
ATOM     28  H   UNL     1      46.606   4.074   6.491  0.00  0.00    +0.000 HD
ENDBRANCH  23  24
ENDBRANCH  20  23
ENDBRANCH  16  17
ENDBRANCH   3  16
TORSDOF 6
ENDMDL
MODEL 4
REMARK VINA RESULT:    -6.863      3.689      8.195
REMARK INTER + INTRA:         -10.515
REMARK INTER:                  -9.750
REMARK INTRA:                  -0.765
REMARK UNBOUND:                -1.246
REMARK  Name = 
REMARK  8 active torsions:
REMARK  status: ('A' for Active; 'I' for Inactive)
REMARK    1  A    between atoms: C_1  and  O_2
REMARK    2  A    between atoms: O_2  and  C_3
REMARK    3  A    between atoms: C_10  and  C_11
REMARK    4  A    between atoms: N_13  and  C_14
REMARK    5  A    between atoms: C_14  and  C_15
REMARK    6  A    between atoms: C_18  and  C_19
REMARK    7  A    between atoms: C_19  and  N_20
REMARK    8  A    between atoms: C_21  and  C_22
REMARK                            x       y       z     vdW  Elec       q    Type
REMARK                         _______ _______ _______ _____ _____    ______ ____
ROOT
ATOM      1  C   UNL     1      47.063   4.264  14.739  0.00  0.00    +0.000 C 
ATOM      2  O   UNL     1      47.274   3.142  14.287  0.00  0.00    +0.000 OA
ATOM      3  N   UNL     1      47.103   4.497  16.088  0.00  0.00    +0.000 N 
ATOM      4  H   UNL     1      46.945   5.428  16.452  0.00  0.00    +0.000 HD
ENDROOT
BRANCH   1  12
ATOM      5  C   UNL     1      44.374   5.084  12.727  0.00  0.00    +0.000 A 
ATOM      6  N   UNL     1      43.497   5.638  11.862  0.00  0.00    +0.000 NA
ATOM      7  C   UNL     1      43.824   6.795  11.284  0.00  0.00    +0.000 A 
ATOM      8  N   UNL     1      44.943   7.489  11.463  0.00  0.00    +0.000 NA
ATOM      9  C   UNL     1      45.790   6.905  12.326  0.00  0.00    +0.000 A 
ATOM     10  S   UNL     1      47.271   7.658  12.671  0.00  0.00    +0.000 S 
ATOM     11  C   UNL     1      47.715   6.407  13.730  0.00  0.00    +0.000 A 
ATOM     12  C   UNL     1      46.761   5.401  13.849  0.00  0.00    +0.000 A 
ATOM     13  C   UNL     1      45.605   5.705  13.008  0.00  0.00    +0.000 A 
BRANCH   5  15
ATOM     14  C   UNL     1      43.666   2.867  12.415  0.00  0.00    +0.000 C 
ATOM     15  O   UNL     1      44.029   3.894  13.337  0.00  0.00    +0.000 OA
ENDBRANCH   5  15
ENDBRANCH   1  12
BRANCH   3  16
ATOM     16  C   UNL     1      47.379   3.434  17.027  0.00  0.00    +0.000 C 
BRANCH  16  17
ATOM     17  C   UNL     1      48.862   3.243  17.224  0.00  0.00    +0.000 A 
ATOM     18  C   UNL     1      49.474   2.022  16.910  0.00  0.00    +0.000 A 
ATOM     19  C   UNL     1      50.839   1.824  17.154  0.00  0.00    +0.000 A 
ATOM     20  C   UNL     1      51.616   2.836  17.733  0.00  0.00    +0.000 A 
ATOM     21  C   UNL     1      51.010   4.067  18.016  0.00  0.00    +0.000 A 
ATOM     22  C   UNL     1      49.646   4.266  17.773  0.00  0.00    +0.000 A 
BRANCH  20  23
ATOM     23  C   UNL     1      53.065   2.601  18.072  0.00  0.00    +0.000 C 
BRANCH  23  24
ATOM     24  N   UNL     1      53.313   1.270  18.573  0.00  0.00    +0.000 N 
ATOM     25  C   UNL     1      54.113   0.405  17.862  0.00  0.00    +0.000 C 
ATOM     26  C   UNL     1      54.317  -0.941  18.501  0.00  0.00    +0.000 C 
ATOM     27  O   UNL     1      54.626   0.694  16.785  0.00  0.00    +0.000 OA
ATOM     28  H   UNL     1      52.958   1.014  19.484  0.00  0.00    +0.000 HD
ENDBRANCH  23  24
ENDBRANCH  20  23
ENDBRANCH  16  17
ENDBRANCH   3  16
TORSDOF 6
ENDMDL
MODEL 5
REMARK VINA RESULT:    -6.579      2.034      2.700
REMARK INTER + INTRA:         -10.133
REMARK INTER:                  -9.220
REMARK INTRA:                  -0.913
REMARK UNBOUND:                -1.246
REMARK  Name = 
REMARK  8 active torsions:
REMARK  status: ('A' for Active; 'I' for Inactive)
REMARK    1  A    between atoms: C_1  and  O_2
REMARK    2  A    between atoms: O_2  and  C_3
REMARK    3  A    between atoms: C_10  and  C_11
REMARK    4  A    between atoms: N_13  and  C_14
REMARK    5  A    between atoms: C_14  and  C_15
REMARK    6  A    between atoms: C_18  and  C_19
REMARK    7  A    between atoms: C_19  and  N_20
REMARK    8  A    between atoms: C_21  and  C_22
REMARK                            x       y       z     vdW  Elec       q    Type
REMARK                         _______ _______ _______ _____ _____    ______ ____
ROOT
ATOM      1  C   UNL     1      49.004   7.089  15.538  0.00  0.00    +0.000 C 
ATOM      2  O   UNL     1      50.079   6.839  14.999  0.00  0.00    +0.000 OA
ATOM      3  N   UNL     1      47.883   7.333  14.790  0.00  0.00    +0.000 N 
ATOM      4  H   UNL     1      46.998   7.522  15.240  0.00  0.00    +0.000 HD
ENDROOT
BRANCH   1  12
ATOM      5  C   UNL     1      48.862   4.675  18.008  0.00  0.00    +0.000 A 
ATOM      6  N   UNL     1      48.764   3.968  19.154  0.00  0.00    +0.000 NA
ATOM      7  C   UNL     1      48.632   4.638  20.301  0.00  0.00    +0.000 A 
ATOM      8  N   UNL     1      48.584   5.956  20.454  0.00  0.00    +0.000 NA
ATOM      9  C   UNL     1      48.680   6.623  19.293  0.00  0.00    +0.000 A 
ATOM     10  S   UNL     1      48.635   8.320  19.305  0.00  0.00    +0.000 S 
ATOM     11  C   UNL     1      48.789   8.383  17.614  0.00  0.00    +0.000 A 
ATOM     12  C   UNL     1      48.880   7.135  17.007  0.00  0.00    +0.000 A 
ATOM     13  C   UNL     1      48.818   6.081  18.017  0.00  0.00    +0.000 A 
BRANCH   5  15
ATOM     14  C   UNL     1      47.923   3.110  16.530  0.00  0.00    +0.000 C 
ATOM     15  O   UNL     1      49.015   3.981  16.823  0.00  0.00    +0.000 OA
ENDBRANCH   5  15
ENDBRANCH   1  12
BRANCH   3  16
ATOM     16  C   UNL     1      47.925   7.319  13.345  0.00  0.00    +0.000 C 
BRANCH  16  17
ATOM     17  C   UNL     1      46.923   6.348  12.774  0.00  0.00    +0.000 A 
ATOM     18  C   UNL     1      46.675   5.122  13.404  0.00  0.00    +0.000 A 
ATOM     19  C   UNL     1      45.792   4.194  12.838  0.00  0.00    +0.000 A 
ATOM     20  C   UNL     1      45.155   4.465  11.620  0.00  0.00    +0.000 A 
ATOM     21  C   UNL     1      45.379   5.704  11.007  0.00  0.00    +0.000 A 
ATOM     22  C   UNL     1      46.261   6.632  11.572  0.00  0.00    +0.000 A 
BRANCH  20  23
ATOM     23  C   UNL     1      44.268   3.437  10.966  0.00  0.00    +0.000 C 
BRANCH  23  24
ATOM     24  N   UNL     1      45.013   2.430  10.249  0.00  0.00    +0.000 N 
ATOM     25  C   UNL     1      45.200   2.549   8.891  0.00  0.00    +0.000 C 
ATOM     26  C   UNL     1      46.015   1.452   8.264  0.00  0.00    +0.000 C 
ATOM     27  O   UNL     1      44.741   3.473   8.226  0.00  0.00    +0.000 OA
ATOM     28  H   UNL     1      45.458   1.685  10.768  0.00  0.00    +0.000 HD
ENDBRANCH  23  24
ENDBRANCH  20  23
ENDBRANCH  16  17
ENDBRANCH   3  16
TORSDOF 6
ENDMDL
MODEL 6
REMARK VINA RESULT:    -6.517      2.111      2.993
REMARK INTER + INTRA:         -10.049
REMARK INTER:                  -9.097
REMARK INTRA:                  -0.951
REMARK UNBOUND:                -1.246
REMARK  Name = 
REMARK  8 active torsions:
REMARK  status: ('A' for Active; 'I' for Inactive)
REMARK    1  A    between atoms: C_1  and  O_2
REMARK    2  A    between atoms: O_2  and  C_3
REMARK    3  A    between atoms: C_10  and  C_11
REMARK    4  A    between atoms: N_13  and  C_14
REMARK    5  A    between atoms: C_14  and  C_15
REMARK    6  A    between atoms: C_18  and  C_19
REMARK    7  A    between atoms: C_19  and  N_20
REMARK    8  A    between atoms: C_21  and  C_22
REMARK                            x       y       z     vdW  Elec       q    Type
REMARK                         _______ _______ _______ _____ _____    ______ ____
ROOT
ATOM      1  C   UNL     1      47.047   7.466  13.322  0.00  0.00    +0.000 C 
ATOM      2  O   UNL     1      46.149   8.273  13.098  0.00  0.00    +0.000 OA
ATOM      3  N   UNL     1      46.774   6.130  13.455  0.00  0.00    +0.000 N 
ATOM      4  H   UNL     1      47.520   5.469  13.623  0.00  0.00    +0.000 HD
ENDROOT
BRANCH   1  12
ATOM      5  C   UNL     1      49.641   6.582  15.430  0.00  0.00    +0.000 A 
ATOM      6  N   UNL     1      50.802   6.457  16.109  0.00  0.00    +0.000 NA
ATOM      7  C   UNL     1      51.833   7.222  15.745  0.00  0.00    +0.000 A 
ATOM      8  N   UNL     1      51.854   8.120  14.767  0.00  0.00    +0.000 NA
ATOM      9  C   UNL     1      50.682   8.219  14.119  0.00  0.00    +0.000 A 
ATOM     10  S   UNL     1      50.534   9.322  12.838  0.00  0.00    +0.000 S 
ATOM     11  C   UNL     1      48.912   8.885  12.587  0.00  0.00    +0.000 A 
ATOM     12  C   UNL     1      48.449   7.902  13.456  0.00  0.00    +0.000 A 
ATOM     13  C   UNL     1      49.516   7.501  14.372  0.00  0.00    +0.000 A 
BRANCH   5  15
ATOM     14  C   UNL     1      48.673   5.287  17.132  0.00  0.00    +0.000 C 
ATOM     15  O   UNL     1      48.579   5.779  15.796  0.00  0.00    +0.000 OA
ENDBRANCH   5  15
ENDBRANCH   1  12
BRANCH   3  16
ATOM     16  C   UNL     1      45.424   5.624  13.350  0.00  0.00    +0.000 C 
BRANCH  16  17
ATOM     17  C   UNL     1      45.185   4.963  12.015  0.00  0.00    +0.000 A 
ATOM     18  C   UNL     1      44.760   3.630  11.943  0.00  0.00    +0.000 A 
ATOM     19  C   UNL     1      44.601   2.998  10.704  0.00  0.00    +0.000 A 
ATOM     20  C   UNL     1      44.882   3.679   9.513  0.00  0.00    +0.000 A 
ATOM     21  C   UNL     1      45.276   5.021   9.584  0.00  0.00    +0.000 A 
ATOM     22  C   UNL     1      45.436   5.654  10.822  0.00  0.00    +0.000 A 
BRANCH  20  23
ATOM     23  C   UNL     1      44.791   2.979   8.181  0.00  0.00    +0.000 C 
BRANCH  23  24
ATOM     24  N   UNL     1      46.048   2.956   7.474  0.00  0.00    +0.000 N 
ATOM     25  C   UNL     1      46.819   1.816   7.474  0.00  0.00    +0.000 C 
ATOM     26  C   UNL     1      48.092   1.910   6.680  0.00  0.00    +0.000 C 
ATOM     27  O   UNL     1      46.506   0.793   8.075  0.00  0.00    +0.000 OA
ATOM     28  H   UNL     1      46.314   3.759   6.918  0.00  0.00    +0.000 HD
ENDBRANCH  23  24
ENDBRANCH  20  23
ENDBRANCH  16  17
ENDBRANCH   3  16
TORSDOF 6
ENDMDL
MODEL 7
REMARK VINA RESULT:    -6.414      3.725      8.179
REMARK INTER + INTRA:          -9.909
REMARK INTER:                  -8.748
REMARK INTRA:                  -1.161
REMARK UNBOUND:                -1.246
REMARK  Name = 
REMARK  8 active torsions:
REMARK  status: ('A' for Active; 'I' for Inactive)
REMARK    1  A    between atoms: C_1  and  O_2
REMARK    2  A    between atoms: O_2  and  C_3
REMARK    3  A    between atoms: C_10  and  C_11
REMARK    4  A    between atoms: N_13  and  C_14
REMARK    5  A    between atoms: C_14  and  C_15
REMARK    6  A    between atoms: C_18  and  C_19
REMARK    7  A    between atoms: C_19  and  N_20
REMARK    8  A    between atoms: C_21  and  C_22
REMARK                            x       y       z     vdW  Elec       q    Type
REMARK                         _______ _______ _______ _____ _____    ______ ____
ROOT
ATOM      1  C   UNL     1      47.140   4.310  14.552  0.00  0.00    +0.000 C 
ATOM      2  O   UNL     1      47.192   3.128  14.221  0.00  0.00    +0.000 OA
ATOM      3  N   UNL     1      47.175   4.672  15.872  0.00  0.00    +0.000 N 
ATOM      4  H   UNL     1      47.150   5.648  16.137  0.00  0.00    +0.000 HD
ENDROOT
BRANCH   1  12
ATOM      5  C   UNL     1      48.965   7.175  13.906  0.00  0.00    +0.000 A 
ATOM      6  N   UNL     1      49.468   8.339  13.444  0.00  0.00    +0.000 NA
ATOM      7  C   UNL     1      48.871   8.914  12.398  0.00  0.00    +0.000 A 
ATOM      8  N   UNL     1      47.810   8.464  11.738  0.00  0.00    +0.000 NA
ATOM      9  C   UNL     1      47.337   7.308  12.230  0.00  0.00    +0.000 A 
ATOM     10  S   UNL     1      45.980   6.591  11.504  0.00  0.00    +0.000 S 
ATOM     11  C   UNL     1      46.011   5.302  12.609  0.00  0.00    +0.000 A 
ATOM     12  C   UNL     1      47.040   5.381  13.542  0.00  0.00    +0.000 A 
ATOM     13  C   UNL     1      47.836   6.584  13.309  0.00  0.00    +0.000 A 
BRANCH   5  15
ATOM     14  C   UNL     1      49.688   7.413  16.128  0.00  0.00    +0.000 C 
ATOM     15  O   UNL     1      49.593   6.571  14.979  0.00  0.00    +0.000 OA
ENDBRANCH   5  15
ENDBRANCH   1  12
BRANCH   3  16
ATOM     16  C   UNL     1      47.261   3.683  16.922  0.00  0.00    +0.000 C 
BRANCH  16  17
ATOM     17  C   UNL     1      48.694   3.365  17.265  0.00  0.00    +0.000 A 
ATOM     18  C   UNL     1      49.479   4.282  17.977  0.00  0.00    +0.000 A 
ATOM     19  C   UNL     1      50.829   4.014  18.239  0.00  0.00    +0.000 A 
ATOM     20  C   UNL     1      51.426   2.833  17.779  0.00  0.00    +0.000 A 
ATOM     21  C   UNL     1      50.632   1.903  17.095  0.00  0.00    +0.000 A 
ATOM     22  C   UNL     1      49.284   2.170  16.833  0.00  0.00    +0.000 A 
BRANCH  20  23
ATOM     23  C   UNL     1      52.896   2.577  17.987  0.00  0.00    +0.000 C 
BRANCH  23  24
ATOM     24  N   UNL     1      53.163   1.284  18.568  0.00  0.00    +0.000 N 
ATOM     25  C   UNL     1      53.904   0.356  17.874  0.00  0.00    +0.000 C 
ATOM     26  C   UNL     1      54.135  -0.942  18.597  0.00  0.00    +0.000 C 
ATOM     27  O   UNL     1      54.348   0.556  16.747  0.00  0.00    +0.000 OA
ATOM     28  H   UNL     1      52.865   1.101  19.518  0.00  0.00    +0.000 HD
ENDBRANCH  23  24
ENDBRANCH  20  23
ENDBRANCH  16  17
ENDBRANCH   3  16
TORSDOF 6
ENDMDL
MODEL 8
REMARK VINA RESULT:    -5.880      3.290      7.473
REMARK INTER + INTRA:          -9.188
REMARK INTER:                  -8.161
REMARK INTRA:                  -1.028
REMARK UNBOUND:                -1.246
REMARK  Name = 
REMARK  8 active torsions:
REMARK  status: ('A' for Active; 'I' for Inactive)
REMARK    1  A    between atoms: C_1  and  O_2
REMARK    2  A    between atoms: O_2  and  C_3
REMARK    3  A    between atoms: C_10  and  C_11
REMARK    4  A    between atoms: N_13  and  C_14
REMARK    5  A    between atoms: C_14  and  C_15
REMARK    6  A    between atoms: C_18  and  C_19
REMARK    7  A    between atoms: C_19  and  N_20
REMARK    8  A    between atoms: C_21  and  C_22
REMARK                            x       y       z     vdW  Elec       q    Type
REMARK                         _______ _______ _______ _____ _____    ______ ____
ROOT
ATOM      1  C   UNL     1      47.955   7.069  13.473  0.00  0.00    +0.000 C 
ATOM      2  O   UNL     1      49.033   6.634  13.076  0.00  0.00    +0.000 OA
ATOM      3  N   UNL     1      47.897   7.965  14.508  0.00  0.00    +0.000 N 
ATOM      4  H   UNL     1      47.007   8.332  14.819  0.00  0.00    +0.000 HD
ENDROOT
BRANCH   1  12
ATOM      5  C   UNL     1      46.300   4.043  13.225  0.00  0.00    +0.000 A 
ATOM      6  N   UNL     1      45.461   3.019  12.958  0.00  0.00    +0.000 NA
ATOM      7  C   UNL     1      44.356   3.274  12.256  0.00  0.00    +0.000 A 
ATOM      8  N   UNL     1      43.971   4.450  11.772  0.00  0.00    +0.000 NA
ATOM      9  C   UNL     1      44.832   5.441  12.053  0.00  0.00    +0.000 A 
ATOM     10  S   UNL     1      44.495   7.012  11.509  0.00  0.00    +0.000 S 
ATOM     11  C   UNL     1      45.927   7.610  12.198  0.00  0.00    +0.000 A 
ATOM     12  C   UNL     1      46.686   6.645  12.852  0.00  0.00    +0.000 A 
ATOM     13  C   UNL     1      46.024   5.345  12.767  0.00  0.00    +0.000 A 
BRANCH   5  15
ATOM     14  C   UNL     1      47.265   4.006  15.365  0.00  0.00    +0.000 C 
ATOM     15  O   UNL     1      47.437   3.783  13.966  0.00  0.00    +0.000 OA
ENDBRANCH   5  15
ENDBRANCH   1  12
BRANCH   3  16
ATOM     16  C   UNL     1      49.095   8.419  15.177  0.00  0.00    +0.000 C 
BRANCH  16  17
ATOM     17  C   UNL     1      49.588   7.402  16.176  0.00  0.00    +0.000 A 
ATOM     18  C   UNL     1      50.869   6.847  16.057  0.00  0.00    +0.000 A 
ATOM     19  C   UNL     1      51.302   5.855  16.946  0.00  0.00    +0.000 A 
ATOM     20  C   UNL     1      50.457   5.386  17.960  0.00  0.00    +0.000 A 
ATOM     21  C   UNL     1      49.189   5.964  18.097  0.00  0.00    +0.000 A 
ATOM     22  C   UNL     1      48.755   6.954  17.209  0.00  0.00    +0.000 A 
BRANCH  20  23
ATOM     23  C   UNL     1      50.888   4.263  18.867  0.00  0.00    +0.000 C 
BRANCH  23  24
ATOM     24  N   UNL     1      51.007   3.000  18.178  0.00  0.00    +0.000 N 
ATOM     25  C   UNL     1      52.234   2.387  18.072  0.00  0.00    +0.000 C 
ATOM     26  C   UNL     1      52.223   1.065  17.355  0.00  0.00    +0.000 C 
ATOM     27  O   UNL     1      53.269   2.871  18.520  0.00  0.00    +0.000 OA
ATOM     28  H   UNL     1      50.170   2.540  17.846  0.00  0.00    +0.000 HD
ENDBRANCH  23  24
ENDBRANCH  20  23
ENDBRANCH  16  17
ENDBRANCH   3  16
TORSDOF 6
ENDMDL
MODEL 9
REMARK VINA RESULT:    -5.816      3.617      8.326
REMARK INTER + INTRA:          -9.101
REMARK INTER:                  -7.900
REMARK INTRA:                  -1.202
REMARK UNBOUND:                -1.246
REMARK  Name = 
REMARK  8 active torsions:
REMARK  status: ('A' for Active; 'I' for Inactive)
REMARK    1  A    between atoms: C_1  and  O_2
REMARK    2  A    between atoms: O_2  and  C_3
REMARK    3  A    between atoms: C_10  and  C_11
REMARK    4  A    between atoms: N_13  and  C_14
REMARK    5  A    between atoms: C_14  and  C_15
REMARK    6  A    between atoms: C_18  and  C_19
REMARK    7  A    between atoms: C_19  and  N_20
REMARK    8  A    between atoms: C_21  and  C_22
REMARK                            x       y       z     vdW  Elec       q    Type
REMARK                         _______ _______ _______ _____ _____    ______ ____
ROOT
ATOM      1  C   UNL     1      47.013   4.392  14.436  0.00  0.00    +0.000 C 
ATOM      2  O   UNL     1      47.041   3.235  14.023  0.00  0.00    +0.000 OA
ATOM      3  N   UNL     1      47.157   4.665  15.770  0.00  0.00    +0.000 N 
ATOM      4  H   UNL     1      47.150   5.621  16.101  0.00  0.00    +0.000 HD
ENDROOT
BRANCH   1  12
ATOM      5  C   UNL     1      48.770   7.308  13.835  0.00  0.00    +0.000 A 
ATOM      6  N   UNL     1      49.229   8.505  13.411  0.00  0.00    +0.000 NA
ATOM      7  C   UNL     1      48.545   9.144  12.460  0.00  0.00    +0.000 A 
ATOM      8  N   UNL     1      47.433   8.730  11.862  0.00  0.00    +0.000 NA
ATOM      9  C   UNL     1      47.006   7.540  12.313  0.00  0.00    +0.000 A 
ATOM     10  S   UNL     1      45.595   6.863  11.657  0.00  0.00    +0.000 S 
ATOM     11  C   UNL     1      45.722   5.502  12.666  0.00  0.00    +0.000 A 
ATOM     12  C   UNL     1      46.825   5.527  13.513  0.00  0.00    +0.000 A 
ATOM     13  C   UNL     1      47.596   6.749  13.296  0.00  0.00    +0.000 A 
BRANCH   5  15
ATOM     14  C   UNL     1      50.414   7.472  15.503  0.00  0.00    +0.000 C 
ATOM     15  O   UNL     1      49.487   6.639  14.808  0.00  0.00    +0.000 OA
ENDBRANCH   5  15
ENDBRANCH   1  12
BRANCH   3  16
ATOM     16  C   UNL     1      47.332   3.608  16.740  0.00  0.00    +0.000 C 
BRANCH  16  17
ATOM     17  C   UNL     1      48.790   3.379  17.049  0.00  0.00    +0.000 A 
ATOM     18  C   UNL     1      49.389   2.138  16.795  0.00  0.00    +0.000 A 
ATOM     19  C   UNL     1      50.726   1.906  17.142  0.00  0.00    +0.000 A 
ATOM     20  C   UNL     1      51.485   2.904  17.768  0.00  0.00    +0.000 A 
ATOM     21  C   UNL     1      50.895   4.154  17.992  0.00  0.00    +0.000 A 
ATOM     22  C   UNL     1      49.560   4.387  17.646  0.00  0.00    +0.000 A 
BRANCH  20  23
ATOM     23  C   UNL     1      52.898   2.633  18.217  0.00  0.00    +0.000 C 
BRANCH  23  24
ATOM     24  N   UNL     1      53.878   3.376  17.462  0.00  0.00    +0.000 N 
ATOM     25  C   UNL     1      54.585   4.392  18.063  0.00  0.00    +0.000 C 
ATOM     26  C   UNL     1      55.595   5.071  17.179  0.00  0.00    +0.000 C 
ATOM     27  O   UNL     1      54.415   4.732  19.229  0.00  0.00    +0.000 OA
ATOM     28  H   UNL     1      54.090   3.088  16.516  0.00  0.00    +0.000 HD
ENDBRANCH  23  24
ENDBRANCH  20  23
ENDBRANCH  16  17
ENDBRANCH   3  16
TORSDOF 6
ENDMDL
