MODEL 1
REMARK VINA RESULT:    -7.443      0.000      0.000
REMARK INTER + INTRA:          -9.744
REMARK INTER:                  -9.183
REMARK INTRA:                  -0.561
REMARK UNBOUND:                -0.561
REMARK  Name = 
REMARK  5 active torsions:
REMARK  status: ('A' for Active; 'I' for Inactive)
REMARK    1  A    between atoms: C_1  and  O_2
REMARK    2  A    between atoms: O_2  and  C_3
REMARK    3  A    between atoms: C_7  and  C_8
REMARK    4  A    between atoms: C_8  and  N_9
REMARK    5  A    between atoms: C_10  and  C_12
REMARK                            x       y       z     vdW  Elec       q    Type
REMARK                         _______ _______ _______ _____ _____    ______ ____
ROOT
ATOM      1  N   UNL     1      46.831   4.414  15.909  0.00  0.00    +0.000 N 
ATOM      2  C   UNL     1      46.919   4.121  14.574  0.00  0.00    +0.000 C 
ATOM      3  O   UNL     1      47.261   3.013  14.169  0.00  0.00    +0.000 OA
ATOM      4  H   UNL     1      46.739   5.380  16.207  0.00  0.00    +0.000 HD
ENDROOT
BRANCH   2   5
ATOM      5  C   UNL     1      46.515   5.179  13.640  0.00  0.00    +0.000 A 
ATOM      6  C   UNL     1      47.405   6.203  13.344  0.00  0.00    +0.000 A 
ATOM      7  S   UNL     1      46.805   7.329  12.214  0.00  0.00    +0.000 S 
ATOM      8  C   UNL     1      45.312   6.518  12.117  0.00  0.00    +0.000 A 
ATOM      9  N   UNL     1      44.312   6.991  11.327  0.00  0.00    +0.000 NA
ATOM     10  C   UNL     1      43.222   6.301  11.378  0.00  0.00    +0.000 A 
ATOM     11  N   UNL     1      43.045   5.175  12.140  0.00  0.00    +0.000 N 
ATOM     12  C   UNL     1      44.042   4.638  12.922  0.00  0.00    +0.000 A 
ATOM     13  O   UNL     1      43.871   3.595  13.546  0.00  0.00    +0.000 OA
ATOM     14  C   UNL     1      45.281   5.390  12.920  0.00  0.00    +0.000 A 
ATOM     15  H   UNL     1      42.169   4.674  12.126  0.00  0.00    +0.000 HD
ENDBRANCH   2   5
BRANCH   1  16
ATOM     16  C   UNL     1      47.172   3.452  16.930  0.00  0.00    +0.000 C 
BRANCH  16  21
ATOM     17  C   UNL     1      50.781   2.255  17.280  0.00  0.00    +0.000 A 
ATOM     18  C   UNL     1      51.442   3.459  17.526  0.00  0.00    +0.000 A 
ATOM     19  C   UNL     1      50.721   4.655  17.588  0.00  0.00    +0.000 A 
ATOM     20  C   UNL     1      49.339   4.652  17.407  0.00  0.00    +0.000 A 
ATOM     21  C   UNL     1      48.657   3.451  17.172  0.00  0.00    +0.000 A 
ATOM     22  C   UNL     1      49.393   2.258  17.106  0.00  0.00    +0.000 A 
BRANCH  17  24
ATOM     23  C   UNL     1      52.723   0.921  17.601  0.00  0.00    +0.000 C 
ATOM     24  O   UNL     1      51.367   1.023  17.181  0.00  0.00    +0.000 OA
ENDBRANCH  17  24
ENDBRANCH  16  21
ENDBRANCH   1  16
TORSDOF 4
ENDMDL
MODEL 2
REMARK VINA RESULT:    -7.182      2.941      7.050
REMARK INTER + INTRA:          -9.422
REMARK INTER:                  -8.946
REMARK INTRA:                  -0.475
REMARK UNBOUND:                -0.561
REMARK  Name = 
REMARK  5 active torsions:
REMARK  status: ('A' for Active; 'I' for Inactive)
REMARK    1  A    between atoms: C_1  and  O_2
REMARK    2  A    between atoms: O_2  and  C_3
REMARK    3  A    between atoms: C_7  and  C_8
REMARK    4  A    between atoms: C_8  and  N_9
REMARK    5  A    between atoms: C_10  and  C_12
REMARK                            x       y       z     vdW  Elec       q    Type
REMARK                         _______ _______ _______ _____ _____    ______ ____
ROOT
ATOM      1  N   UNL     1      45.343   4.882  13.698  0.00  0.00    +0.000 N 
ATOM      2  C   UNL     1      46.509   4.280  14.090  0.00  0.00    +0.000 C 
ATOM      3  O   UNL     1      46.815   3.147  13.725  0.00  0.00    +0.000 OA
ATOM      4  H   UNL     1      45.031   5.726  14.167  0.00  0.00    +0.000 HD
ENDROOT
BRANCH   2   5
ATOM      5  C   UNL     1      47.419   5.082  14.917  0.00  0.00    +0.000 A 
ATOM      6  C   UNL     1      48.123   6.129  14.337  0.00  0.00    +0.000 A 
ATOM      7  S   UNL     1      49.103   6.989  15.435  0.00  0.00    +0.000 S 
ATOM      8  C   UNL     1      48.661   5.962  16.718  0.00  0.00    +0.000 A 
ATOM      9  N   UNL     1      49.183   6.135  17.961  0.00  0.00    +0.000 NA
ATOM     10  C   UNL     1      48.792   5.262  18.829  0.00  0.00    +0.000 A 
ATOM     11  N   UNL     1      47.920   4.238  18.568  0.00  0.00    +0.000 N 
ATOM     12  C   UNL     1      47.335   4.049  17.336  0.00  0.00    +0.000 A 
ATOM     13  O   UNL     1      46.512   3.158  17.150  0.00  0.00    +0.000 OA
ATOM     14  C   UNL     1      47.760   4.989  16.317  0.00  0.00    +0.000 A 
ATOM     15  H   UNL     1      47.645   3.594  19.295  0.00  0.00    +0.000 HD
ENDBRANCH   2   5
BRANCH   1  16
ATOM     16  C   UNL     1      44.377   4.211  12.861  0.00  0.00    +0.000 C 
BRANCH  16  21
ATOM     17  C   UNL     1      45.181   3.046   9.313  0.00  0.00    +0.000 A 
ATOM     18  C   UNL     1      45.597   4.240   8.725  0.00  0.00    +0.000 A 
ATOM     19  C   UNL     1      45.627   5.419   9.476  0.00  0.00    +0.000 A 
ATOM     20  C   UNL     1      45.245   5.408  10.816  0.00  0.00    +0.000 A 
ATOM     21  C   UNL     1      44.836   4.215  11.427  0.00  0.00    +0.000 A 
ATOM     22  C   UNL     1      44.804   3.041  10.661  0.00  0.00    +0.000 A 
BRANCH  17  24
ATOM     23  C   UNL     1      46.271   1.348   8.056  0.00  0.00    +0.000 C 
ATOM     24  O   UNL     1      45.092   1.831   8.690  0.00  0.00    +0.000 OA
ENDBRANCH  17  24
ENDBRANCH  16  21
ENDBRANCH   1  16
TORSDOF 4
ENDMDL
MODEL 3
REMARK VINA RESULT:    -7.166      3.296      7.268
REMARK INTER + INTRA:          -9.402
REMARK INTER:                  -8.640
REMARK INTRA:                  -0.762
REMARK UNBOUND:                -0.561
REMARK  Name = 
REMARK  5 active torsions:
REMARK  status: ('A' for Active; 'I' for Inactive)
REMARK    1  A    between atoms: C_1  and  O_2
REMARK    2  A    between atoms: O_2  and  C_3
REMARK    3  A    between atoms: C_7  and  C_8
REMARK    4  A    between atoms: C_8  and  N_9
REMARK    5  A    between atoms: C_10  and  C_12
REMARK                            x       y       z     vdW  Elec       q    Type
REMARK                         _______ _______ _______ _____ _____    ______ ____
ROOT
ATOM      1  N   UNL     1      45.387   6.038  12.367  0.00  0.00    +0.000 N 
ATOM      2  C   UNL     1      46.660   6.541  12.350  0.00  0.00    +0.000 C 
ATOM      3  O   UNL     1      47.127   7.108  11.365  0.00  0.00    +0.000 OA
ATOM      4  H   UNL     1      45.104   5.412  13.114  0.00  0.00    +0.000 HD
ENDROOT
BRANCH   2   5
ATOM      5  C   UNL     1      47.427   6.434  13.598  0.00  0.00    +0.000 A 
ATOM      6  C   UNL     1      48.210   7.504  14.011  0.00  0.00    +0.000 A 
ATOM      7  S   UNL     1      49.004   7.241  15.495  0.00  0.00    +0.000 S 
ATOM      8  C   UNL     1      48.371   5.666  15.617  0.00  0.00    +0.000 A 
ATOM      9  N   UNL     1      48.692   4.864  16.668  0.00  0.00    +0.000 NA
ATOM     10  C   UNL     1      48.174   3.683  16.614  0.00  0.00    +0.000 A 
ATOM     11  N   UNL     1      47.356   3.234  15.610  0.00  0.00    +0.000 N 
ATOM     12  C   UNL     1      46.971   4.024  14.550  0.00  0.00    +0.000 A 
ATOM     13  O   UNL     1      46.190   3.611  13.698  0.00  0.00    +0.000 OA
ATOM     14  C   UNL     1      47.546   5.354  14.549  0.00  0.00    +0.000 A 
ATOM     15  H   UNL     1      46.973   2.301  15.633  0.00  0.00    +0.000 HD
ENDBRANCH   2   5
BRANCH   1  16
ATOM     16  C   UNL     1      44.520   6.105  11.215  0.00  0.00    +0.000 C 
BRANCH  16  21
ATOM     17  C   UNL     1      45.687   3.889   8.332  0.00  0.00    +0.000 A 
ATOM     18  C   UNL     1      45.203   2.645   8.735  0.00  0.00    +0.000 A 
ATOM     19  C   UNL     1      44.492   2.524   9.933  0.00  0.00    +0.000 A 
ATOM     20  C   UNL     1      44.260   3.643  10.729  0.00  0.00    +0.000 A 
ATOM     21  C   UNL     1      44.728   4.903  10.333  0.00  0.00    +0.000 A 
ATOM     22  C   UNL     1      45.445   5.011   9.132  0.00  0.00    +0.000 A 
BRANCH  17  24
ATOM     23  C   UNL     1      46.768   3.018   6.402  0.00  0.00    +0.000 C 
ATOM     24  O   UNL     1      46.405   4.142   7.196  0.00  0.00    +0.000 OA
ENDBRANCH  17  24
ENDBRANCH  16  21
ENDBRANCH   1  16
TORSDOF 4
ENDMDL
MODEL 4
REMARK VINA RESULT:    -6.973      1.298      2.123
REMARK INTER + INTRA:          -9.164
REMARK INTER:                  -8.566
REMARK INTRA:                  -0.598
REMARK UNBOUND:                -0.561
REMARK  Name = 
REMARK  5 active torsions:
REMARK  status: ('A' for Active; 'I' for Inactive)
REMARK    1  A    between atoms: C_1  and  O_2
REMARK    2  A    between atoms: O_2  and  C_3
REMARK    3  A    between atoms: C_7  and  C_8
REMARK    4  A    between atoms: C_8  and  N_9
REMARK    5  A    between atoms: C_10  and  C_12
REMARK                            x       y       z     vdW  Elec       q    Type
REMARK                         _______ _______ _______ _____ _____    ______ ____
ROOT
ATOM      1  N   UNL     1      46.790   4.363  15.847  0.00  0.00    +0.000 N 
ATOM      2  C   UNL     1      46.826   4.113  14.501  0.00  0.00    +0.000 C 
ATOM      3  O   UNL     1      47.193   3.032  14.047  0.00  0.00    +0.000 OA
ATOM      4  H   UNL     1      46.673   5.316  16.178  0.00  0.00    +0.000 HD
ENDROOT
BRANCH   2   5
ATOM      5  C   UNL     1      46.336   5.180  13.620  0.00  0.00    +0.000 A 
ATOM      6  C   UNL     1      47.128   6.300  13.400  0.00  0.00    +0.000 A 
ATOM      7  S   UNL     1      46.439   7.427  12.323  0.00  0.00    +0.000 S 
ATOM      8  C   UNL     1      45.033   6.483  12.150  0.00  0.00    +0.000 A 
ATOM      9  N   UNL     1      44.003   6.904  11.367  0.00  0.00    +0.000 NA
ATOM     10  C   UNL     1      42.984   6.111  11.357  0.00  0.00    +0.000 A 
ATOM     11  N   UNL     1      42.906   4.931  12.051  0.00  0.00    +0.000 N 
ATOM     12  C   UNL     1      43.938   4.447  12.821  0.00  0.00    +0.000 A 
ATOM     13  O   UNL     1      43.859   3.359  13.383  0.00  0.00    +0.000 OA
ATOM     14  C   UNL     1      45.099   5.313  12.887  0.00  0.00    +0.000 A 
ATOM     15  H   UNL     1      42.083   4.350  11.991  0.00  0.00    +0.000 HD
ENDBRANCH   2   5
BRANCH   1  16
ATOM     16  C   UNL     1      47.217   3.387  16.821  0.00  0.00    +0.000 C 
BRANCH  16  21
ATOM     17  C   UNL     1      50.567   4.945  17.787  0.00  0.00    +0.000 A 
ATOM     18  C   UNL     1      51.404   3.829  17.751  0.00  0.00    +0.000 A 
ATOM     19  C   UNL     1      50.887   2.577  17.407  0.00  0.00    +0.000 A 
ATOM     20  C   UNL     1      49.537   2.435  17.094  0.00  0.00    +0.000 A 
ATOM     21  C   UNL     1      48.685   3.547  17.112  0.00  0.00    +0.000 A 
ATOM     22  C   UNL     1      49.214   4.797  17.466  0.00  0.00    +0.000 A 
BRANCH  17  24
ATOM     23  C   UNL     1      49.942   7.047  18.705  0.00  0.00    +0.000 C 
ATOM     24  O   UNL     1      50.941   6.218  18.120  0.00  0.00    +0.000 OA
ENDBRANCH  17  24
ENDBRANCH  16  21
ENDBRANCH   1  16
TORSDOF 4
ENDMDL
MODEL 5
REMARK VINA RESULT:    -6.944      2.332      3.147
REMARK INTER + INTRA:          -9.128
REMARK INTER:                  -8.395
REMARK INTRA:                  -0.734
REMARK UNBOUND:                -0.561
REMARK  Name = 
REMARK  5 active torsions:
REMARK  status: ('A' for Active; 'I' for Inactive)
REMARK    1  A    between atoms: C_1  and  O_2
REMARK    2  A    between atoms: O_2  and  C_3
REMARK    3  A    between atoms: C_7  and  C_8
REMARK    4  A    between atoms: C_8  and  N_9
REMARK    5  A    between atoms: C_10  and  C_12
REMARK                            x       y       z     vdW  Elec       q    Type
REMARK                         _______ _______ _______ _____ _____    ______ ____
ROOT
ATOM      1  N   UNL     1      47.113   5.910  14.485  0.00  0.00    +0.000 N 
ATOM      2  C   UNL     1      47.020   6.311  13.179  0.00  0.00    +0.000 C 
ATOM      3  O   UNL     1      47.963   6.828  12.584  0.00  0.00    +0.000 OA
ATOM      4  H   UNL     1      46.271   5.672  14.999  0.00  0.00    +0.000 HD
ENDROOT
BRANCH   2   5
ATOM      5  C   UNL     1      45.753   6.029  12.492  0.00  0.00    +0.000 A 
ATOM      6  C   UNL     1      45.032   7.078  11.935  0.00  0.00    +0.000 A 
ATOM      7  S   UNL     1      43.608   6.585  11.140  0.00  0.00    +0.000 S 
ATOM      8  C   UNL     1      43.875   4.956  11.553  0.00  0.00    +0.000 A 
ATOM      9  N   UNL     1      42.988   3.991  11.193  0.00  0.00    +0.000 NA
ATOM     10  C   UNL     1      43.295   2.806  11.606  0.00  0.00    +0.000 A 
ATOM     11  N   UNL     1      44.412   2.498  12.337  0.00  0.00    +0.000 N 
ATOM     12  C   UNL     1      45.357   3.435  12.688  0.00  0.00    +0.000 A 
ATOM     13  O   UNL     1      46.377   3.117  13.293  0.00  0.00    +0.000 OA
ATOM     14  C   UNL     1      45.049   4.789  12.271  0.00  0.00    +0.000 A 
ATOM     15  H   UNL     1      44.600   1.548  12.619  0.00  0.00    +0.000 HD
ENDBRANCH   2   5
BRANCH   1  16
ATOM     16  C   UNL     1      48.313   6.103  15.263  0.00  0.00    +0.000 C 
BRANCH  16  21
ATOM     17  C   UNL     1      49.243   4.435  18.571  0.00  0.00    +0.000 A 
ATOM     18  C   UNL     1      48.386   3.335  18.568  0.00  0.00    +0.000 A 
ATOM     19  C   UNL     1      47.516   3.127  17.495  0.00  0.00    +0.000 A 
ATOM     20  C   UNL     1      47.500   4.014  16.421  0.00  0.00    +0.000 A 
ATOM     21  C   UNL     1      48.362   5.117  16.400  0.00  0.00    +0.000 A 
ATOM     22  C   UNL     1      49.227   5.319  17.486  0.00  0.00    +0.000 A 
BRANCH  17  24
ATOM     23  C   UNL     1      49.593   4.963  20.863  0.00  0.00    +0.000 C 
ATOM     24  O   UNL     1      50.130   4.761  19.560  0.00  0.00    +0.000 OA
ENDBRANCH  17  24
ENDBRANCH  16  21
ENDBRANCH   1  16
TORSDOF 4
ENDMDL
MODEL 6
REMARK VINA RESULT:    -6.940      2.994      7.163
REMARK INTER + INTRA:          -9.124
REMARK INTER:                  -8.337
REMARK INTRA:                  -0.787
REMARK UNBOUND:                -0.561
REMARK  Name = 
REMARK  5 active torsions:
REMARK  status: ('A' for Active; 'I' for Inactive)
REMARK    1  A    between atoms: C_1  and  O_2
REMARK    2  A    between atoms: O_2  and  C_3
REMARK    3  A    between atoms: C_7  and  C_8
REMARK    4  A    between atoms: C_8  and  N_9
REMARK    5  A    between atoms: C_10  and  C_12
REMARK                            x       y       z     vdW  Elec       q    Type
REMARK                         _______ _______ _______ _____ _____    ______ ____
ROOT
ATOM      1  N   UNL     1      46.826   6.697  13.596  0.00  0.00    +0.000 N 
ATOM      2  C   UNL     1      48.167   6.508  13.799  0.00  0.00    +0.000 C 
ATOM      3  O   UNL     1      48.989   6.631  12.894  0.00  0.00    +0.000 OA
ATOM      4  H   UNL     1      46.163   6.400  14.304  0.00  0.00    +0.000 HD
ENDROOT
BRANCH   2   5
ATOM      5  C   UNL     1      48.590   6.216  15.174  0.00  0.00    +0.000 A 
ATOM      6  C   UNL     1      49.569   7.003  15.768  0.00  0.00    +0.000 A 
ATOM      7  S   UNL     1      49.919   6.564  17.376  0.00  0.00    +0.000 S 
ATOM      8  C   UNL     1      48.811   5.273  17.323  0.00  0.00    +0.000 A 
ATOM      9  N   UNL     1      48.643   4.454  18.396  0.00  0.00    +0.000 NA
ATOM     10  C   UNL     1      47.801   3.494  18.205  0.00  0.00    +0.000 A 
ATOM     11  N   UNL     1      47.106   3.284  17.043  0.00  0.00    +0.000 N 
ATOM     12  C   UNL     1      47.214   4.111  15.948  0.00  0.00    +0.000 A 
ATOM     13  O   UNL     1      46.533   3.930  14.942  0.00  0.00    +0.000 OA
ATOM     14  C   UNL     1      48.166   5.193  16.100  0.00  0.00    +0.000 A 
ATOM     15  H   UNL     1      46.453   2.519  16.961  0.00  0.00    +0.000 HD
ENDBRANCH   2   5
BRANCH   1  16
ATOM     16  C   UNL     1      46.284   7.017  12.297  0.00  0.00    +0.000 C 
BRANCH  16  21
ATOM     17  C   UNL     1      44.094   4.535  10.390  0.00  0.00    +0.000 A 
ATOM     18  C   UNL     1      43.119   4.247  11.345  0.00  0.00    +0.000 A 
ATOM     19  C   UNL     1      43.164   4.861  12.600  0.00  0.00    +0.000 A 
ATOM     20  C   UNL     1      44.179   5.765  12.905  0.00  0.00    +0.000 A 
ATOM     21  C   UNL     1      45.160   6.077  11.953  0.00  0.00    +0.000 A 
ATOM     22  C   UNL     1      45.107   5.449  10.700  0.00  0.00    +0.000 A 
BRANCH  17  24
ATOM     23  C   UNL     1      44.589   2.638   9.046  0.00  0.00    +0.000 C 
ATOM     24  O   UNL     1      44.174   3.996   9.135  0.00  0.00    +0.000 OA
ENDBRANCH  17  24
ENDBRANCH  16  21
ENDBRANCH   1  16
TORSDOF 4
ENDMDL
MODEL 7
REMARK VINA RESULT:    -6.835      2.014      3.040
REMARK INTER + INTRA:          -8.994
REMARK INTER:                  -8.216
REMARK INTRA:                  -0.778
REMARK UNBOUND:                -0.561
REMARK  Name = 
REMARK  5 active torsions:
REMARK  status: ('A' for Active; 'I' for Inactive)
REMARK    1  A    between atoms: C_1  and  O_2
REMARK    2  A    between atoms: O_2  and  C_3
REMARK    3  A    between atoms: C_7  and  C_8
REMARK    4  A    between atoms: C_8  and  N_9
REMARK    5  A    between atoms: C_10  and  C_12
REMARK                            x       y       z     vdW  Elec       q    Type
REMARK                         _______ _______ _______ _____ _____    ______ ____
ROOT
ATOM      1  N   UNL     1      47.966   7.139  15.115  0.00  0.00    +0.000 N 
ATOM      2  C   UNL     1      48.117   6.766  13.806  0.00  0.00    +0.000 C 
ATOM      3  O   UNL     1      49.222   6.653  13.281  0.00  0.00    +0.000 OA
ATOM      4  H   UNL     1      47.050   7.411  15.458  0.00  0.00    +0.000 HD
ENDROOT
BRANCH   2   5
ATOM      5  C   UNL     1      46.890   6.437  13.069  0.00  0.00    +0.000 A 
ATOM      6  C   UNL     1      46.152   7.458  12.485  0.00  0.00    +0.000 A 
ATOM      7  S   UNL     1      44.781   6.912  11.633  0.00  0.00    +0.000 S 
ATOM      8  C   UNL     1      45.094   5.294  12.056  0.00  0.00    +0.000 A 
ATOM      9  N   UNL     1      44.260   4.296  11.660  0.00  0.00    +0.000 NA
ATOM     10  C   UNL     1      44.596   3.123  12.084  0.00  0.00    +0.000 A 
ATOM     11  N   UNL     1      45.694   2.857  12.859  0.00  0.00    +0.000 N 
ATOM     12  C   UNL     1      46.587   3.829  13.249  0.00  0.00    +0.000 A 
ATOM     13  O   UNL     1      47.594   3.550  13.893  0.00  0.00    +0.000 OA
ATOM     14  C   UNL     1      46.244   5.170  12.819  0.00  0.00    +0.000 A 
ATOM     15  H   UNL     1      45.907   1.914  13.149  0.00  0.00    +0.000 HD
ENDBRANCH   2   5
BRANCH   1  16
ATOM     16  C   UNL     1      49.094   7.460  15.956  0.00  0.00    +0.000 C 
BRANCH  16  21
ATOM     17  C   UNL     1      49.349   3.927  17.384  0.00  0.00    +0.000 A 
ATOM     18  C   UNL     1      50.716   3.841  17.646  0.00  0.00    +0.000 A 
ATOM     19  C   UNL     1      51.553   4.926  17.371  0.00  0.00    +0.000 A 
ATOM     20  C   UNL     1      51.029   6.100  16.836  0.00  0.00    +0.000 A 
ATOM     21  C   UNL     1      49.656   6.210  16.578  0.00  0.00    +0.000 A 
ATOM     22  C   UNL     1      48.827   5.112  16.853  0.00  0.00    +0.000 A 
BRANCH  17  24
ATOM     23  C   UNL     1      47.060   3.287  17.404  0.00  0.00    +0.000 C 
ATOM     24  O   UNL     1      48.427   2.939  17.593  0.00  0.00    +0.000 OA
ENDBRANCH  17  24
ENDBRANCH  16  21
ENDBRANCH   1  16
TORSDOF 4
ENDMDL
MODEL 8
REMARK VINA RESULT:    -6.834      1.882      2.936
REMARK INTER + INTRA:          -8.992
REMARK INTER:                  -8.137
REMARK INTRA:                  -0.855
REMARK UNBOUND:                -0.561
REMARK  Name = 
REMARK  5 active torsions:
REMARK  status: ('A' for Active; 'I' for Inactive)
REMARK    1  A    between atoms: C_1  and  O_2
REMARK    2  A    between atoms: O_2  and  C_3
REMARK    3  A    between atoms: C_7  and  C_8
REMARK    4  A    between atoms: C_8  and  N_9
REMARK    5  A    between atoms: C_10  and  C_12
REMARK                            x       y       z     vdW  Elec       q    Type
REMARK                         _______ _______ _______ _____ _____    ______ ____
ROOT
ATOM      1  N   UNL     1      47.111   4.682  15.853  0.00  0.00    +0.000 N 
ATOM      2  C   UNL     1      47.110   4.310  14.535  0.00  0.00    +0.000 C 
ATOM      3  O   UNL     1      47.233   3.139  14.186  0.00  0.00    +0.000 OA
ATOM      4  H   UNL     1      47.205   5.662  16.099  0.00  0.00    +0.000 HD
ENDROOT
BRANCH   2   5
ATOM      5  C   UNL     1      46.885   5.376  13.551  0.00  0.00    +0.000 A 
ATOM      6  C   UNL     1      45.779   5.307  12.713  0.00  0.00    +0.000 A 
ATOM      7  S   UNL     1      45.635   6.636  11.657  0.00  0.00    +0.000 S 
ATOM      8  C   UNL     1      47.073   7.330  12.245  0.00  0.00    +0.000 A 
ATOM      9  N   UNL     1      47.547   8.496  11.730  0.00  0.00    +0.000 NA
ATOM     10  C   UNL     1      48.666   8.887  12.241  0.00  0.00    +0.000 A 
ATOM     11  N   UNL     1      49.349   8.224  13.227  0.00  0.00    +0.000 N 
ATOM     12  C   UNL     1      48.886   7.065  13.806  0.00  0.00    +0.000 A 
ATOM     13  O   UNL     1      49.492   6.527  14.728  0.00  0.00    +0.000 OA
ATOM     14  C   UNL     1      47.644   6.567  13.251  0.00  0.00    +0.000 A 
ATOM     15  H   UNL     1      50.215   8.591  13.593  0.00  0.00    +0.000 HD
ENDBRANCH   2   5
BRANCH   1  16
ATOM     16  C   UNL     1      47.294   3.727  16.920  0.00  0.00    +0.000 C 
BRANCH  16  21
ATOM     17  C   UNL     1      50.782   2.239  17.371  0.00  0.00    +0.000 A 
ATOM     18  C   UNL     1      51.502   3.359  17.785  0.00  0.00    +0.000 A 
ATOM     19  C   UNL     1      50.859   4.592  17.927  0.00  0.00    +0.000 A 
ATOM     20  C   UNL     1      49.497   4.710  17.659  0.00  0.00    +0.000 A 
ATOM     21  C   UNL     1      48.755   3.592  17.255  0.00  0.00    +0.000 A 
ATOM     22  C   UNL     1      49.413   2.361  17.111  0.00  0.00    +0.000 A 
BRANCH  17  24
ATOM     23  C   UNL     1      52.666   0.793  17.493  0.00  0.00    +0.000 C 
ATOM     24  O   UNL     1      51.290   0.983  17.180  0.00  0.00    +0.000 OA
ENDBRANCH  17  24
ENDBRANCH  16  21
ENDBRANCH   1  16
TORSDOF 4
ENDMDL
MODEL 9
REMARK VINA RESULT:    -6.426      3.325      7.645
REMARK INTER + INTRA:          -8.490
REMARK INTER:                  -7.934
REMARK INTRA:                  -0.556
REMARK UNBOUND:                -0.561
REMARK  Name = 
REMARK  5 active torsions:
REMARK  status: ('A' for Active; 'I' for Inactive)
REMARK    1  A    between atoms: C_1  and  O_2
REMARK    2  A    between atoms: O_2  and  C_3
REMARK    3  A    between atoms: C_7  and  C_8
REMARK    4  A    between atoms: C_8  and  N_9
REMARK    5  A    between atoms: C_10  and  C_12
REMARK                            x       y       z     vdW  Elec       q    Type
REMARK                         _______ _______ _______ _____ _____    ______ ____
ROOT
ATOM      1  N   UNL     1      46.062   5.935  13.653  0.00  0.00    +0.000 N 
ATOM      2  C   UNL     1      47.371   5.636  13.922  0.00  0.00    +0.000 C 
ATOM      3  O   UNL     1      48.276   5.882  13.127  0.00  0.00    +0.000 OA
ATOM      4  H   UNL     1      45.328   5.546  14.235  0.00  0.00    +0.000 HD
ENDROOT
BRANCH   2   5
ATOM      5  C   UNL     1      47.658   5.064  15.244  0.00  0.00    +0.000 A 
ATOM      6  C   UNL     1      47.172   3.803  15.561  0.00  0.00    +0.000 A 
ATOM      7  S   UNL     1      47.623   3.264  17.114  0.00  0.00    +0.000 S 
ATOM      8  C   UNL     1      48.443   4.719  17.440  0.00  0.00    +0.000 A 
ATOM      9  N   UNL     1      49.046   4.925  18.641  0.00  0.00    +0.000 NA
ATOM     10  C   UNL     1      49.597   6.086  18.768  0.00  0.00    +0.000 A 
ATOM     11  N   UNL     1      49.607   7.055  17.798  0.00  0.00    +0.000 N 
ATOM     12  C   UNL     1      49.046   6.875  16.555  0.00  0.00    +0.000 A 
ATOM     13  O   UNL     1      49.124   7.741  15.688  0.00  0.00    +0.000 OA
ATOM     14  C   UNL     1      48.392   5.595  16.368  0.00  0.00    +0.000 A 
ATOM     15  H   UNL     1      50.067   7.940  17.957  0.00  0.00    +0.000 HD
ENDBRANCH   2   5
BRANCH   1  16
ATOM     16  C   UNL     1      45.652   6.526  12.402  0.00  0.00    +0.000 C 
BRANCH  16  21
ATOM     17  C   UNL     1      45.263   4.466   9.210  0.00  0.00    +0.000 A 
ATOM     18  C   UNL     1      44.471   3.411   9.664  0.00  0.00    +0.000 A 
ATOM     19  C   UNL     1      44.055   3.371  10.998  0.00  0.00    +0.000 A 
ATOM     20  C   UNL     1      44.426   4.383  11.880  0.00  0.00    +0.000 A 
ATOM     21  C   UNL     1      45.211   5.457  11.439  0.00  0.00    +0.000 A 
ATOM     22  C   UNL     1      45.627   5.482  10.099  0.00  0.00    +0.000 A 
BRANCH  17  24
ATOM     23  C   UNL     1      46.016   3.426   7.208  0.00  0.00    +0.000 C 
ATOM     24  O   UNL     1      45.747   4.618   7.939  0.00  0.00    +0.000 OA
ENDBRANCH  17  24
ENDBRANCH  16  21
ENDBRANCH   1  16
TORSDOF 4
ENDMDL
