MODEL 1
REMARK VINA RESULT:    -8.937      0.000      0.000
REMARK INTER + INTRA:         -12.322
REMARK INTER:                 -11.549
REMARK INTRA:                  -0.773
REMARK UNBOUND:                -0.773
REMARK  Name = 
REMARK  5 active torsions:
REMARK  status: ('A' for Active; 'I' for Inactive)
REMARK    1  A    between atoms: C_2  and  C_4
REMARK    2  A    between atoms: C_7  and  N_8
REMARK    3  A    between atoms: N_8  and  C_9
REMARK    4  A    between atoms: C_9  and  C_10
REMARK    5  A    between atoms: C_14  and  C_15
REMARK                            x       y       z     vdW  Elec       q    Type
REMARK                         _______ _______ _______ _____ _____    ______ ____
ROOT
ATOM      1  C   UNL     1      43.909   3.349  11.867  0.00  0.00    +0.000 C 
ENDROOT
BRANCH   1   2
ATOM      2  C   UNL     1      45.143   4.023  12.445  0.00  0.00    +0.000 A 
ATOM      3  N   UNL     1      45.962   3.268  13.202  0.00  0.00    +0.000 NA
ATOM      4  C   UNL     1      47.029   3.887  13.727  0.00  0.00    +0.000 A 
ATOM      5  C   UNL     1      47.294   5.223  13.545  0.00  0.00    +0.000 A 
ATOM      6  C   UNL     1      46.388   5.938  12.780  0.00  0.00    +0.000 A 
ATOM      7  N   UNL     1      45.305   5.347  12.228  0.00  0.00    +0.000 NA
BRANCH   6   8
ATOM      8  C   UNL     1      46.531   7.383  12.519  0.00  0.00    +0.000 A 
ATOM      9  C   UNL     1      47.798   7.956  12.291  0.00  0.00    +0.000 A 
ATOM     10  C   UNL     1      47.951   9.326  12.040  0.00  0.00    +0.000 A 
ATOM     11  C   UNL     1      46.833  10.154  12.010  0.00  0.00    +0.000 A 
ATOM     12  C   UNL     1      45.578   9.602  12.227  0.00  0.00    +0.000 A 
ATOM     13  F   UNL     1      44.497  10.392  12.194  0.00  0.00    +0.000 F 
ATOM     14  C   UNL     1      45.419   8.243  12.478  0.00  0.00    +0.000 A 
ENDBRANCH   6   8
ENDBRANCH   1   2
BRANCH   1  15
ATOM     15  N   UNL     1      43.656   3.726  10.473  0.00  0.00    +0.000 N 
ATOM     16  H   UNL     1      42.667   3.688  10.232  0.00  0.00    +0.000 HD
BRANCH  15  20
ATOM     17  C   UNL     1      46.465   2.655   7.521  0.00  0.00    +0.000 A 
ATOM     18  C   UNL     1      45.898   1.664   8.324  0.00  0.00    +0.000 A 
ATOM     19  C   UNL     1      44.948   2.007   9.290  0.00  0.00    +0.000 A 
ATOM     20  C   UNL     1      44.521   3.328   9.460  0.00  0.00    +0.000 A 
ATOM     21  C   UNL     1      45.106   4.313   8.651  0.00  0.00    +0.000 A 
ATOM     22  C   UNL     1      46.075   3.985   7.694  0.00  0.00    +0.000 A 
BRANCH  17  24
ATOM     23  N   UNL     1      47.512   3.045   5.359  0.00  0.00    +0.000 N 
ATOM     24  C   UNL     1      47.519   2.332   6.526  0.00  0.00    +0.000 C 
ATOM     25  O   UNL     1      48.373   1.482   6.743  0.00  0.00    +0.000 OA
ATOM     26  H   UNL     1      48.279   2.873   4.722  0.00  0.00    +0.000 HD
ATOM     27  H   UNL     1      46.990   3.901   5.250  0.00  0.00    +0.000 HD
ENDBRANCH  17  24
ENDBRANCH  15  20
ENDBRANCH   1  15
TORSDOF 5
ENDMDL
MODEL 2
REMARK VINA RESULT:    -8.870      1.637      1.947
REMARK INTER + INTRA:         -12.235
REMARK INTER:                 -11.494
REMARK INTRA:                  -0.741
REMARK UNBOUND:                -0.773
REMARK  Name = 
REMARK  5 active torsions:
REMARK  status: ('A' for Active; 'I' for Inactive)
REMARK    1  A    between atoms: C_2  and  C_4
REMARK    2  A    between atoms: C_7  and  N_8
REMARK    3  A    between atoms: N_8  and  C_9
REMARK    4  A    between atoms: C_9  and  C_10
REMARK    5  A    between atoms: C_14  and  C_15
REMARK                            x       y       z     vdW  Elec       q    Type
REMARK                         _______ _______ _______ _____ _____    ______ ____
ROOT
ATOM      1  C   UNL     1      43.628   4.571  11.499  0.00  0.00    +0.000 C 
ENDROOT
BRANCH   1   2
ATOM      2  C   UNL     1      44.914   4.888  12.244  0.00  0.00    +0.000 A 
ATOM      3  N   UNL     1      45.290   4.035  13.217  0.00  0.00    +0.000 NA
ATOM      4  C   UNL     1      46.411   4.347  13.884  0.00  0.00    +0.000 A 
ATOM      5  C   UNL     1      47.151   5.477  13.633  0.00  0.00    +0.000 A 
ATOM      6  C   UNL     1      46.682   6.319  12.639  0.00  0.00    +0.000 A 
ATOM      7  N   UNL     1      45.561   6.035  11.941  0.00  0.00    +0.000 NA
BRANCH   6   8
ATOM      8  C   UNL     1      47.360   7.579  12.276  0.00  0.00    +0.000 A 
ATOM      9  C   UNL     1      46.693   8.816  12.374  0.00  0.00    +0.000 A 
ATOM     10  C   UNL     1      47.323  10.020  12.034  0.00  0.00    +0.000 A 
ATOM     11  C   UNL     1      48.641  10.010  11.590  0.00  0.00    +0.000 A 
ATOM     12  C   UNL     1      49.313   8.799  11.495  0.00  0.00    +0.000 A 
ATOM     13  F   UNL     1      50.585   8.784  11.073  0.00  0.00    +0.000 F 
ATOM     14  C   UNL     1      48.693   7.600  11.829  0.00  0.00    +0.000 A 
ENDBRANCH   6   8
ENDBRANCH   1   2
BRANCH   1  15
ATOM     15  N   UNL     1      43.750   4.763  10.050  0.00  0.00    +0.000 N 
ATOM     16  H   UNL     1      42.873   5.053   9.620  0.00  0.00    +0.000 HD
BRANCH  15  20
ATOM     17  C   UNL     1      46.299   2.247   7.831  0.00  0.00    +0.000 A 
ATOM     18  C   UNL     1      45.390   1.687   8.730  0.00  0.00    +0.000 A 
ATOM     19  C   UNL     1      44.524   2.512   9.453  0.00  0.00    +0.000 A 
ATOM     20  C   UNL     1      44.521   3.900   9.281  0.00  0.00    +0.000 A 
ATOM     21  C   UNL     1      45.447   4.448   8.381  0.00  0.00    +0.000 A 
ATOM     22  C   UNL     1      46.335   3.634   7.666  0.00  0.00    +0.000 A 
BRANCH  17  24
ATOM     23  N   UNL     1      48.385   2.026   6.597  0.00  0.00    +0.000 N 
ATOM     24  C   UNL     1      47.272   1.404   7.092  0.00  0.00    +0.000 C 
ATOM     25  O   UNL     1      47.104   0.199   6.947  0.00  0.00    +0.000 OA
ATOM     26  H   UNL     1      49.079   1.431   6.164  0.00  0.00    +0.000 HD
ATOM     27  H   UNL     1      48.673   2.944   6.901  0.00  0.00    +0.000 HD
ENDBRANCH  17  24
ENDBRANCH  15  20
ENDBRANCH   1  15
TORSDOF 5
ENDMDL
MODEL 3
REMARK VINA RESULT:    -8.361      2.414      3.936
REMARK INTER + INTRA:         -11.578
REMARK INTER:                 -11.102
REMARK INTRA:                  -0.476
REMARK UNBOUND:                -0.773
REMARK  Name = 
REMARK  5 active torsions:
REMARK  status: ('A' for Active; 'I' for Inactive)
REMARK    1  A    between atoms: C_2  and  C_4
REMARK    2  A    between atoms: C_7  and  N_8
REMARK    3  A    between atoms: N_8  and  C_9
REMARK    4  A    between atoms: C_9  and  C_10
REMARK    5  A    between atoms: C_14  and  C_15
REMARK                            x       y       z     vdW  Elec       q    Type
REMARK                         _______ _______ _______ _____ _____    ______ ____
ROOT
ATOM      1  C   UNL     1      44.193   3.329  11.918  0.00  0.00    +0.000 C 
ENDROOT
BRANCH   1   2
ATOM      2  C   UNL     1      45.120   4.386  12.494  0.00  0.00    +0.000 A 
ATOM      3  N   UNL     1      45.209   5.556  11.831  0.00  0.00    +0.000 NA
ATOM      4  C   UNL     1      46.054   6.466  12.337  0.00  0.00    +0.000 A 
ATOM      5  C   UNL     1      46.820   6.247  13.456  0.00  0.00    +0.000 A 
ATOM      6  C   UNL     1      46.695   5.008  14.063  0.00  0.00    +0.000 A 
ATOM      7  N   UNL     1      45.849   4.069  13.586  0.00  0.00    +0.000 NA
BRANCH   6   8
ATOM      8  C   UNL     1      47.471   4.624  15.258  0.00  0.00    +0.000 A 
ATOM      9  C   UNL     1      47.511   3.286  15.697  0.00  0.00    +0.000 A 
ATOM     10  C   UNL     1      48.243   2.905  16.828  0.00  0.00    +0.000 A 
ATOM     11  C   UNL     1      48.956   3.861  17.545  0.00  0.00    +0.000 A 
ATOM     12  C   UNL     1      48.931   5.182  17.121  0.00  0.00    +0.000 A 
ATOM     13  F   UNL     1      49.620   6.106  17.804  0.00  0.00    +0.000 F 
ATOM     14  C   UNL     1      48.205   5.567  15.999  0.00  0.00    +0.000 A 
ENDBRANCH   6   8
ENDBRANCH   1   2
BRANCH   1  15
ATOM     15  N   UNL     1      43.808   3.605  10.531  0.00  0.00    +0.000 N 
ATOM     16  H   UNL     1      42.812   3.462  10.366  0.00  0.00    +0.000 HD
BRANCH  15  20
ATOM     17  C   UNL     1      46.503   2.619   7.446  0.00  0.00    +0.000 A 
ATOM     18  C   UNL     1      45.989   1.609   8.260  0.00  0.00    +0.000 A 
ATOM     19  C   UNL     1      45.076   1.923   9.271  0.00  0.00    +0.000 A 
ATOM     20  C   UNL     1      44.634   3.234   9.477  0.00  0.00    +0.000 A 
ATOM     21  C   UNL     1      45.167   4.239   8.655  0.00  0.00    +0.000 A 
ATOM     22  C   UNL     1      46.099   3.940   7.653  0.00  0.00    +0.000 A 
BRANCH  17  24
ATOM     23  N   UNL     1      47.442   3.045   5.241  0.00  0.00    +0.000 N 
ATOM     24  C   UNL     1      47.518   2.326   6.403  0.00  0.00    +0.000 C 
ATOM     25  O   UNL     1      48.401   1.496   6.575  0.00  0.00    +0.000 OA
ATOM     26  H   UNL     1      48.182   2.895   4.569  0.00  0.00    +0.000 HD
ATOM     27  H   UNL     1      46.894   3.889   5.162  0.00  0.00    +0.000 HD
ENDBRANCH  17  24
ENDBRANCH  15  20
ENDBRANCH   1  15
TORSDOF 5
ENDMDL
MODEL 4
REMARK VINA RESULT:    -8.059      3.628      6.953
REMARK INTER + INTRA:         -11.188
REMARK INTER:                 -10.509
REMARK INTRA:                  -0.679
REMARK UNBOUND:                -0.773
REMARK  Name = 
REMARK  5 active torsions:
REMARK  status: ('A' for Active; 'I' for Inactive)
REMARK    1  A    between atoms: C_2  and  C_4
REMARK    2  A    between atoms: C_7  and  N_8
REMARK    3  A    between atoms: N_8  and  C_9
REMARK    4  A    between atoms: C_9  and  C_10
REMARK    5  A    between atoms: C_14  and  C_15
REMARK                            x       y       z     vdW  Elec       q    Type
REMARK                         _______ _______ _______ _____ _____    ______ ____
ROOT
ATOM      1  C   UNL     1      43.653   6.479  11.287  0.00  0.00    +0.000 C 
ENDROOT
BRANCH   1   2
ATOM      2  C   UNL     1      43.762   4.985  11.033  0.00  0.00    +0.000 A 
ATOM      3  N   UNL     1      43.142   4.164  11.903  0.00  0.00    +0.000 NA
ATOM      4  C   UNL     1      43.273   2.849  11.679  0.00  0.00    +0.000 A 
ATOM      5  C   UNL     1      44.009   2.327  10.643  0.00  0.00    +0.000 A 
ATOM      6  C   UNL     1      44.642   3.235   9.811  0.00  0.00    +0.000 A 
ATOM      7  N   UNL     1      44.527   4.568  10.000  0.00  0.00    +0.000 NA
BRANCH   6   8
ATOM      8  C   UNL     1      45.483   2.820   8.672  0.00  0.00    +0.000 A 
ATOM      9  C   UNL     1      45.925   3.758   7.718  0.00  0.00    +0.000 A 
ATOM     10  C   UNL     1      46.725   3.380   6.631  0.00  0.00    +0.000 A 
ATOM     11  C   UNL     1      47.103   2.050   6.480  0.00  0.00    +0.000 A 
ATOM     12  C   UNL     1      46.680   1.116   7.416  0.00  0.00    +0.000 A 
ATOM     13  F   UNL     1      47.046  -0.166   7.279  0.00  0.00    +0.000 F 
ATOM     14  C   UNL     1      45.885   1.484   8.496  0.00  0.00    +0.000 A 
ENDBRANCH   6   8
ENDBRANCH   1   2
BRANCH   1  15
ATOM     15  N   UNL     1      44.299   6.891  12.537  0.00  0.00    +0.000 N 
ATOM     16  H   UNL     1      43.677   7.431  13.138  0.00  0.00    +0.000 HD
BRANCH  15  20
ATOM     17  C   UNL     1      48.363   7.986  12.368  0.00  0.00    +0.000 A 
ATOM     18  C   UNL     1      47.380   8.963  12.212  0.00  0.00    +0.000 A 
ATOM     19  C   UNL     1      46.029   8.614  12.290  0.00  0.00    +0.000 A 
ATOM     20  C   UNL     1      45.627   7.300  12.551  0.00  0.00    +0.000 A 
ATOM     21  C   UNL     1      46.628   6.328  12.698  0.00  0.00    +0.000 A 
ATOM     22  C   UNL     1      47.984   6.661  12.600  0.00  0.00    +0.000 A 
BRANCH  17  24
ATOM     23  N   UNL     1      50.624   7.332  11.745  0.00  0.00    +0.000 N 
ATOM     24  C   UNL     1      49.805   8.314  12.232  0.00  0.00    +0.000 C 
ATOM     25  O   UNL     1      50.246   9.420  12.519  0.00  0.00    +0.000 OA
ATOM     26  H   UNL     1      51.588   7.590  11.583  0.00  0.00    +0.000 HD
ATOM     27  H   UNL     1      50.267   6.513  11.277  0.00  0.00    +0.000 HD
ENDBRANCH  17  24
ENDBRANCH  15  20
ENDBRANCH   1  15
TORSDOF 5
ENDMDL
MODEL 5
REMARK VINA RESULT:    -7.983      3.672      7.047
REMARK INTER + INTRA:         -11.089
REMARK INTER:                 -10.530
REMARK INTRA:                  -0.559
REMARK UNBOUND:                -0.773
REMARK  Name = 
REMARK  5 active torsions:
REMARK  status: ('A' for Active; 'I' for Inactive)
REMARK    1  A    between atoms: C_2  and  C_4
REMARK    2  A    between atoms: C_7  and  N_8
REMARK    3  A    between atoms: N_8  and  C_9
REMARK    4  A    between atoms: C_9  and  C_10
REMARK    5  A    between atoms: C_14  and  C_15
REMARK                            x       y       z     vdW  Elec       q    Type
REMARK                         _______ _______ _______ _____ _____    ______ ____
ROOT
ATOM      1  C   UNL     1      43.320   6.616  11.310  0.00  0.00    +0.000 C 
ENDROOT
BRANCH   1   2
ATOM      2  C   UNL     1      43.538   5.125  11.117  0.00  0.00    +0.000 A 
ATOM      3  N   UNL     1      43.001   4.298  12.036  0.00  0.00    +0.000 NA
ATOM      4  C   UNL     1      43.229   2.988  11.866  0.00  0.00    +0.000 A 
ATOM      5  C   UNL     1      43.981   2.478  10.834  0.00  0.00    +0.000 A 
ATOM      6  C   UNL     1      44.524   3.395   9.950  0.00  0.00    +0.000 A 
ATOM      7  N   UNL     1      44.311   4.722  10.085  0.00  0.00    +0.000 NA
BRANCH   6   8
ATOM      8  C   UNL     1      45.371   2.995   8.809  0.00  0.00    +0.000 A 
ATOM      9  C   UNL     1      45.817   3.945   7.869  0.00  0.00    +0.000 A 
ATOM     10  C   UNL     1      46.622   3.582   6.782  0.00  0.00    +0.000 A 
ATOM     11  C   UNL     1      47.002   2.254   6.614  0.00  0.00    +0.000 A 
ATOM     12  C   UNL     1      46.575   1.308   7.536  0.00  0.00    +0.000 A 
ATOM     13  F   UNL     1      46.942   0.029   7.384  0.00  0.00    +0.000 F 
ATOM     14  C   UNL     1      45.774   1.662   8.617  0.00  0.00    +0.000 A 
ENDBRANCH   6   8
ENDBRANCH   1   2
BRANCH   1  15
ATOM     15  N   UNL     1      44.478   7.417  10.901  0.00  0.00    +0.000 N 
ATOM     16  H   UNL     1      44.660   7.355   9.900  0.00  0.00    +0.000 HD
BRANCH  15  20
ATOM     17  C   UNL     1      47.771   7.562  13.524  0.00  0.00    +0.000 A 
ATOM     18  C   UNL     1      47.754   6.622  12.492  0.00  0.00    +0.000 A 
ATOM     19  C   UNL     1      46.677   6.582  11.602  0.00  0.00    +0.000 A 
ATOM     20  C   UNL     1      45.613   7.486  11.699  0.00  0.00    +0.000 A 
ATOM     21  C   UNL     1      45.642   8.418  12.747  0.00  0.00    +0.000 A 
ATOM     22  C   UNL     1      46.705   8.455  13.658  0.00  0.00    +0.000 A 
BRANCH  17  24
ATOM     23  N   UNL     1      49.204   8.811  15.043  0.00  0.00    +0.000 N 
ATOM     24  C   UNL     1      48.872   7.592  14.520  0.00  0.00    +0.000 C 
ATOM     25  O   UNL     1      49.446   6.572  14.880  0.00  0.00    +0.000 OA
ATOM     26  H   UNL     1      49.900   8.812  15.777  0.00  0.00    +0.000 HD
ATOM     27  H   UNL     1      48.605   9.619  14.959  0.00  0.00    +0.000 HD
ENDBRANCH  17  24
ENDBRANCH  15  20
ENDBRANCH   1  15
TORSDOF 5
ENDMDL
MODEL 6
REMARK VINA RESULT:    -7.886      3.852      7.453
REMARK INTER + INTRA:         -10.963
REMARK INTER:                 -10.699
REMARK INTRA:                  -0.264
REMARK UNBOUND:                -0.773
REMARK  Name = 
REMARK  5 active torsions:
REMARK  status: ('A' for Active; 'I' for Inactive)
REMARK    1  A    between atoms: C_2  and  C_4
REMARK    2  A    between atoms: C_7  and  N_8
REMARK    3  A    between atoms: N_8  and  C_9
REMARK    4  A    between atoms: C_9  and  C_10
REMARK    5  A    between atoms: C_14  and  C_15
REMARK                            x       y       z     vdW  Elec       q    Type
REMARK                         _______ _______ _______ _____ _____    ______ ____
ROOT
ATOM      1  C   UNL     1      45.905   7.027  11.471  0.00  0.00    +0.000 C 
ENDROOT
BRANCH   1   2
ATOM      2  C   UNL     1      45.142   5.839  10.907  0.00  0.00    +0.000 A 
ATOM      3  N   UNL     1      43.937   5.568  11.446  0.00  0.00    +0.000 NA
ATOM      4  C   UNL     1      43.292   4.499  10.956  0.00  0.00    +0.000 A 
ATOM      5  C   UNL     1      43.808   3.688   9.974  0.00  0.00    +0.000 A 
ATOM      6  C   UNL     1      45.065   4.016   9.494  0.00  0.00    +0.000 A 
ATOM      7  N   UNL     1      45.743   5.089   9.958  0.00  0.00    +0.000 NA
BRANCH   6   8
ATOM      8  C   UNL     1      45.753   3.223   8.457  0.00  0.00    +0.000 A 
ATOM      9  C   UNL     1      46.263   3.837   7.296  0.00  0.00    +0.000 A 
ATOM     10  C   UNL     1      46.920   3.099   6.302  0.00  0.00    +0.000 A 
ATOM     11  C   UNL     1      47.082   1.725   6.453  0.00  0.00    +0.000 A 
ATOM     12  C   UNL     1      46.589   1.108   7.595  0.00  0.00    +0.000 A 
ATOM     13  F   UNL     1      46.747  -0.213   7.749  0.00  0.00    +0.000 F 
ATOM     14  C   UNL     1      45.935   1.835   8.584  0.00  0.00    +0.000 A 
ENDBRANCH   6   8
ENDBRANCH   1   2
BRANCH   1  15
ATOM     15  N   UNL     1      47.185   6.644  12.074  0.00  0.00    +0.000 N 
ATOM     16  H   UNL     1      47.871   6.350  11.380  0.00  0.00    +0.000 HD
BRANCH  15  20
ATOM     17  C   UNL     1      47.455   4.333  15.586  0.00  0.00    +0.000 A 
ATOM     18  C   UNL     1      47.997   5.619  15.565  0.00  0.00    +0.000 A 
ATOM     19  C   UNL     1      47.891   6.403  14.412  0.00  0.00    +0.000 A 
ATOM     20  C   UNL     1      47.226   5.940  13.271  0.00  0.00    +0.000 A 
ATOM     21  C   UNL     1      46.694   4.643  13.306  0.00  0.00    +0.000 A 
ATOM     22  C   UNL     1      46.812   3.840  14.448  0.00  0.00    +0.000 A 
BRANCH  17  24
ATOM     23  N   UNL     1      48.872   3.090  17.125  0.00  0.00    +0.000 N 
ATOM     24  C   UNL     1      47.602   3.454  16.774  0.00  0.00    +0.000 C 
ATOM     25  O   UNL     1      46.635   3.087  17.429  0.00  0.00    +0.000 OA
ATOM     26  H   UNL     1      48.968   2.557  17.979  0.00  0.00    +0.000 HD
ATOM     27  H   UNL     1      49.690   3.561  16.768  0.00  0.00    +0.000 HD
ENDBRANCH  17  24
ENDBRANCH  15  20
ENDBRANCH   1  15
TORSDOF 5
ENDMDL
MODEL 7
REMARK VINA RESULT:    -7.763      2.204      3.085
REMARK INTER + INTRA:         -10.805
REMARK INTER:                 -10.209
REMARK INTRA:                  -0.596
REMARK UNBOUND:                -0.773
REMARK  Name = 
REMARK  5 active torsions:
REMARK  status: ('A' for Active; 'I' for Inactive)
REMARK    1  A    between atoms: C_2  and  C_4
REMARK    2  A    between atoms: C_7  and  N_8
REMARK    3  A    between atoms: N_8  and  C_9
REMARK    4  A    between atoms: C_9  and  C_10
REMARK    5  A    between atoms: C_14  and  C_15
REMARK                            x       y       z     vdW  Elec       q    Type
REMARK                         _______ _______ _______ _____ _____    ______ ____
ROOT
ATOM      1  C   UNL     1      44.166   4.996  11.477  0.00  0.00    +0.000 C 
ENDROOT
BRANCH   1   2
ATOM      2  C   UNL     1      44.786   6.362  11.719  0.00  0.00    +0.000 A 
ATOM      3  N   UNL     1      44.076   7.439  11.332  0.00  0.00    +0.000 NA
ATOM      4  C   UNL     1      44.652   8.635  11.527  0.00  0.00    +0.000 A 
ATOM      5  C   UNL     1      45.906   8.792  12.067  0.00  0.00    +0.000 A 
ATOM      6  C   UNL     1      46.584   7.635  12.410  0.00  0.00    +0.000 A 
ATOM      7  N   UNL     1      46.034   6.413  12.236  0.00  0.00    +0.000 NA
BRANCH   6   8
ATOM      8  C   UNL     1      47.946   7.649  12.979  0.00  0.00    +0.000 A 
ATOM      9  C   UNL     1      49.043   8.106  12.223  0.00  0.00    +0.000 A 
ATOM     10  C   UNL     1      50.341   8.127  12.749  0.00  0.00    +0.000 A 
ATOM     11  C   UNL     1      50.568   7.689  14.050  0.00  0.00    +0.000 A 
ATOM     12  C   UNL     1      49.495   7.241  14.809  0.00  0.00    +0.000 A 
ATOM     13  F   UNL     1      49.706   6.825  16.065  0.00  0.00    +0.000 F 
ATOM     14  C   UNL     1      48.204   7.217  14.293  0.00  0.00    +0.000 A 
ENDBRANCH   6   8
ENDBRANCH   1   2
BRANCH   1  15
ATOM     15  N   UNL     1      43.818   4.771  10.071  0.00  0.00    +0.000 N 
ATOM     16  H   UNL     1      42.811   4.706   9.924  0.00  0.00    +0.000 HD
BRANCH  15  20
ATOM     17  C   UNL     1      46.344   2.310   7.766  0.00  0.00    +0.000 A 
ATOM     18  C   UNL     1      45.476   1.731   8.693  0.00  0.00    +0.000 A 
ATOM     19  C   UNL     1      44.617   2.537   9.445  0.00  0.00    +0.000 A 
ATOM     20  C   UNL     1      44.581   3.925   9.276  0.00  0.00    +0.000 A 
ATOM     21  C   UNL     1      45.466   4.493   8.347  0.00  0.00    +0.000 A 
ATOM     22  C   UNL     1      46.347   3.698   7.602  0.00  0.00    +0.000 A 
BRANCH  17  24
ATOM     23  N   UNL     1      48.431   2.117   6.528  0.00  0.00    +0.000 N 
ATOM     24  C   UNL     1      47.309   1.488   6.994  0.00  0.00    +0.000 C 
ATOM     25  O   UNL     1      47.128   0.292   6.799  0.00  0.00    +0.000 OA
ATOM     26  H   UNL     1      49.119   1.533   6.072  0.00  0.00    +0.000 HD
ATOM     27  H   UNL     1      48.728   3.019   6.871  0.00  0.00    +0.000 HD
ENDBRANCH  17  24
ENDBRANCH  15  20
ENDBRANCH   1  15
TORSDOF 5
ENDMDL
MODEL 8
REMARK VINA RESULT:    -7.384      4.577      8.187
REMARK INTER + INTRA:         -10.316
REMARK INTER:                  -9.880
REMARK INTRA:                  -0.436
REMARK UNBOUND:                -0.773
REMARK  Name = 
REMARK  5 active torsions:
REMARK  status: ('A' for Active; 'I' for Inactive)
REMARK    1  A    between atoms: C_2  and  C_4
REMARK    2  A    between atoms: C_7  and  N_8
REMARK    3  A    between atoms: N_8  and  C_9
REMARK    4  A    between atoms: C_9  and  C_10
REMARK    5  A    between atoms: C_14  and  C_15
REMARK                            x       y       z     vdW  Elec       q    Type
REMARK                         _______ _______ _______ _____ _____    ______ ____
ROOT
ATOM      1  C   UNL     1      46.082   5.409  13.854  0.00  0.00    +0.000 C 
ENDROOT
BRANCH   1   2
ATOM      2  C   UNL     1      45.109   5.064  12.738  0.00  0.00    +0.000 A 
ATOM      3  N   UNL     1      43.802   5.296  12.965  0.00  0.00    +0.000 NA
ATOM      4  C   UNL     1      42.956   4.959  11.981  0.00  0.00    +0.000 A 
ATOM      5  C   UNL     1      43.361   4.385  10.798  0.00  0.00    +0.000 A 
ATOM      6  C   UNL     1      44.717   4.151  10.654  0.00  0.00    +0.000 A 
ATOM      7  N   UNL     1      45.601   4.484  11.621  0.00  0.00    +0.000 NA
BRANCH   6   8
ATOM      8  C   UNL     1      45.293   3.522   9.450  0.00  0.00    +0.000 A 
ATOM      9  C   UNL     1      45.766   4.306   8.378  0.00  0.00    +0.000 A 
ATOM     10  C   UNL     1      46.316   3.724   7.228  0.00  0.00    +0.000 A 
ATOM     11  C   UNL     1      46.407   2.339   7.129  0.00  0.00    +0.000 A 
ATOM     12  C   UNL     1      45.950   1.555   8.179  0.00  0.00    +0.000 A 
ATOM     13  F   UNL     1      46.040   0.221   8.092  0.00  0.00    +0.000 F 
ATOM     14  C   UNL     1      45.402   2.126   9.323  0.00  0.00    +0.000 A 
ENDBRANCH   6   8
ENDBRANCH   1   2
BRANCH   1  15
ATOM     15  N   UNL     1      46.449   4.245  14.666  0.00  0.00    +0.000 N 
ATOM     16  H   UNL     1      45.661   3.619  14.830  0.00  0.00    +0.000 HD
BRANCH  15  20
ATOM     17  C   UNL     1      49.251   4.435  17.806  0.00  0.00    +0.000 A 
ATOM     18  C   UNL     1      49.111   5.521  16.941  0.00  0.00    +0.000 A 
ATOM     19  C   UNL     1      48.168   5.477  15.911  0.00  0.00    +0.000 A 
ATOM     20  C   UNL     1      47.328   4.372  15.734  0.00  0.00    +0.000 A 
ATOM     21  C   UNL     1      47.487   3.285  16.607  0.00  0.00    +0.000 A 
ATOM     22  C   UNL     1      48.444   3.309  17.630  0.00  0.00    +0.000 A 
BRANCH  17  24
ATOM     23  N   UNL     1      51.379   3.634  18.674  0.00  0.00    +0.000 N 
ATOM     24  C   UNL     1      50.283   4.428  18.874  0.00  0.00    +0.000 C 
ATOM     25  O   UNL     1      50.177   5.116  19.881  0.00  0.00    +0.000 OA
ATOM     26  H   UNL     1      52.112   3.694  19.368  0.00  0.00    +0.000 HD
ATOM     27  H   UNL     1      51.614   3.252  17.769  0.00  0.00    +0.000 HD
ENDBRANCH  17  24
ENDBRANCH  15  20
ENDBRANCH   1  15
TORSDOF 5
ENDMDL
