MODEL 1
REMARK VINA RESULT:    -7.968      0.000      0.000
REMARK INTER + INTRA:         -11.832
REMARK INTER:                 -10.762
REMARK INTRA:                  -1.070
REMARK UNBOUND:                -1.070
REMARK  Name = 
REMARK  7 active torsions:
REMARK  status: ('A' for Active; 'I' for Inactive)
REMARK    1  A    between atoms: C_1  and  O_2
REMARK    2  A    between atoms: O_2  and  C_3
REMARK    3  A    between atoms: C_7  and  C_8
REMARK    4  A    between atoms: C_8  and  C_9
REMARK    5  A    between atoms: C_12  and  C_13
REMARK    6  A    between atoms: C_13  and  N_14
REMARK    7  A    between atoms: C_15  and  C_17
REMARK                            x       y       z     vdW  Elec       q    Type
REMARK                         _______ _______ _______ _____ _____    ______ ____
ROOT
ATOM      1  C   UNL     1      47.775   8.304  13.531  0.00  0.00    +0.000 C 
ENDROOT
BRANCH   1   5
ATOM      2  C   UNL     1      44.999   6.096  11.253  0.00  0.00    +0.000 A 
ATOM      3  C   UNL     1      46.173   5.549  11.728  0.00  0.00    +0.000 A 
ATOM      4  N   UNL     1      47.115   6.254  12.382  0.00  0.00    +0.000 NA
ATOM      5  C   UNL     1      46.849   7.558  12.597  0.00  0.00    +0.000 A 
ATOM      6  N   UNL     1      45.771   8.207  12.109  0.00  0.00    +0.000 NA
ATOM      7  C   UNL     1      44.867   7.455  11.453  0.00  0.00    +0.000 A 
BRANCH   2   8
ATOM      8  C   UNL     1      43.895   5.245  10.705  0.00  0.00    +0.000 C 
BRANCH   8  13
ATOM      9  C   UNL     1      45.717   3.731   7.890  0.00  0.00    +0.000 A 
ATOM     10  C   UNL     1      45.601   2.365   8.078  0.00  0.00    +0.000 A 
ATOM     11  C   UNL     1      44.846   1.914   9.154  0.00  0.00    +0.000 A 
ATOM     12  C   UNL     1      44.254   2.839  10.008  0.00  0.00    +0.000 A 
ATOM     13  C   UNL     1      44.423   4.200   9.753  0.00  0.00    +0.000 A 
ATOM     14  N   UNL     1      45.144   4.651   8.695  0.00  0.00    +0.000 NA
BRANCH   9  16
ATOM     15  C   UNL     1      46.847   3.070   5.957  0.00  0.00    +0.000 C 
ATOM     16  O   UNL     1      46.488   4.144   6.823  0.00  0.00    +0.000 OA
ENDBRANCH   9  16
ENDBRANCH   8  13
ENDBRANCH   2   8
ENDBRANCH   1   5
BRANCH   1  17
ATOM     17  N   UNL     1      47.850   7.749  14.863  0.00  0.00    +0.000 N 
ATOM     18  C   UNL     1      48.989   7.114  15.286  0.00  0.00    +0.000 C 
ATOM     19  O   UNL     1      49.988   7.040  14.575  0.00  0.00    +0.000 OA
ATOM     20  H   UNL     1      47.161   8.069  15.538  0.00  0.00    +0.000 HD
BRANCH  18  21
ATOM     21  C   UNL     1      48.919   6.427  16.580  0.00  0.00    +0.000 A 
ATOM     22  C   UNL     1      49.575   6.946  17.688  0.00  0.00    +0.000 A 
ATOM     23  S   UNL     1      49.678   5.838  18.985  0.00  0.00    +0.000 S 
ATOM     24  C   UNL     1      48.797   4.666  18.121  0.00  0.00    +0.000 A 
ATOM     25  N   UNL     1      48.627   3.404  18.598  0.00  0.00    +0.000 NA
ATOM     26  C   UNL     1      47.901   2.645  17.843  0.00  0.00    +0.000 A 
ATOM     27  N   UNL     1      47.283   3.044  16.685  0.00  0.00    +0.000 N 
ATOM     28  C   UNL     1      47.396   4.322  16.192  0.00  0.00    +0.000 A 
ATOM     29  O   UNL     1      46.739   4.701  15.229  0.00  0.00    +0.000 OA
ATOM     30  C   UNL     1      48.315   5.166  16.926  0.00  0.00    +0.000 A 
ATOM     31  H   UNL     1      46.658   2.430  16.190  0.00  0.00    +0.000 HD
ENDBRANCH  18  21
ENDBRANCH   1  17
TORSDOF 6
ENDMDL
MODEL 2
REMARK VINA RESULT:    -7.779      0.896      1.243
REMARK INTER + INTRA:         -11.578
REMARK INTER:                 -10.575
REMARK INTRA:                  -1.003
REMARK UNBOUND:                -1.070
REMARK  Name = 
REMARK  7 active torsions:
REMARK  status: ('A' for Active; 'I' for Inactive)
REMARK    1  A    between atoms: C_1  and  O_2
REMARK    2  A    between atoms: O_2  and  C_3
REMARK    3  A    between atoms: C_7  and  C_8
REMARK    4  A    between atoms: C_8  and  C_9
REMARK    5  A    between atoms: C_12  and  C_13
REMARK    6  A    between atoms: C_13  and  N_14
REMARK    7  A    between atoms: C_15  and  C_17
REMARK                            x       y       z     vdW  Elec       q    Type
REMARK                         _______ _______ _______ _____ _____    ______ ____
ROOT
ATOM      1  C   UNL     1      47.899   7.145  13.459  0.00  0.00    +0.000 C 
ENDROOT
BRANCH   1   5
ATOM      2  C   UNL     1      44.681   5.417  11.355  0.00  0.00    +0.000 A 
ATOM      3  C   UNL     1      44.943   6.771  11.332  0.00  0.00    +0.000 A 
ATOM      4  N   UNL     1      45.909   7.358  12.062  0.00  0.00    +0.000 NA
ATOM      5  C   UNL     1      46.666   6.543  12.824  0.00  0.00    +0.000 A 
ATOM      6  N   UNL     1      46.445   5.220  12.978  0.00  0.00    +0.000 NA
ATOM      7  C   UNL     1      45.458   4.688  12.232  0.00  0.00    +0.000 A 
BRANCH   2   8
ATOM      8  C   UNL     1      43.731   4.778  10.388  0.00  0.00    +0.000 C 
BRANCH   8  13
ATOM      9  C   UNL     1      45.848   3.565   7.634  0.00  0.00    +0.000 A 
ATOM     10  C   UNL     1      45.946   2.199   7.828  0.00  0.00    +0.000 A 
ATOM     11  C   UNL     1      45.243   1.636   8.887  0.00  0.00    +0.000 A 
ATOM     12  C   UNL     1      44.488   2.458   9.719  0.00  0.00    +0.000 A 
ATOM     13  C   UNL     1      44.446   3.828   9.458  0.00  0.00    +0.000 A 
ATOM     14  N   UNL     1      45.113   4.385   8.416  0.00  0.00    +0.000 NA
BRANCH   9  16
ATOM     15  C   UNL     1      46.943   3.108   5.624  0.00  0.00    +0.000 C 
ATOM     16  O   UNL     1      46.572   4.093   6.584  0.00  0.00    +0.000 OA
ENDBRANCH   9  16
ENDBRANCH   8  13
ENDBRANCH   2   8
ENDBRANCH   1   5
BRANCH   1  17
ATOM     17  N   UNL     1      47.931   7.054  14.901  0.00  0.00    +0.000 N 
ATOM     18  C   UNL     1      49.123   6.898  15.559  0.00  0.00    +0.000 C 
ATOM     19  O   UNL     1      50.195   6.883  14.958  0.00  0.00    +0.000 OA
ATOM     20  H   UNL     1      47.105   7.366  15.404  0.00  0.00    +0.000 HD
BRANCH  18  21
ATOM     21  C   UNL     1      49.052   6.636  17.000  0.00  0.00    +0.000 A 
ATOM     22  C   UNL     1      49.604   7.532  17.906  0.00  0.00    +0.000 A 
ATOM     23  S   UNL     1      49.742   6.889  19.484  0.00  0.00    +0.000 S 
ATOM     24  C   UNL     1      49.013   5.428  19.007  0.00  0.00    +0.000 A 
ATOM     25  N   UNL     1      48.934   4.361  19.847  0.00  0.00    +0.000 NA
ATOM     26  C   UNL     1      48.316   3.339  19.350  0.00  0.00    +0.000 A 
ATOM     27  N   UNL     1      47.722   3.301  18.114  0.00  0.00    +0.000 N 
ATOM     28  C   UNL     1      47.744   4.372  17.253  0.00  0.00    +0.000 A 
ATOM     29  O   UNL     1      47.104   4.370  16.207  0.00  0.00    +0.000 OA
ATOM     30  C   UNL     1      48.547   5.488  17.708  0.00  0.00    +0.000 A 
ATOM     31  H   UNL     1      47.179   2.506  17.821  0.00  0.00    +0.000 HD
ENDBRANCH  18  21
ENDBRANCH   1  17
TORSDOF 6
ENDMDL
MODEL 3
REMARK VINA RESULT:    -7.624      1.925      3.290
REMARK INTER + INTRA:         -11.368
REMARK INTER:                 -10.529
REMARK INTRA:                  -0.839
REMARK UNBOUND:                -1.070
REMARK  Name = 
REMARK  7 active torsions:
REMARK  status: ('A' for Active; 'I' for Inactive)
REMARK    1  A    between atoms: C_1  and  O_2
REMARK    2  A    between atoms: O_2  and  C_3
REMARK    3  A    between atoms: C_7  and  C_8
REMARK    4  A    between atoms: C_8  and  C_9
REMARK    5  A    between atoms: C_12  and  C_13
REMARK    6  A    between atoms: C_13  and  N_14
REMARK    7  A    between atoms: C_15  and  C_17
REMARK                            x       y       z     vdW  Elec       q    Type
REMARK                         _______ _______ _______ _____ _____    ______ ____
ROOT
ATOM      1  C   UNL     1      47.156   4.366  15.016  0.00  0.00    +0.000 C 
ENDROOT
BRANCH   1   5
ATOM      2  C   UNL     1      44.807   5.001  11.574  0.00  0.00    +0.000 A 
ATOM      3  C   UNL     1      46.040   5.593  11.752  0.00  0.00    +0.000 A 
ATOM      4  N   UNL     1      46.770   5.476  12.877  0.00  0.00    +0.000 NA
ATOM      5  C   UNL     1      46.252   4.703  13.852  0.00  0.00    +0.000 A 
ATOM      6  N   UNL     1      45.023   4.144  13.810  0.00  0.00    +0.000 NA
ATOM      7  C   UNL     1      44.333   4.304  12.666  0.00  0.00    +0.000 A 
BRANCH   2   8
ATOM      8  C   UNL     1      44.117   4.995  10.244  0.00  0.00    +0.000 C 
BRANCH   8  13
ATOM      9  C   UNL     1      45.971   3.509   7.435  0.00  0.00    +0.000 A 
ATOM     10  C   UNL     1      45.982   2.149   7.689  0.00  0.00    +0.000 A 
ATOM     11  C   UNL     1      45.306   1.687   8.812  0.00  0.00    +0.000 A 
ATOM     12  C   UNL     1      44.663   2.598   9.645  0.00  0.00    +0.000 A 
ATOM     13  C   UNL     1      44.703   3.955   9.322  0.00  0.00    +0.000 A 
ATOM     14  N   UNL     1      45.346   4.414   8.218  0.00  0.00    +0.000 NA
BRANCH   9  16
ATOM     15  C   UNL     1      47.034   2.862   5.461  0.00  0.00    +0.000 C 
ATOM     16  O   UNL     1      46.667   3.935   6.323  0.00  0.00    +0.000 OA
ENDBRANCH   9  16
ENDBRANCH   8  13
ENDBRANCH   2   8
ENDBRANCH   1   5
BRANCH   1  17
ATOM     17  N   UNL     1      47.518   5.498  15.836  0.00  0.00    +0.000 N 
ATOM     18  C   UNL     1      48.621   5.440  16.649  0.00  0.00    +0.000 C 
ATOM     19  O   UNL     1      49.357   4.457  16.668  0.00  0.00    +0.000 OA
ATOM     20  H   UNL     1      47.104   6.395  15.598  0.00  0.00    +0.000 HD
BRANCH  18  21
ATOM     21  C   UNL     1      48.816   6.559  17.577  0.00  0.00    +0.000 A 
ATOM     22  C   UNL     1      49.109   6.321  18.914  0.00  0.00    +0.000 A 
ATOM     23  S   UNL     1      48.942   7.711  19.894  0.00  0.00    +0.000 S 
ATOM     24  C   UNL     1      48.538   8.673  18.549  0.00  0.00    +0.000 A 
ATOM     25  N   UNL     1      48.136   9.964  18.689  0.00  0.00    +0.000 NA
ATOM     26  C   UNL     1      47.903  10.571  17.570  0.00  0.00    +0.000 A 
ATOM     27  N   UNL     1      48.087  10.027  16.325  0.00  0.00    +0.000 N 
ATOM     28  C   UNL     1      48.532   8.740  16.141  0.00  0.00    +0.000 A 
ATOM     29  O   UNL     1      48.813   8.308  15.028  0.00  0.00    +0.000 OA
ATOM     30  C   UNL     1      48.668   7.975  17.363  0.00  0.00    +0.000 A 
ATOM     31  H   UNL     1      47.973  10.581  15.492  0.00  0.00    +0.000 HD
ENDBRANCH  18  21
ENDBRANCH   1  17
TORSDOF 6
ENDMDL
MODEL 4
REMARK VINA RESULT:    -7.163      2.434      3.182
REMARK INTER + INTRA:         -10.746
REMARK INTER:                  -9.815
REMARK INTRA:                  -0.931
REMARK UNBOUND:                -1.070
REMARK  Name = 
REMARK  7 active torsions:
REMARK  status: ('A' for Active; 'I' for Inactive)
REMARK    1  A    between atoms: C_1  and  O_2
REMARK    2  A    between atoms: O_2  and  C_3
REMARK    3  A    between atoms: C_7  and  C_8
REMARK    4  A    between atoms: C_8  and  C_9
REMARK    5  A    between atoms: C_12  and  C_13
REMARK    6  A    between atoms: C_13  and  N_14
REMARK    7  A    between atoms: C_15  and  C_17
REMARK                            x       y       z     vdW  Elec       q    Type
REMARK                         _______ _______ _______ _____ _____    ______ ____
ROOT
ATOM      1  C   UNL     1      47.506   4.698  14.922  0.00  0.00    +0.000 C 
ENDROOT
BRANCH   1   5
ATOM      2  C   UNL     1      45.023   4.795  11.517  0.00  0.00    +0.000 A 
ATOM      3  C   UNL     1      46.038   5.705  11.723  0.00  0.00    +0.000 A 
ATOM      4  N   UNL     1      46.788   5.749  12.840  0.00  0.00    +0.000 NA
ATOM      5  C   UNL     1      46.526   4.816  13.777  0.00  0.00    +0.000 A 
ATOM      6  N   UNL     1      45.507   3.932  13.709  0.00  0.00    +0.000 NA
ATOM      7  C   UNL     1      44.784   3.941  12.574  0.00  0.00    +0.000 A 
BRANCH   2   8
ATOM      8  C   UNL     1      44.344   4.653  10.189  0.00  0.00    +0.000 C 
BRANCH   8  13
ATOM      9  C   UNL     1      45.959   1.890   8.375  0.00  0.00    +0.000 A 
ATOM     10  C   UNL     1      46.613   2.489   7.313  0.00  0.00    +0.000 A 
ATOM     11  C   UNL     1      46.565   3.874   7.211  0.00  0.00    +0.000 A 
ATOM     12  C   UNL     1      45.854   4.604   8.159  0.00  0.00    +0.000 A 
ATOM     13  C   UNL     1      45.217   3.924   9.197  0.00  0.00    +0.000 A 
ATOM     14  N   UNL     1      45.272   2.573   9.316  0.00  0.00    +0.000 NA
BRANCH   9  16
ATOM     15  C   UNL     1      46.829  -0.051   7.412  0.00  0.00    +0.000 C 
ATOM     16  O   UNL     1      46.013   0.512   8.436  0.00  0.00    +0.000 OA
ENDBRANCH   9  16
ENDBRANCH   8  13
ENDBRANCH   2   8
ENDBRANCH   1   5
BRANCH   1  17
ATOM     17  N   UNL     1      47.540   5.846  15.798  0.00  0.00    +0.000 N 
ATOM     18  C   UNL     1      48.708   6.541  15.984  0.00  0.00    +0.000 C 
ATOM     19  O   UNL     1      49.737   6.245  15.382  0.00  0.00    +0.000 OA
ATOM     20  H   UNL     1      46.649   6.267  16.048  0.00  0.00    +0.000 HD
BRANCH  18  21
ATOM     21  C   UNL     1      48.700   7.578  17.021  0.00  0.00    +0.000 A 
ATOM     22  C   UNL     1      49.167   8.856  16.740  0.00  0.00    +0.000 A 
ATOM     23  S   UNL     1      49.414   9.801  18.143  0.00  0.00    +0.000 S 
ATOM     24  C   UNL     1      48.844   8.551  19.147  0.00  0.00    +0.000 A 
ATOM     25  N   UNL     1      48.906   8.640  20.503  0.00  0.00    +0.000 NA
ATOM     26  C   UNL     1      48.397   7.625  21.124  0.00  0.00    +0.000 A 
ATOM     27  N   UNL     1      47.783   6.558  20.520  0.00  0.00    +0.000 N 
ATOM     28  C   UNL     1      47.664   6.451  19.155  0.00  0.00    +0.000 A 
ATOM     29  O   UNL     1      47.004   5.559  18.634  0.00  0.00    +0.000 OA
ATOM     30  C   UNL     1      48.345   7.492  18.413  0.00  0.00    +0.000 A 
ATOM     31  H   UNL     1      47.327   5.843  21.063  0.00  0.00    +0.000 HD
ENDBRANCH  18  21
ENDBRANCH   1  17
TORSDOF 6
ENDMDL
MODEL 5
REMARK VINA RESULT:    -7.070      2.876      8.027
REMARK INTER + INTRA:         -10.620
REMARK INTER:                 -10.345
REMARK INTRA:                  -0.275
REMARK UNBOUND:                -1.070
REMARK  Name = 
REMARK  7 active torsions:
REMARK  status: ('A' for Active; 'I' for Inactive)
REMARK    1  A    between atoms: C_1  and  O_2
REMARK    2  A    between atoms: O_2  and  C_3
REMARK    3  A    between atoms: C_7  and  C_8
REMARK    4  A    between atoms: C_8  and  C_9
REMARK    5  A    between atoms: C_12  and  C_13
REMARK    6  A    between atoms: C_13  and  N_14
REMARK    7  A    between atoms: C_15  and  C_17
REMARK                            x       y       z     vdW  Elec       q    Type
REMARK                         _______ _______ _______ _____ _____    ______ ____
ROOT
ATOM      1  C   UNL     1      48.615   7.161  12.753  0.00  0.00    +0.000 C 
ENDROOT
BRANCH   1   5
ATOM      2  C   UNL     1      50.304   6.445  16.548  0.00  0.00    +0.000 A 
ATOM      3  C   UNL     1      49.021   6.057  16.220  0.00  0.00    +0.000 A 
ATOM      4  N   UNL     1      48.429   6.349  15.047  0.00  0.00    +0.000 NA
ATOM      5  C   UNL     1      49.171   7.034  14.153  0.00  0.00    +0.000 A 
ATOM      6  N   UNL     1      50.403   7.526  14.402  0.00  0.00    +0.000 NA
ATOM      7  C   UNL     1      50.941   7.212  15.595  0.00  0.00    +0.000 A 
BRANCH   2   8
ATOM      8  C   UNL     1      50.994   5.938  17.777  0.00  0.00    +0.000 C 
BRANCH   8  13
ATOM      9  C   UNL     1      50.431   2.404  16.922  0.00  0.00    +0.000 A 
ATOM     10  C   UNL     1      51.542   1.734  17.405  0.00  0.00    +0.000 A 
ATOM     11  C   UNL     1      52.502   2.468  18.090  0.00  0.00    +0.000 A 
ATOM     12  C   UNL     1      52.328   3.840  18.249  0.00  0.00    +0.000 A 
ATOM     13  C   UNL     1      51.182   4.441  17.727  0.00  0.00    +0.000 A 
ATOM     14  N   UNL     1      50.230   3.730  17.073  0.00  0.00    +0.000 NA
BRANCH   9  16
ATOM     15  C   UNL     1      48.208   2.235  16.230  0.00  0.00    +0.000 C 
ATOM     16  O   UNL     1      49.506   1.647  16.232  0.00  0.00    +0.000 OA
ENDBRANCH   9  16
ENDBRANCH   8  13
ENDBRANCH   2   8
ENDBRANCH   1   5
BRANCH   1  17
ATOM     17  N   UNL     1      47.532   6.252  12.457  0.00  0.00    +0.000 N 
ATOM     18  C   UNL     1      46.340   6.728  11.974  0.00  0.00    +0.000 C 
ATOM     19  O   UNL     1      46.173   7.920  11.731  0.00  0.00    +0.000 OA
ATOM     20  H   UNL     1      47.764   5.267  12.366  0.00  0.00    +0.000 HD
BRANCH  18  21
ATOM     21  C   UNL     1      45.239   5.765  11.869  0.00  0.00    +0.000 A 
ATOM     22  C   UNL     1      44.339   5.608  12.916  0.00  0.00    +0.000 A 
ATOM     23  S   UNL     1      43.367   4.212  12.760  0.00  0.00    +0.000 S 
ATOM     24  C   UNL     1      44.079   3.821  11.264  0.00  0.00    +0.000 A 
ATOM     25  N   UNL     1      43.801   2.654  10.624  0.00  0.00    +0.000 NA
ATOM     26  C   UNL     1      44.392   2.523   9.481  0.00  0.00    +0.000 A 
ATOM     27  N   UNL     1      45.188   3.472   8.891  0.00  0.00    +0.000 N 
ATOM     28  C   UNL     1      45.459   4.681   9.487  0.00  0.00    +0.000 A 
ATOM     29  O   UNL     1      46.066   5.567   8.897  0.00  0.00    +0.000 OA
ATOM     30  C   UNL     1      44.937   4.813  10.831  0.00  0.00    +0.000 A 
ATOM     31  H   UNL     1      45.546   3.346   7.959  0.00  0.00    +0.000 HD
ENDBRANCH  18  21
ENDBRANCH   1  17
TORSDOF 6
ENDMDL
MODEL 6
REMARK VINA RESULT:    -6.966      3.794      9.112
REMARK INTER + INTRA:         -10.479
REMARK INTER:                  -9.650
REMARK INTRA:                  -0.830
REMARK UNBOUND:                -1.070
REMARK  Name = 
REMARK  7 active torsions:
REMARK  status: ('A' for Active; 'I' for Inactive)
REMARK    1  A    between atoms: C_1  and  O_2
REMARK    2  A    between atoms: O_2  and  C_3
REMARK    3  A    between atoms: C_7  and  C_8
REMARK    4  A    between atoms: C_8  and  C_9
REMARK    5  A    between atoms: C_12  and  C_13
REMARK    6  A    between atoms: C_13  and  N_14
REMARK    7  A    between atoms: C_15  and  C_17
REMARK                            x       y       z     vdW  Elec       q    Type
REMARK                         _______ _______ _______ _____ _____    ______ ____
ROOT
ATOM      1  C   UNL     1      47.239   3.775  16.691  0.00  0.00    +0.000 C 
ENDROOT
BRANCH   1   5
ATOM      2  C   UNL     1      50.687   5.411  18.481  0.00  0.00    +0.000 A 
ATOM      3  C   UNL     1      49.685   4.808  19.212  0.00  0.00    +0.000 A 
ATOM      4  N   UNL     1      48.536   4.356  18.675  0.00  0.00    +0.000 NA
ATOM      5  C   UNL     1      48.404   4.487  17.340  0.00  0.00    +0.000 A 
ATOM      6  N   UNL     1      49.287   5.129  16.546  0.00  0.00    +0.000 NA
ATOM      7  C   UNL     1      50.413   5.570  17.138  0.00  0.00    +0.000 A 
BRANCH   2   8
ATOM      8  C   UNL     1      52.024   5.723  19.079  0.00  0.00    +0.000 C 
BRANCH   8  13
ATOM      9  C   UNL     1      53.714   2.521  18.426  0.00  0.00    +0.000 A 
ATOM     10  C   UNL     1      54.827   2.848  17.672  0.00  0.00    +0.000 A 
ATOM     11  C   UNL     1      55.066   4.190  17.404  0.00  0.00    +0.000 A 
ATOM     12  C   UNL     1      54.178   5.150  17.881  0.00  0.00    +0.000 A 
ATOM     13  C   UNL     1      53.075   4.738  18.629  0.00  0.00    +0.000 A 
ATOM     14  N   UNL     1      52.843   3.431  18.912  0.00  0.00    +0.000 NA
BRANCH   9  16
ATOM     15  C   UNL     1      52.459   0.641  17.844  0.00  0.00    +0.000 C 
ATOM     16  O   UNL     1      53.498   1.178  18.658  0.00  0.00    +0.000 OA
ENDBRANCH   9  16
ENDBRANCH   8  13
ENDBRANCH   2   8
ENDBRANCH   1   5
BRANCH   1  17
ATOM     17  N   UNL     1      46.630   4.502  15.601  0.00  0.00    +0.000 N 
ATOM     18  C   UNL     1      46.748   4.046  14.313  0.00  0.00    +0.000 C 
ATOM     19  O   UNL     1      47.324   2.993  14.052  0.00  0.00    +0.000 OA
ATOM     20  H   UNL     1      45.914   5.183  15.839  0.00  0.00    +0.000 HD
BRANCH  18  21
ATOM     21  C   UNL     1      46.257   4.931  13.252  0.00  0.00    +0.000 A 
ATOM     22  C   UNL     1      47.016   6.015  12.832  0.00  0.00    +0.000 A 
ATOM     23  S   UNL     1      46.135   7.116  11.866  0.00  0.00    +0.000 S 
ATOM     24  C   UNL     1      44.742   6.141  11.935  0.00  0.00    +0.000 A 
ATOM     25  N   UNL     1      43.553   6.556  11.422  0.00  0.00    +0.000 NA
ATOM     26  C   UNL     1      42.602   5.685  11.518  0.00  0.00    +0.000 A 
ATOM     27  N   UNL     1      42.740   4.419  12.028  0.00  0.00    +0.000 N 
ATOM     28  C   UNL     1      43.935   3.947  12.517  0.00  0.00    +0.000 A 
ATOM     29  O   UNL     1      44.077   2.776  12.851  0.00  0.00    +0.000 OA
ATOM     30  C   UNL     1      44.992   4.936  12.563  0.00  0.00    +0.000 A 
ATOM     31  H   UNL     1      41.982   3.757  11.992  0.00  0.00    +0.000 HD
ENDBRANCH  18  21
ENDBRANCH   1  17
TORSDOF 6
ENDMDL
MODEL 7
REMARK VINA RESULT:    -6.912      2.178      3.866
REMARK INTER + INTRA:         -10.407
REMARK INTER:                 -10.003
REMARK INTRA:                  -0.403
REMARK UNBOUND:                -1.070
REMARK  Name = 
REMARK  7 active torsions:
REMARK  status: ('A' for Active; 'I' for Inactive)
REMARK    1  A    between atoms: C_1  and  O_2
REMARK    2  A    between atoms: O_2  and  C_3
REMARK    3  A    between atoms: C_7  and  C_8
REMARK    4  A    between atoms: C_8  and  C_9
REMARK    5  A    between atoms: C_12  and  C_13
REMARK    6  A    between atoms: C_13  and  N_14
REMARK    7  A    between atoms: C_15  and  C_17
REMARK                            x       y       z     vdW  Elec       q    Type
REMARK                         _______ _______ _______ _____ _____    ______ ____
ROOT
ATOM      1  C   UNL     1      46.830   4.784  14.886  0.00  0.00    +0.000 C 
ENDROOT
BRANCH   1   5
ATOM      2  C   UNL     1      44.445   4.634  11.413  0.00  0.00    +0.000 A 
ATOM      3  C   UNL     1      44.838   5.822  11.995  0.00  0.00    +0.000 A 
ATOM      4  N   UNL     1      45.525   5.897  13.150  0.00  0.00    +0.000 NA
ATOM      5  C   UNL     1      45.860   4.727  13.728  0.00  0.00    +0.000 A 
ATOM      6  N   UNL     1      45.460   3.515  13.285  0.00  0.00    +0.000 NA
ATOM      7  C   UNL     1      44.766   3.500  12.132  0.00  0.00    +0.000 A 
BRANCH   2   8
ATOM      8  C   UNL     1      43.855   4.584  10.038  0.00  0.00    +0.000 C 
BRANCH   8  13
ATOM      9  C   UNL     1      46.028   3.441   7.299  0.00  0.00    +0.000 A 
ATOM     10  C   UNL     1      46.247   2.097   7.547  0.00  0.00    +0.000 A 
ATOM     11  C   UNL     1      45.610   1.522   8.640  0.00  0.00    +0.000 A 
ATOM     12  C   UNL     1      44.799   2.310   9.451  0.00  0.00    +0.000 A 
ATOM     13  C   UNL     1      44.635   3.659   9.135  0.00  0.00    +0.000 A 
ATOM     14  N   UNL     1      45.237   4.227   8.060  0.00  0.00    +0.000 NA
BRANCH   9  16
ATOM     15  C   UNL     1      47.268   2.991   5.372  0.00  0.00    +0.000 C 
ATOM     16  O   UNL     1      46.690   3.983   6.216  0.00  0.00    +0.000 OA
ENDBRANCH   9  16
ENDBRANCH   8  13
ENDBRANCH   2   8
ENDBRANCH   1   5
BRANCH   1  17
ATOM     17  N   UNL     1      47.924   5.710  14.701  0.00  0.00    +0.000 N 
ATOM     18  C   UNL     1      48.655   6.141  15.778  0.00  0.00    +0.000 C 
ATOM     19  O   UNL     1      48.441   5.722  16.913  0.00  0.00    +0.000 OA
ATOM     20  H   UNL     1      48.289   5.815  13.759  0.00  0.00    +0.000 HD
BRANCH  18  21
ATOM     21  C   UNL     1      49.627   7.211  15.529  0.00  0.00    +0.000 A 
ATOM     22  C   UNL     1      50.968   7.029  15.837  0.00  0.00    +0.000 A 
ATOM     23  S   UNL     1      51.864   8.485  15.817  0.00  0.00    +0.000 S 
ATOM     24  C   UNL     1      50.497   9.378  15.336  0.00  0.00    +0.000 A 
ATOM     25  N   UNL     1      50.523  10.735  15.258  0.00  0.00    +0.000 NA
ATOM     26  C   UNL     1      49.418  11.263  14.840  0.00  0.00    +0.000 A 
ATOM     27  N   UNL     1      48.310  10.560  14.440  0.00  0.00    +0.000 N 
ATOM     28  C   UNL     1      48.260   9.186  14.464  0.00  0.00    +0.000 A 
ATOM     29  O   UNL     1      47.316   8.568  13.987  0.00  0.00    +0.000 OA
ATOM     30  C   UNL     1      49.421   8.558  15.061  0.00  0.00    +0.000 A 
ATOM     31  H   UNL     1      47.513  11.027  14.039  0.00  0.00    +0.000 HD
ENDBRANCH  18  21
ENDBRANCH   1  17
TORSDOF 6
ENDMDL
MODEL 8
REMARK VINA RESULT:    -6.838      2.530      3.446
REMARK INTER + INTRA:         -10.306
REMARK INTER:                  -9.518
REMARK INTRA:                  -0.788
REMARK UNBOUND:                -1.070
REMARK  Name = 
REMARK  7 active torsions:
REMARK  status: ('A' for Active; 'I' for Inactive)
REMARK    1  A    between atoms: C_1  and  O_2
REMARK    2  A    between atoms: O_2  and  C_3
REMARK    3  A    between atoms: C_7  and  C_8
REMARK    4  A    between atoms: C_8  and  C_9
REMARK    5  A    between atoms: C_12  and  C_13
REMARK    6  A    between atoms: C_13  and  N_14
REMARK    7  A    between atoms: C_15  and  C_17
REMARK                            x       y       z     vdW  Elec       q    Type
REMARK                         _______ _______ _______ _____ _____    ______ ____
ROOT
ATOM      1  C   UNL     1      49.613   7.840  15.660  0.00  0.00    +0.000 C 
ENDROOT
BRANCH   1   5
ATOM      2  C   UNL     1      46.904   6.753  12.618  0.00  0.00    +0.000 A 
ATOM      3  C   UNL     1      46.892   7.996  13.214  0.00  0.00    +0.000 A 
ATOM      4  N   UNL     1      47.688   8.339  14.245  0.00  0.00    +0.000 NA
ATOM      5  C   UNL     1      48.555   7.400  14.673  0.00  0.00    +0.000 A 
ATOM      6  N   UNL     1      48.594   6.132  14.213  0.00  0.00    +0.000 NA
ATOM      7  C   UNL     1      47.769   5.842  13.190  0.00  0.00    +0.000 A 
BRANCH   2   8
ATOM      8  C   UNL     1      46.146   6.473  11.357  0.00  0.00    +0.000 C 
BRANCH   8  13
ATOM      9  C   UNL     1      44.059   3.475  10.919  0.00  0.00    +0.000 A 
ATOM     10  C   UNL     1      43.223   3.453  12.021  0.00  0.00    +0.000 A 
ATOM     11  C   UNL     1      43.311   4.500  12.931  0.00  0.00    +0.000 A 
ATOM     12  C   UNL     1      44.240   5.514  12.717  0.00  0.00    +0.000 A 
ATOM     13  C   UNL     1      45.051   5.459  11.583  0.00  0.00    +0.000 A 
ATOM     14  N   UNL     1      44.961   4.451  10.679  0.00  0.00    +0.000 NA
BRANCH   9  16
ATOM     15  C   UNL     1      44.747   2.587   8.872  0.00  0.00    +0.000 C 
ATOM     16  O   UNL     1      43.957   2.411  10.046  0.00  0.00    +0.000 OA
ENDBRANCH   9  16
ENDBRANCH   8  13
ENDBRANCH   2   8
ENDBRANCH   1   5
BRANCH   1  17
ATOM     17  N   UNL     1      50.406   6.762  16.203  0.00  0.00    +0.000 N 
ATOM     18  C   UNL     1      49.998   6.104  17.335  0.00  0.00    +0.000 C 
ATOM     19  O   UNL     1      48.934   6.372  17.888  0.00  0.00    +0.000 OA
ATOM     20  H   UNL     1      51.104   6.346  15.593  0.00  0.00    +0.000 HD
BRANCH  18  21
ATOM     21  C   UNL     1      50.943   5.148  17.919  0.00  0.00    +0.000 A 
ATOM     22  C   UNL     1      52.047   5.596  18.633  0.00  0.00    +0.000 A 
ATOM     23  S   UNL     1      53.204   4.370  18.917  0.00  0.00    +0.000 S 
ATOM     24  C   UNL     1      52.230   3.203  18.151  0.00  0.00    +0.000 A 
ATOM     25  N   UNL     1      52.677   1.940  17.919  0.00  0.00    +0.000 NA
ATOM     26  C   UNL     1      51.805   1.163  17.364  0.00  0.00    +0.000 A 
ATOM     27  N   UNL     1      50.512   1.511  17.069  0.00  0.00    +0.000 N 
ATOM     28  C   UNL     1      50.010   2.765  17.326  0.00  0.00    +0.000 A 
ATOM     29  O   UNL     1      48.821   3.025  17.176  0.00  0.00    +0.000 OA
ATOM     30  C   UNL     1      50.991   3.712  17.814  0.00  0.00    +0.000 A 
ATOM     31  H   UNL     1      49.856   0.833  16.720  0.00  0.00    +0.000 HD
ENDBRANCH  18  21
ENDBRANCH   1  17
TORSDOF 6
ENDMDL
MODEL 9
REMARK VINA RESULT:    -6.677      2.531      3.429
REMARK INTER + INTRA:         -10.089
REMARK INTER:                  -9.266
REMARK INTRA:                  -0.823
REMARK UNBOUND:                -1.070
REMARK  Name = 
REMARK  7 active torsions:
REMARK  status: ('A' for Active; 'I' for Inactive)
REMARK    1  A    between atoms: C_1  and  O_2
REMARK    2  A    between atoms: O_2  and  C_3
REMARK    3  A    between atoms: C_7  and  C_8
REMARK    4  A    between atoms: C_8  and  C_9
REMARK    5  A    between atoms: C_12  and  C_13
REMARK    6  A    between atoms: C_13  and  N_14
REMARK    7  A    between atoms: C_15  and  C_17
REMARK                            x       y       z     vdW  Elec       q    Type
REMARK                         _______ _______ _______ _____ _____    ______ ____
ROOT
ATOM      1  C   UNL     1      47.876   5.051  15.782  0.00  0.00    +0.000 C 
ENDROOT
BRANCH   1   5
ATOM      2  C   UNL     1      45.740   5.339  12.160  0.00  0.00    +0.000 A 
ATOM      3  C   UNL     1      45.459   4.384  13.114  0.00  0.00    +0.000 A 
ATOM      4  N   UNL     1      46.180   4.216  14.239  0.00  0.00    +0.000 NA
ATOM      5  C   UNL     1      47.209   5.067  14.426  0.00  0.00    +0.000 A 
ATOM      6  N   UNL     1      47.616   5.982  13.521  0.00  0.00    +0.000 NA
ATOM      7  C   UNL     1      46.864   6.099  12.410  0.00  0.00    +0.000 A 
BRANCH   2   8
ATOM      8  C   UNL     1      44.805   5.622  11.024  0.00  0.00    +0.000 C 
BRANCH   8  13
ATOM      9  C   UNL     1      45.821   3.849   7.964  0.00  0.00    +0.000 A 
ATOM     10  C   UNL     1      45.259   2.589   8.074  0.00  0.00    +0.000 A 
ATOM     11  C   UNL     1      44.466   2.320   9.183  0.00  0.00    +0.000 A 
ATOM     12  C   UNL     1      44.280   3.308  10.145  0.00  0.00    +0.000 A 
ATOM     13  C   UNL     1      44.885   4.551   9.963  0.00  0.00    +0.000 A 
ATOM     14  N   UNL     1      45.647   4.830   8.875  0.00  0.00    +0.000 NA
BRANCH   9  16
ATOM     15  C   UNL     1      47.384   2.934   6.492  0.00  0.00    +0.000 C 
ATOM     16  O   UNL     1      46.616   4.077   6.860  0.00  0.00    +0.000 OA
ENDBRANCH   9  16
ENDBRANCH   8  13
ENDBRANCH   2   8
ENDBRANCH   1   5
BRANCH   1  17
ATOM     17  N   UNL     1      48.261   6.355  16.272  0.00  0.00    +0.000 N 
ATOM     18  C   UNL     1      49.564   6.610  16.613  0.00  0.00    +0.000 C 
ATOM     19  O   UNL     1      50.446   5.767  16.467  0.00  0.00    +0.000 OA
ATOM     20  H   UNL     1      47.615   7.122  16.106  0.00  0.00    +0.000 HD
BRANCH  18  21
ATOM     21  C   UNL     1      49.836   7.894  17.266  0.00  0.00    +0.000 A 
ATOM     22  C   UNL     1      50.726   8.797  16.700  0.00  0.00    +0.000 A 
ATOM     23  S   UNL     1      51.180  10.051  17.769  0.00  0.00    +0.000 S 
ATOM     24  C   UNL     1      50.152   9.453  18.987  0.00  0.00    +0.000 A 
ATOM     25  N   UNL     1      50.145   9.982  20.239  0.00  0.00    +0.000 NA
ATOM     26  C   UNL     1      49.280   9.444  21.037  0.00  0.00    +0.000 A 
ATOM     27  N   UNL     1      48.385   8.466  20.686  0.00  0.00    +0.000 N 
ATOM     28  C   UNL     1      48.332   7.935  19.419  0.00  0.00    +0.000 A 
ATOM     29  O   UNL     1      47.447   7.155  19.084  0.00  0.00    +0.000 OA
ATOM     30  C   UNL     1      49.376   8.404  18.532  0.00  0.00    +0.000 A 
ATOM     31  H   UNL     1      47.677   8.152  21.329  0.00  0.00    +0.000 HD
ENDBRANCH  18  21
ENDBRANCH   1  17
TORSDOF 6
ENDMDL
