MODEL 1
REMARK VINA RESULT:    -7.328      0.000      0.000
REMARK INTER + INTRA:         -10.893
REMARK INTER:                 -10.113
REMARK INTRA:                  -0.780
REMARK UNBOUND:                -0.780
REMARK  Name = 
REMARK  7 active torsions:
REMARK  status: ('A' for Active; 'I' for Inactive)
REMARK    1  A    between atoms: C_2  and  C_3
REMARK    2  A    between atoms: C_6  and  C_7
REMARK    3  A    between atoms: C_7  and  O_8
REMARK    4  A    between atoms: O_8  and  C_9
REMARK    5  A    between atoms: C_12  and  C_13
REMARK    6  A    between atoms: C_13  and  C_14
REMARK    7  A    between atoms: C_14  and  N_15
REMARK                            x       y       z     vdW  Elec       q    Type
REMARK                         _______ _______ _______ _____ _____    ______ ____
ROOT
ATOM      1  C   UNL     1      44.299   3.817   9.346  0.00  0.00    +0.000 A 
ATOM      2  C   UNL     1      44.336   2.441   9.569  0.00  0.00    +0.000 A 
ATOM      3  C   UNL     1      45.251   1.637   8.876  0.00  0.00    +0.000 A 
ATOM      4  C   UNL     1      46.145   2.200   7.955  0.00  0.00    +0.000 A 
ATOM      5  C   UNL     1      46.082   3.577   7.716  0.00  0.00    +0.000 A 
ATOM      6  C   UNL     1      45.172   4.377   8.410  0.00  0.00    +0.000 A 
ENDROOT
BRANCH   1   7
ATOM      7  O   UNL     1      43.477   4.712   9.972  0.00  0.00    +0.000 OA
BRANCH   7   8
ATOM      8  C   UNL     1      43.300   4.550  11.379  0.00  0.00    +0.000 C 
BRANCH   8  12
ATOM      9  C   UNL     1      46.888   5.862  13.405  0.00  0.00    +0.000 A 
ATOM     10  C   UNL     1      46.468   4.535  13.529  0.00  0.00    +0.000 A 
ATOM     11  C   UNL     1      45.303   4.108  12.887  0.00  0.00    +0.000 A 
ATOM     12  C   UNL     1      44.536   5.003  12.127  0.00  0.00    +0.000 A 
ATOM     13  C   UNL     1      44.972   6.331  12.001  0.00  0.00    +0.000 A 
ATOM     14  C   UNL     1      46.139   6.759  12.639  0.00  0.00    +0.000 A 
BRANCH   9  16
ATOM     15  N   UNL     1      49.059   6.657  14.581  0.00  0.00    +0.000 NA
ATOM     16  C   UNL     1      48.088   6.300  14.057  0.00  0.00    +0.000 C 
ENDBRANCH   9  16
ENDBRANCH   8  12
ENDBRANCH   7   8
ENDBRANCH   1   7
BRANCH   4  17
ATOM     17  C   UNL     1      47.174   1.346   7.252  0.00  0.00    +0.000 C 
BRANCH  17  18
ATOM     18  C   UNL     1      48.333   2.157   6.664  0.00  0.00    +0.000 C 
BRANCH  18  19
ATOM     19  N   UNL     1      48.392   2.012   5.208  0.00  0.00    +0.000 NA
ATOM     20  H   UNL     1      48.320   2.927   4.766  0.00  0.00    +0.000 HD
ATOM     21  H   UNL     1      47.580   1.481   4.890  0.00  0.00    +0.000 HD
ENDBRANCH  18  19
ENDBRANCH  17  18
ENDBRANCH   4  17
TORSDOF 7
ENDMDL
MODEL 2
REMARK VINA RESULT:    -6.921      1.173      6.670
REMARK INTER + INTRA:         -10.331
REMARK INTER:                  -9.618
REMARK INTRA:                  -0.713
REMARK UNBOUND:                -0.780
REMARK  Name = 
REMARK  7 active torsions:
REMARK  status: ('A' for Active; 'I' for Inactive)
REMARK    1  A    between atoms: C_2  and  C_3
REMARK    2  A    between atoms: C_6  and  C_7
REMARK    3  A    between atoms: C_7  and  O_8
REMARK    4  A    between atoms: O_8  and  C_9
REMARK    5  A    between atoms: C_12  and  C_13
REMARK    6  A    between atoms: C_13  and  C_14
REMARK    7  A    between atoms: C_14  and  N_15
REMARK                            x       y       z     vdW  Elec       q    Type
REMARK                         _______ _______ _______ _____ _____    ______ ____
ROOT
ATOM      1  C   UNL     1      44.962   4.751  12.241  0.00  0.00    +0.000 A 
ATOM      2  C   UNL     1      44.974   6.123  11.990  0.00  0.00    +0.000 A 
ATOM      3  C   UNL     1      45.982   6.931  12.533  0.00  0.00    +0.000 A 
ATOM      4  C   UNL     1      46.993   6.376  13.329  0.00  0.00    +0.000 A 
ATOM      5  C   UNL     1      46.957   5.005  13.599  0.00  0.00    +0.000 A 
ATOM      6  C   UNL     1      45.954   4.199  13.054  0.00  0.00    +0.000 A 
ENDROOT
BRANCH   1   7
ATOM      7  O   UNL     1      44.054   3.852  11.753  0.00  0.00    +0.000 OA
BRANCH   7   8
ATOM      8  C   UNL     1      43.645   4.020  10.395  0.00  0.00    +0.000 C 
BRANCH   8  12
ATOM      9  C   UNL     1      46.579   2.501   7.604  0.00  0.00    +0.000 A 
ATOM     10  C   UNL     1      45.867   1.613   8.413  0.00  0.00    +0.000 A 
ATOM     11  C   UNL     1      44.927   2.098   9.325  0.00  0.00    +0.000 A 
ATOM     12  C   UNL     1      44.697   3.475   9.451  0.00  0.00    +0.000 A 
ATOM     13  C   UNL     1      45.411   4.359   8.627  0.00  0.00    +0.000 A 
ATOM     14  C   UNL     1      46.349   3.875   7.711  0.00  0.00    +0.000 A 
BRANCH   9  16
ATOM     15  N   UNL     1      48.313   1.601   5.898  0.00  0.00    +0.000 NA
ATOM     16  C   UNL     1      47.538   2.005   6.661  0.00  0.00    +0.000 C 
ENDBRANCH   9  16
ENDBRANCH   8  12
ENDBRANCH   7   8
ENDBRANCH   1   7
BRANCH   4  17
ATOM     17  C   UNL     1      48.115   7.234  13.865  0.00  0.00    +0.000 C 
BRANCH  17  18
ATOM     18  C   UNL     1      47.718   8.702  14.052  0.00  0.00    +0.000 C 
BRANCH  18  19
ATOM     19  N   UNL     1      47.485   9.008  15.466  0.00  0.00    +0.000 NA
ATOM     20  H   UNL     1      46.791   8.367  15.848  0.00  0.00    +0.000 HD
ATOM     21  H   UNL     1      47.080   9.942  15.545  0.00  0.00    +0.000 HD
ENDBRANCH  18  19
ENDBRANCH  17  18
ENDBRANCH   4  17
TORSDOF 7
ENDMDL
MODEL 3
REMARK VINA RESULT:    -6.802      1.050      6.612
REMARK INTER + INTRA:         -10.167
REMARK INTER:                  -9.541
REMARK INTRA:                  -0.626
REMARK UNBOUND:                -0.780
REMARK  Name = 
REMARK  7 active torsions:
REMARK  status: ('A' for Active; 'I' for Inactive)
REMARK    1  A    between atoms: C_2  and  C_3
REMARK    2  A    between atoms: C_6  and  C_7
REMARK    3  A    between atoms: C_7  and  O_8
REMARK    4  A    between atoms: O_8  and  C_9
REMARK    5  A    between atoms: C_12  and  C_13
REMARK    6  A    between atoms: C_13  and  C_14
REMARK    7  A    between atoms: C_14  and  N_15
REMARK                            x       y       z     vdW  Elec       q    Type
REMARK                         _______ _______ _______ _____ _____    ______ ____
ROOT
ATOM      1  C   UNL     1      45.043   5.387  11.780  0.00  0.00    +0.000 A 
ATOM      2  C   UNL     1      45.174   4.547  12.886  0.00  0.00    +0.000 A 
ATOM      3  C   UNL     1      46.203   4.757  13.814  0.00  0.00    +0.000 A 
ATOM      4  C   UNL     1      47.110   5.813  13.650  0.00  0.00    +0.000 A 
ATOM      5  C   UNL     1      46.989   6.633  12.523  0.00  0.00    +0.000 A 
ATOM      6  C   UNL     1      45.960   6.424  11.601  0.00  0.00    +0.000 A 
ENDROOT
BRANCH   1   7
ATOM      7  O   UNL     1      44.073   5.307  10.820  0.00  0.00    +0.000 OA
BRANCH   7   8
ATOM      8  C   UNL     1      43.699   3.999  10.387  0.00  0.00    +0.000 C 
BRANCH   8  12
ATOM      9  C   UNL     1      46.583   2.483   7.543  0.00  0.00    +0.000 A 
ATOM     10  C   UNL     1      46.273   3.845   7.557  0.00  0.00    +0.000 A 
ATOM     11  C   UNL     1      45.334   4.339   8.465  0.00  0.00    +0.000 A 
ATOM     12  C   UNL     1      44.682   3.478   9.359  0.00  0.00    +0.000 A 
ATOM     13  C   UNL     1      45.007   2.113   9.344  0.00  0.00    +0.000 A 
ATOM     14  C   UNL     1      45.950   1.617   8.439  0.00  0.00    +0.000 A 
BRANCH   9  16
ATOM     15  N   UNL     1      48.341   1.565   5.871  0.00  0.00    +0.000 NA
ATOM     16  C   UNL     1      47.553   1.975   6.618  0.00  0.00    +0.000 C 
ENDBRANCH   9  16
ENDBRANCH   8  12
ENDBRANCH   7   8
ENDBRANCH   1   7
BRANCH   4  17
ATOM     17  C   UNL     1      48.183   6.080  14.680  0.00  0.00    +0.000 C 
BRANCH  17  18
ATOM     18  C   UNL     1      48.058   5.196  15.926  0.00  0.00    +0.000 C 
BRANCH  18  19
ATOM     19  N   UNL     1      49.323   5.147  16.665  0.00  0.00    +0.000 NA
ATOM     20  H   UNL     1      49.509   4.192  16.968  0.00  0.00    +0.000 HD
ATOM     21  H   UNL     1      49.235   5.701  17.518  0.00  0.00    +0.000 HD
ENDBRANCH  18  19
ENDBRANCH  17  18
ENDBRANCH   4  17
TORSDOF 7
ENDMDL
MODEL 4
REMARK VINA RESULT:    -6.390      1.403      2.176
REMARK INTER + INTRA:          -9.598
REMARK INTER:                  -9.052
REMARK INTRA:                  -0.547
REMARK UNBOUND:                -0.780
REMARK  Name = 
REMARK  7 active torsions:
REMARK  status: ('A' for Active; 'I' for Inactive)
REMARK    1  A    between atoms: C_2  and  C_3
REMARK    2  A    between atoms: C_6  and  C_7
REMARK    3  A    between atoms: C_7  and  O_8
REMARK    4  A    between atoms: O_8  and  C_9
REMARK    5  A    between atoms: C_12  and  C_13
REMARK    6  A    between atoms: C_13  and  C_14
REMARK    7  A    between atoms: C_14  and  N_15
REMARK                            x       y       z     vdW  Elec       q    Type
REMARK                         _______ _______ _______ _____ _____    ______ ____
ROOT
ATOM      1  C   UNL     1      44.510   4.017  10.291  0.00  0.00    +0.000 A 
ATOM      2  C   UNL     1      45.275   4.884   9.512  0.00  0.00    +0.000 A 
ATOM      3  C   UNL     1      45.916   4.416   8.356  0.00  0.00    +0.000 A 
ATOM      4  C   UNL     1      45.794   3.077   7.963  0.00  0.00    +0.000 A 
ATOM      5  C   UNL     1      45.048   2.207   8.766  0.00  0.00    +0.000 A 
ATOM      6  C   UNL     1      44.407   2.676   9.916  0.00  0.00    +0.000 A 
ENDROOT
BRANCH   1   7
ATOM      7  O   UNL     1      43.816   4.351  11.421  0.00  0.00    +0.000 OA
BRANCH   7   8
ATOM      8  C   UNL     1      44.542   4.335  12.651  0.00  0.00    +0.000 C 
BRANCH   8  12
ATOM      9  C   UNL     1      46.994   7.863  13.146  0.00  0.00    +0.000 A 
ATOM     10  C   UNL     1      45.628   7.999  12.887  0.00  0.00    +0.000 A 
ATOM     11  C   UNL     1      44.833   6.864  12.714  0.00  0.00    +0.000 A 
ATOM     12  C   UNL     1      45.393   5.580  12.783  0.00  0.00    +0.000 A 
ATOM     13  C   UNL     1      46.765   5.454  13.053  0.00  0.00    +0.000 A 
ATOM     14  C   UNL     1      47.561   6.589  13.230  0.00  0.00    +0.000 A 
BRANCH   9  16
ATOM     15  N   UNL     1      48.469   9.969  13.485  0.00  0.00    +0.000 NA
ATOM     16  C   UNL     1      47.810   9.027  13.332  0.00  0.00    +0.000 C 
ENDBRANCH   9  16
ENDBRANCH   8  12
ENDBRANCH   7   8
ENDBRANCH   1   7
BRANCH   4  17
ATOM     17  C   UNL     1      46.431   2.583   6.686  0.00  0.00    +0.000 C 
BRANCH  17  18
ATOM     18  C   UNL     1      47.960   2.512   6.761  0.00  0.00    +0.000 C 
BRANCH  18  19
ATOM     19  N   UNL     1      48.515   1.846   5.580  0.00  0.00    +0.000 NA
ATOM     20  H   UNL     1      47.758   1.526   4.977  0.00  0.00    +0.000 HD
ATOM     21  H   UNL     1      49.017   1.006   5.872  0.00  0.00    +0.000 HD
ENDBRANCH  18  19
ENDBRANCH  17  18
ENDBRANCH   4  17
TORSDOF 7
ENDMDL
MODEL 5
REMARK VINA RESULT:    -5.244      3.079      4.383
REMARK INTER + INTRA:          -8.017
REMARK INTER:                  -7.638
REMARK INTRA:                  -0.379
REMARK UNBOUND:                -0.780
REMARK  Name = 
REMARK  7 active torsions:
REMARK  status: ('A' for Active; 'I' for Inactive)
REMARK    1  A    between atoms: C_2  and  C_3
REMARK    2  A    between atoms: C_6  and  C_7
REMARK    3  A    between atoms: C_7  and  O_8
REMARK    4  A    between atoms: O_8  and  C_9
REMARK    5  A    between atoms: C_12  and  C_13
REMARK    6  A    between atoms: C_13  and  C_14
REMARK    7  A    between atoms: C_14  and  N_15
REMARK                            x       y       z     vdW  Elec       q    Type
REMARK                         _______ _______ _______ _____ _____    ______ ____
ROOT
ATOM      1  C   UNL     1      45.733   5.007  12.415  0.00  0.00    +0.000 A 
ATOM      2  C   UNL     1      45.173   3.757  12.153  0.00  0.00    +0.000 A 
ATOM      3  C   UNL     1      44.825   3.399  10.844  0.00  0.00    +0.000 A 
ATOM      4  C   UNL     1      45.039   4.284   9.779  0.00  0.00    +0.000 A 
ATOM      5  C   UNL     1      45.574   5.547  10.054  0.00  0.00    +0.000 A 
ATOM      6  C   UNL     1      45.924   5.901  11.360  0.00  0.00    +0.000 A 
ENDROOT
BRANCH   1   7
ATOM      7  O   UNL     1      46.138   5.467  13.638  0.00  0.00    +0.000 OA
BRANCH   7   8
ATOM      8  C   UNL     1      47.544   5.493  13.883  0.00  0.00    +0.000 C 
BRANCH   8  12
ATOM      9  C   UNL     1      48.249   4.788  18.091  0.00  0.00    +0.000 A 
ATOM     10  C   UNL     1      48.795   5.918  17.477  0.00  0.00    +0.000 A 
ATOM     11  C   UNL     1      48.581   6.145  16.115  0.00  0.00    +0.000 A 
ATOM     12  C   UNL     1      47.833   5.241  15.348  0.00  0.00    +0.000 A 
ATOM     13  C   UNL     1      47.281   4.114  15.977  0.00  0.00    +0.000 A 
ATOM     14  C   UNL     1      47.491   3.887  17.340  0.00  0.00    +0.000 A 
BRANCH   9  16
ATOM     15  N   UNL     1      48.629   4.368  20.622  0.00  0.00    +0.000 NA
ATOM     16  C   UNL     1      48.460   4.557  19.490  0.00  0.00    +0.000 C 
ENDBRANCH   9  16
ENDBRANCH   8  12
ENDBRANCH   7   8
ENDBRANCH   1   7
BRANCH   4  17
ATOM     17  C   UNL     1      44.723   3.879   8.358  0.00  0.00    +0.000 C 
BRANCH  17  18
ATOM     18  C   UNL     1      45.887   3.170   7.658  0.00  0.00    +0.000 C 
BRANCH  18  19
ATOM     19  N   UNL     1      46.847   4.138   7.122  0.00  0.00    +0.000 NA
ATOM     20  H   UNL     1      46.722   5.039   7.583  0.00  0.00    +0.000 HD
ATOM     21  H   UNL     1      46.646   4.298   6.134  0.00  0.00    +0.000 HD
ENDBRANCH  18  19
ENDBRANCH  17  18
ENDBRANCH   4  17
TORSDOF 7
ENDMDL
MODEL 6
REMARK VINA RESULT:    -5.231      4.522      6.767
REMARK INTER + INTRA:          -7.999
REMARK INTER:                  -7.513
REMARK INTRA:                  -0.487
REMARK UNBOUND:                -0.780
REMARK  Name = 
REMARK  7 active torsions:
REMARK  status: ('A' for Active; 'I' for Inactive)
REMARK    1  A    between atoms: C_2  and  C_3
REMARK    2  A    between atoms: C_6  and  C_7
REMARK    3  A    between atoms: C_7  and  O_8
REMARK    4  A    between atoms: O_8  and  C_9
REMARK    5  A    between atoms: C_12  and  C_13
REMARK    6  A    between atoms: C_13  and  C_14
REMARK    7  A    between atoms: C_14  and  N_15
REMARK                            x       y       z     vdW  Elec       q    Type
REMARK                         _______ _______ _______ _____ _____    ______ ____
ROOT
ATOM      1  C   UNL     1      47.307   5.492  14.110  0.00  0.00    +0.000 A 
ATOM      2  C   UNL     1      47.358   6.403  13.056  0.00  0.00    +0.000 A 
ATOM      3  C   UNL     1      46.444   6.311  11.997  0.00  0.00    +0.000 A 
ATOM      4  C   UNL     1      45.463   5.311  11.984  0.00  0.00    +0.000 A 
ATOM      5  C   UNL     1      45.436   4.383  13.031  0.00  0.00    +0.000 A 
ATOM      6  C   UNL     1      46.346   4.478  14.087  0.00  0.00    +0.000 A 
ENDROOT
BRANCH   1   7
ATOM      7  O   UNL     1      48.119   5.487  15.210  0.00  0.00    +0.000 OA
BRANCH   7   8
ATOM      8  C   UNL     1      47.759   4.606  16.274  0.00  0.00    +0.000 C 
BRANCH   8  12
ATOM      9  C   UNL     1      51.307   2.567  17.670  0.00  0.00    +0.000 A 
ATOM     10  C   UNL     1      50.271   1.834  17.087  0.00  0.00    +0.000 A 
ATOM     11  C   UNL     1      49.117   2.485  16.645  0.00  0.00    +0.000 A 
ATOM     12  C   UNL     1      48.977   3.872  16.793  0.00  0.00    +0.000 A 
ATOM     13  C   UNL     1      50.028   4.601  17.372  0.00  0.00    +0.000 A 
ATOM     14  C   UNL     1      51.185   3.951  17.811  0.00  0.00    +0.000 A 
BRANCH   9  16
ATOM     15  N   UNL     1      53.459   1.366  18.480  0.00  0.00    +0.000 NA
ATOM     16  C   UNL     1      52.496   1.901  18.117  0.00  0.00    +0.000 C 
ENDBRANCH   9  16
ENDBRANCH   8  12
ENDBRANCH   7   8
ENDBRANCH   1   7
BRANCH   4  17
ATOM     17  C   UNL     1      44.437   5.246  10.877  0.00  0.00    +0.000 C 
BRANCH  17  18
ATOM     18  C   UNL     1      43.020   4.953  11.381  0.00  0.00    +0.000 C 
BRANCH  18  19
ATOM     19  N   UNL     1      42.293   6.194  11.657  0.00  0.00    +0.000 NA
ATOM     20  H   UNL     1      41.330   5.980  11.915  0.00  0.00    +0.000 HD
ATOM     21  H   UNL     1      42.238   6.749  10.802  0.00  0.00    +0.000 HD
ENDBRANCH  18  19
ENDBRANCH  17  18
ENDBRANCH   4  17
TORSDOF 7
ENDMDL
MODEL 7
REMARK VINA RESULT:    -5.091      1.639      2.484
REMARK INTER + INTRA:          -7.807
REMARK INTER:                  -7.232
REMARK INTRA:                  -0.575
REMARK UNBOUND:                -0.780
REMARK  Name = 
REMARK  7 active torsions:
REMARK  status: ('A' for Active; 'I' for Inactive)
REMARK    1  A    between atoms: C_2  and  C_3
REMARK    2  A    between atoms: C_6  and  C_7
REMARK    3  A    between atoms: C_7  and  O_8
REMARK    4  A    between atoms: O_8  and  C_9
REMARK    5  A    between atoms: C_12  and  C_13
REMARK    6  A    between atoms: C_13  and  C_14
REMARK    7  A    between atoms: C_14  and  N_15
REMARK                            x       y       z     vdW  Elec       q    Type
REMARK                         _______ _______ _______ _____ _____    ______ ____
ROOT
ATOM      1  C   UNL     1      44.263   4.040  11.472  0.00  0.00    +0.000 A 
ATOM      2  C   UNL     1      44.904   2.842  11.158  0.00  0.00    +0.000 A 
ATOM      3  C   UNL     1      45.158   2.506   9.821  0.00  0.00    +0.000 A 
ATOM      4  C   UNL     1      44.779   3.366   8.782  0.00  0.00    +0.000 A 
ATOM      5  C   UNL     1      44.110   4.552   9.104  0.00  0.00    +0.000 A 
ATOM      6  C   UNL     1      43.862   4.888  10.437  0.00  0.00    +0.000 A 
ENDROOT
BRANCH   1   7
ATOM      7  O   UNL     1      43.981   4.496  12.729  0.00  0.00    +0.000 OA
BRANCH   7   8
ATOM      8  C   UNL     1      44.073   5.906  12.940  0.00  0.00    +0.000 C 
BRANCH   8  12
ATOM      9  C   UNL     1      48.188   7.231  12.826  0.00  0.00    +0.000 A 
ATOM     10  C   UNL     1      47.196   7.995  12.206  0.00  0.00    +0.000 A 
ATOM     11  C   UNL     1      45.867   7.566  12.229  0.00  0.00    +0.000 A 
ATOM     12  C   UNL     1      45.514   6.363  12.857  0.00  0.00    +0.000 A 
ATOM     13  C   UNL     1      46.516   5.608  13.485  0.00  0.00    +0.000 A 
ATOM     14  C   UNL     1      47.846   6.037  13.467  0.00  0.00    +0.000 A 
BRANCH   9  16
ATOM     15  N   UNL     1      50.654   8.033  12.798  0.00  0.00    +0.000 NA
ATOM     16  C   UNL     1      49.551   7.673  12.811  0.00  0.00    +0.000 C 
ENDBRANCH   9  16
ENDBRANCH   8  12
ENDBRANCH   7   8
ENDBRANCH   1   7
BRANCH   4  17
ATOM     17  C   UNL     1      45.105   3.036   7.344  0.00  0.00    +0.000 C 
BRANCH  17  18
ATOM     18  C   UNL     1      46.609   3.032   7.051  0.00  0.00    +0.000 C 
BRANCH  18  19
ATOM     19  N   UNL     1      47.160   4.389   7.107  0.00  0.00    +0.000 NA
ATOM     20  H   UNL     1      48.178   4.347   7.132  0.00  0.00    +0.000 HD
ATOM     21  H   UNL     1      46.875   4.831   7.983  0.00  0.00    +0.000 HD
ENDBRANCH  18  19
ENDBRANCH  17  18
ENDBRANCH   4  17
TORSDOF 7
ENDMDL
MODEL 8
REMARK VINA RESULT:    -4.838      2.940      4.026
REMARK INTER + INTRA:          -7.457
REMARK INTER:                  -6.896
REMARK INTRA:                  -0.561
REMARK UNBOUND:                -0.780
REMARK  Name = 
REMARK  7 active torsions:
REMARK  status: ('A' for Active; 'I' for Inactive)
REMARK    1  A    between atoms: C_2  and  C_3
REMARK    2  A    between atoms: C_6  and  C_7
REMARK    3  A    between atoms: C_7  and  O_8
REMARK    4  A    between atoms: O_8  and  C_9
REMARK    5  A    between atoms: C_12  and  C_13
REMARK    6  A    between atoms: C_13  and  C_14
REMARK    7  A    between atoms: C_14  and  N_15
REMARK                            x       y       z     vdW  Elec       q    Type
REMARK                         _______ _______ _______ _____ _____    ______ ____
ROOT
ATOM      1  C   UNL     1      45.153   5.384  11.880  0.00  0.00    +0.000 A 
ATOM      2  C   UNL     1      44.706   4.105  12.213  0.00  0.00    +0.000 A 
ATOM      3  C   UNL     1      44.513   3.141  11.215  0.00  0.00    +0.000 A 
ATOM      4  C   UNL     1      44.771   3.442   9.871  0.00  0.00    +0.000 A 
ATOM      5  C   UNL     1      45.191   4.735   9.541  0.00  0.00    +0.000 A 
ATOM      6  C   UNL     1      45.386   5.694  10.538  0.00  0.00    +0.000 A 
ENDROOT
BRANCH   1   7
ATOM      7  O   UNL     1      45.404   6.403  12.756  0.00  0.00    +0.000 OA
BRANCH   7   8
ATOM      8  C   UNL     1      46.714   6.457  13.323  0.00  0.00    +0.000 C 
BRANCH   8  12
ATOM      9  C   UNL     1      49.106   9.626  11.611  0.00  0.00    +0.000 A 
ATOM     10  C   UNL     1      47.928   9.938  12.292  0.00  0.00    +0.000 A 
ATOM     11  C   UNL     1      47.144   8.919  12.837  0.00  0.00    +0.000 A 
ATOM     12  C   UNL     1      47.519   7.575  12.696  0.00  0.00    +0.000 A 
ATOM     13  C   UNL     1      48.710   7.272  12.018  0.00  0.00    +0.000 A 
ATOM     14  C   UNL     1      49.498   8.292  11.475  0.00  0.00    +0.000 A 
BRANCH   9  16
ATOM     15  N   UNL     1      50.574  11.515  10.609  0.00  0.00    +0.000 NA
ATOM     16  C   UNL     1      49.916  10.672  11.058  0.00  0.00    +0.000 C 
ENDBRANCH   9  16
ENDBRANCH   8  12
ENDBRANCH   7   8
ENDBRANCH   1   7
BRANCH   4  17
ATOM     17  C   UNL     1      44.623   2.388   8.799  0.00  0.00    +0.000 C 
BRANCH  17  18
ATOM     18  C   UNL     1      45.919   1.616   8.527  0.00  0.00    +0.000 C 
BRANCH  18  19
ATOM     19  N   UNL     1      46.666   2.215   7.419  0.00  0.00    +0.000 NA
ATOM     20  H   UNL     1      46.037   2.766   6.837  0.00  0.00    +0.000 HD
ATOM     21  H   UNL     1      47.027   1.473   6.817  0.00  0.00    +0.000 HD
ENDBRANCH  18  19
ENDBRANCH  17  18
ENDBRANCH   4  17
TORSDOF 7
ENDMDL
MODEL 9
REMARK VINA RESULT:    -4.806      3.488      4.874
REMARK INTER + INTRA:          -7.413
REMARK INTER:                  -6.951
REMARK INTRA:                  -0.462
REMARK UNBOUND:                -0.780
REMARK  Name = 
REMARK  7 active torsions:
REMARK  status: ('A' for Active; 'I' for Inactive)
REMARK    1  A    between atoms: C_2  and  C_3
REMARK    2  A    between atoms: C_6  and  C_7
REMARK    3  A    between atoms: C_7  and  O_8
REMARK    4  A    between atoms: O_8  and  C_9
REMARK    5  A    between atoms: C_12  and  C_13
REMARK    6  A    between atoms: C_13  and  C_14
REMARK    7  A    between atoms: C_14  and  N_15
REMARK                            x       y       z     vdW  Elec       q    Type
REMARK                         _______ _______ _______ _____ _____    ______ ____
ROOT
ATOM      1  C   UNL     1      46.383   5.460  12.803  0.00  0.00    +0.000 A 
ATOM      2  C   UNL     1      46.064   4.172  13.231  0.00  0.00    +0.000 A 
ATOM      3  C   UNL     1      45.303   3.324  12.415  0.00  0.00    +0.000 A 
ATOM      4  C   UNL     1      44.857   3.752  11.158  0.00  0.00    +0.000 A 
ATOM      5  C   UNL     1      45.156   5.055  10.748  0.00  0.00    +0.000 A 
ATOM      6  C   UNL     1      45.918   5.898  11.561  0.00  0.00    +0.000 A 
ENDROOT
BRANCH   1   7
ATOM      7  O   UNL     1      47.136   6.373  13.488  0.00  0.00    +0.000 OA
BRANCH   7   8
ATOM      8  C   UNL     1      47.002   7.741  13.100  0.00  0.00    +0.000 C 
BRANCH   8  12
ATOM      9  C   UNL     1      50.602   9.188  11.190  0.00  0.00    +0.000 A 
ATOM     10  C   UNL     1      50.532   7.862  11.622  0.00  0.00    +0.000 A 
ATOM     11  C   UNL     1      49.377   7.392  12.251  0.00  0.00    +0.000 A 
ATOM     12  C   UNL     1      48.284   8.242  12.469  0.00  0.00    +0.000 A 
ATOM     13  C   UNL     1      48.360   9.571  12.022  0.00  0.00    +0.000 A 
ATOM     14  C   UNL     1      49.514  10.042  11.389  0.00  0.00    +0.000 A 
BRANCH   9  16
ATOM     15  N   UNL     1      52.741  10.060  10.011  0.00  0.00    +0.000 NA
ATOM     16  C   UNL     1      51.784   9.671  10.537  0.00  0.00    +0.000 C 
ENDBRANCH   9  16
ENDBRANCH   8  12
ENDBRANCH   7   8
ENDBRANCH   1   7
BRANCH   4  17
ATOM     17  C   UNL     1      44.089   2.820  10.250  0.00  0.00    +0.000 C 
BRANCH  17  18
ATOM     18  C   UNL     1      44.754   2.623   8.883  0.00  0.00    +0.000 C 
BRANCH  18  19
ATOM     19  N   UNL     1      45.548   1.392   8.857  0.00  0.00    +0.000 NA
ATOM     20  H   UNL     1      44.982   0.624   8.498  0.00  0.00    +0.000 HD
ATOM     21  H   UNL     1      45.799   1.134   9.812  0.00  0.00    +0.000 HD
ENDBRANCH  18  19
ENDBRANCH  17  18
ENDBRANCH   4  17
TORSDOF 7
ENDMDL
