MODEL 1
REMARK VINA RESULT:    -8.820      0.000      0.000
REMARK INTER + INTRA:         -13.392
REMARK INTER:                 -12.430
REMARK INTRA:                  -0.963
REMARK UNBOUND:                -0.963
REMARK  Name = 
REMARK  9 active torsions:
REMARK  status: ('A' for Active; 'I' for Inactive)
REMARK    1  A    between atoms: C_1  and  C_2
REMARK    2  A    between atoms: C_2  and  C_3
REMARK    3  A    between atoms: C_5  and  N_6
REMARK    4  A    between atoms: N_6  and  C_7
REMARK    5  A    between atoms: C_11  and  C_12
REMARK    6  A    between atoms: C_12  and  C_13
REMARK    7  A    between atoms: C_13  and  N_14
REMARK    8  A    between atoms: N_14  and  C_15
REMARK    9  A    between atoms: C_18  and  C_19
REMARK                            x       y       z     vdW  Elec       q    Type
REMARK                         _______ _______ _______ _____ _____    ______ ____
ROOT
ATOM      1  C   UNL     1      43.558   5.570  12.271  0.00  0.00    +0.000 C 
ENDROOT
BRANCH   1   6
ATOM      2  C   UNL     1      46.782   4.527  14.079  0.00  0.00    +0.000 A 
ATOM      3  C   UNL     1      47.651   5.530  13.639  0.00  0.00    +0.000 A 
ATOM      4  C   UNL     1      47.219   6.515  12.749  0.00  0.00    +0.000 A 
ATOM      5  C   UNL     1      45.897   6.526  12.304  0.00  0.00    +0.000 A 
ATOM      6  C   UNL     1      44.997   5.547  12.740  0.00  0.00    +0.000 A 
ATOM      7  C   UNL     1      45.450   4.560  13.633  0.00  0.00    +0.000 A 
BRANCH   2   8
ATOM      8  N   UNL     1      47.174   3.564  15.025  0.00  0.00    +0.000 N 
ATOM      9  H   UNL     1      47.129   2.598  14.721  0.00  0.00    +0.000 HD
BRANCH   8  14
ATOM     10  C   UNL     1      49.375   2.063  16.508  0.00  0.00    +0.000 C 
ATOM     11  C   UNL     1      48.635   3.203  17.159  0.00  0.00    +0.000 C 
ATOM     12  C   UNL     1      49.487   4.073  18.048  0.00  0.00    +0.000 C 
ATOM     13  C   UNL     1      47.186   2.983  17.530  0.00  0.00    +0.000 C 
ATOM     14  C   UNL     1      47.534   3.905  16.395  0.00  0.00    +0.000 C 
ENDBRANCH   8  14
ENDBRANCH   2   8
ENDBRANCH   1   6
BRANCH   1  15
ATOM     15  C   UNL     1      43.260   4.490  11.224  0.00  0.00    +0.000 C 
BRANCH  15  16
ATOM     16  N   UNL     1      43.725   4.900   9.894  0.00  0.00    +0.000 N 
ATOM     17  H   UNL     1      44.013   5.877   9.833  0.00  0.00    +0.000 HD
BRANCH  16  18
ATOM     18  C   UNL     1      44.570   4.054   9.163  0.00  0.00    +0.000 A 
ATOM     19  C   UNL     1      45.566   4.528   8.305  0.00  0.00    +0.000 A 
ATOM     20  C   UNL     1      46.441   3.645   7.649  0.00  0.00    +0.000 A 
ATOM     21  C   UNL     1      46.364   2.274   7.879  0.00  0.00    +0.000 A 
ATOM     22  C   UNL     1      45.390   1.780   8.752  0.00  0.00    +0.000 A 
ATOM     23  C   UNL     1      44.511   2.671   9.389  0.00  0.00    +0.000 A 
BRANCH  21  24
ATOM     24  C   UNL     1      47.328   1.393   7.166  0.00  0.00    +0.000 C 
ATOM     25  N   UNL     1      48.393   1.986   6.549  0.00  0.00    +0.000 N 
ATOM     26  O   UNL     1      47.156   0.182   7.092  0.00  0.00    +0.000 OA
ATOM     27  H   UNL     1      48.431   2.978   6.370  0.00  0.00    +0.000 HD
ATOM     28  H   UNL     1      48.958   1.381   5.967  0.00  0.00    +0.000 HD
ENDBRANCH  21  24
ENDBRANCH  16  18
ENDBRANCH  15  16
ENDBRANCH   1  15
TORSDOF 7
ENDMDL
MODEL 2
REMARK VINA RESULT:    -7.467      2.031      2.874
REMARK INTER + INTRA:         -11.485
REMARK INTER:                 -10.754
REMARK INTRA:                  -0.731
REMARK UNBOUND:                -0.963
REMARK  Name = 
REMARK  9 active torsions:
REMARK  status: ('A' for Active; 'I' for Inactive)
REMARK    1  A    between atoms: C_1  and  C_2
REMARK    2  A    between atoms: C_2  and  C_3
REMARK    3  A    between atoms: C_5  and  N_6
REMARK    4  A    between atoms: N_6  and  C_7
REMARK    5  A    between atoms: C_11  and  C_12
REMARK    6  A    between atoms: C_12  and  C_13
REMARK    7  A    between atoms: C_13  and  N_14
REMARK    8  A    between atoms: N_14  and  C_15
REMARK    9  A    between atoms: C_18  and  C_19
REMARK                            x       y       z     vdW  Elec       q    Type
REMARK                         _______ _______ _______ _____ _____    ______ ____
ROOT
ATOM      1  C   UNL     1      44.848   4.941  12.084  0.00  0.00    +0.000 C 
ENDROOT
BRANCH   1   6
ATOM      2  C   UNL     1      47.037   7.831  13.349  0.00  0.00    +0.000 A 
ATOM      3  C   UNL     1      46.397   8.915  12.741  0.00  0.00    +0.000 A 
ATOM      4  C   UNL     1      45.292   8.721  11.909  0.00  0.00    +0.000 A 
ATOM      5  C   UNL     1      44.794   7.436  11.694  0.00  0.00    +0.000 A 
ATOM      6  C   UNL     1      45.400   6.333  12.304  0.00  0.00    +0.000 A 
ATOM      7  C   UNL     1      46.515   6.545  13.135  0.00  0.00    +0.000 A 
BRANCH   2   8
ATOM      8  N   UNL     1      48.109   8.006  14.242  0.00  0.00    +0.000 N 
ATOM      9  H   UNL     1      48.460   8.952  14.335  0.00  0.00    +0.000 HD
BRANCH   8  14
ATOM     10  C   UNL     1      48.576   8.055  17.254  0.00  0.00    +0.000 C 
ATOM     11  C   UNL     1      48.983   6.866  16.423  0.00  0.00    +0.000 C 
ATOM     12  C   UNL     1      48.788   5.534  17.102  0.00  0.00    +0.000 C 
ATOM     13  C   UNL     1      50.147   7.034  15.473  0.00  0.00    +0.000 C 
ATOM     14  C   UNL     1      48.753   6.893  14.928  0.00  0.00    +0.000 C 
ENDBRANCH   8  14
ENDBRANCH   2   8
ENDBRANCH   1   6
BRANCH   1  15
ATOM     15  C   UNL     1      43.529   4.944  11.301  0.00  0.00    +0.000 C 
BRANCH  15  16
ATOM     16  N   UNL     1      43.774   4.937   9.854  0.00  0.00    +0.000 N 
ATOM     17  H   UNL     1      43.931   5.860   9.451  0.00  0.00    +0.000 HD
BRANCH  16  18
ATOM     18  C   UNL     1      44.619   3.967   9.298  0.00  0.00    +0.000 A 
ATOM     19  C   UNL     1      44.487   2.601   9.559  0.00  0.00    +0.000 A 
ATOM     20  C   UNL     1      45.308   1.656   8.922  0.00  0.00    +0.000 A 
ATOM     21  C   UNL     1      46.245   2.059   7.974  0.00  0.00    +0.000 A 
ATOM     22  C   UNL     1      46.378   3.419   7.679  0.00  0.00    +0.000 A 
ATOM     23  C   UNL     1      45.563   4.356   8.335  0.00  0.00    +0.000 A 
BRANCH  21  24
ATOM     24  C   UNL     1      47.074   1.009   7.323  0.00  0.00    +0.000 C 
ATOM     25  N   UNL     1      46.828  -0.293   7.657  0.00  0.00    +0.000 N 
ATOM     26  O   UNL     1      47.978   1.295   6.546  0.00  0.00    +0.000 OA
ATOM     27  H   UNL     1      46.281  -0.549   8.466  0.00  0.00    +0.000 HD
ATOM     28  H   UNL     1      47.487  -0.972   7.301  0.00  0.00    +0.000 HD
ENDBRANCH  21  24
ENDBRANCH  16  18
ENDBRANCH  15  16
ENDBRANCH   1  15
TORSDOF 7
ENDMDL
MODEL 3
REMARK VINA RESULT:    -7.446      3.342      4.441
REMARK INTER + INTRA:         -11.456
REMARK INTER:                 -10.508
REMARK INTRA:                  -0.948
REMARK UNBOUND:                -0.963
REMARK  Name = 
REMARK  9 active torsions:
REMARK  status: ('A' for Active; 'I' for Inactive)
REMARK    1  A    between atoms: C_1  and  C_2
REMARK    2  A    between atoms: C_2  and  C_3
REMARK    3  A    between atoms: C_5  and  N_6
REMARK    4  A    between atoms: N_6  and  C_7
REMARK    5  A    between atoms: C_11  and  C_12
REMARK    6  A    between atoms: C_12  and  C_13
REMARK    7  A    between atoms: C_13  and  N_14
REMARK    8  A    between atoms: N_14  and  C_15
REMARK    9  A    between atoms: C_18  and  C_19
REMARK                            x       y       z     vdW  Elec       q    Type
REMARK                         _______ _______ _______ _____ _____    ______ ____
ROOT
ATOM      1  C   UNL     1      44.993   4.967  12.030  0.00  0.00    +0.000 C 
ENDROOT
BRANCH   1   6
ATOM      2  C   UNL     1      47.662   7.722  11.845  0.00  0.00    +0.000 A 
ATOM      3  C   UNL     1      46.955   8.793  12.401  0.00  0.00    +0.000 A 
ATOM      4  C   UNL     1      45.627   8.644  12.805  0.00  0.00    +0.000 A 
ATOM      5  C   UNL     1      44.992   7.409  12.681  0.00  0.00    +0.000 A 
ATOM      6  C   UNL     1      45.677   6.312  12.147  0.00  0.00    +0.000 A 
ATOM      7  C   UNL     1      47.014   6.481  11.741  0.00  0.00    +0.000 A 
BRANCH   2   8
ATOM      8  N   UNL     1      49.019   7.829  11.493  0.00  0.00    +0.000 N 
ATOM      9  H   UNL     1      49.371   7.119  10.862  0.00  0.00    +0.000 HD
BRANCH   8  14
ATOM     10  C   UNL     1      51.904   8.120  10.553  0.00  0.00    +0.000 C 
ATOM     11  C   UNL     1      51.336   9.029  11.612  0.00  0.00    +0.000 C 
ATOM     12  C   UNL     1      51.823  10.453  11.539  0.00  0.00    +0.000 C 
ATOM     13  C   UNL     1      51.038   8.430  12.968  0.00  0.00    +0.000 C 
ATOM     14  C   UNL     1      49.905   8.834  12.065  0.00  0.00    +0.000 C 
ENDBRANCH   8  14
ENDBRANCH   2   8
ENDBRANCH   1   6
BRANCH   1  15
ATOM     15  C   UNL     1      43.641   5.052  11.311  0.00  0.00    +0.000 C 
BRANCH  15  16
ATOM     16  N   UNL     1      43.811   4.980   9.855  0.00  0.00    +0.000 N 
ATOM     17  H   UNL     1      43.928   5.886   9.401  0.00  0.00    +0.000 HD
BRANCH  16  18
ATOM     18  C   UNL     1      44.645   4.000   9.302  0.00  0.00    +0.000 A 
ATOM     19  C   UNL     1      44.472   2.632   9.533  0.00  0.00    +0.000 A 
ATOM     20  C   UNL     1      45.284   1.679   8.898  0.00  0.00    +0.000 A 
ATOM     21  C   UNL     1      46.254   2.076   7.980  0.00  0.00    +0.000 A 
ATOM     22  C   UNL     1      46.428   3.437   7.715  0.00  0.00    +0.000 A 
ATOM     23  C   UNL     1      45.621   4.382   8.369  0.00  0.00    +0.000 A 
BRANCH  21  24
ATOM     24  C   UNL     1      47.072   1.017   7.330  0.00  0.00    +0.000 C 
ATOM     25  N   UNL     1      46.800  -0.284   7.651  0.00  0.00    +0.000 N 
ATOM     26  O   UNL     1      47.989   1.294   6.566  0.00  0.00    +0.000 OA
ATOM     27  H   UNL     1      46.240  -0.537   8.451  0.00  0.00    +0.000 HD
ATOM     28  H   UNL     1      47.451  -0.971   7.295  0.00  0.00    +0.000 HD
ENDBRANCH  21  24
ENDBRANCH  16  18
ENDBRANCH  15  16
ENDBRANCH   1  15
TORSDOF 7
ENDMDL
MODEL 4
REMARK VINA RESULT:    -7.276      2.206      4.114
REMARK INTER + INTRA:         -11.216
REMARK INTER:                 -10.312
REMARK INTRA:                  -0.904
REMARK UNBOUND:                -0.963
REMARK  Name = 
REMARK  9 active torsions:
REMARK  status: ('A' for Active; 'I' for Inactive)
REMARK    1  A    between atoms: C_1  and  C_2
REMARK    2  A    between atoms: C_2  and  C_3
REMARK    3  A    between atoms: C_5  and  N_6
REMARK    4  A    between atoms: N_6  and  C_7
REMARK    5  A    between atoms: C_11  and  C_12
REMARK    6  A    between atoms: C_12  and  C_13
REMARK    7  A    between atoms: C_13  and  N_14
REMARK    8  A    between atoms: N_14  and  C_15
REMARK    9  A    between atoms: C_18  and  C_19
REMARK                            x       y       z     vdW  Elec       q    Type
REMARK                         _______ _______ _______ _____ _____    ______ ____
ROOT
ATOM      1  C   UNL     1      45.264   3.383  12.234  0.00  0.00    +0.000 C 
ENDROOT
BRANCH   1   6
ATOM      2  C   UNL     1      47.100   6.689  12.909  0.00  0.00    +0.000 A 
ATOM      3  C   UNL     1      47.737   6.379  14.115  0.00  0.00    +0.000 A 
ATOM      4  C   UNL     1      47.558   5.135  14.722  0.00  0.00    +0.000 A 
ATOM      5  C   UNL     1      46.756   4.168  14.116  0.00  0.00    +0.000 A 
ATOM      6  C   UNL     1      46.120   4.439  12.900  0.00  0.00    +0.000 A 
ATOM      7  C   UNL     1      46.307   5.700  12.304  0.00  0.00    +0.000 A 
BRANCH   2   8
ATOM      8  N   UNL     1      47.315   7.908  12.245  0.00  0.00    +0.000 N 
ATOM      9  H   UNL     1      46.485   8.436  12.004  0.00  0.00    +0.000 HD
BRANCH   8  14
ATOM     10  C   UNL     1      48.931   9.853  13.948  0.00  0.00    +0.000 C 
ATOM     11  C   UNL     1      49.485   9.304  12.659  0.00  0.00    +0.000 C 
ATOM     12  C   UNL     1      50.965   9.021  12.685  0.00  0.00    +0.000 C 
ATOM     13  C   UNL     1      48.856   9.771  11.366  0.00  0.00    +0.000 C 
ATOM     14  C   UNL     1      48.639   8.358  11.833  0.00  0.00    +0.000 C 
ENDBRANCH   8  14
ENDBRANCH   2   8
ENDBRANCH   1   6
BRANCH   1  15
ATOM     15  C   UNL     1      43.838   3.871  11.949  0.00  0.00    +0.000 C 
BRANCH  15  16
ATOM     16  N   UNL     1      43.563   3.883  10.507  0.00  0.00    +0.000 N 
ATOM     17  H   UNL     1      43.059   4.709  10.184  0.00  0.00    +0.000 HD
BRANCH  16  18
ATOM     18  C   UNL     1      44.560   3.486   9.607  0.00  0.00    +0.000 A 
ATOM     19  C   UNL     1      44.843   2.147   9.325  0.00  0.00    +0.000 A 
ATOM     20  C   UNL     1      45.800   1.794   8.359  0.00  0.00    +0.000 A 
ATOM     21  C   UNL     1      46.456   2.776   7.622  0.00  0.00    +0.000 A 
ATOM     22  C   UNL     1      46.170   4.122   7.870  0.00  0.00    +0.000 A 
ATOM     23  C   UNL     1      45.223   4.463   8.850  0.00  0.00    +0.000 A 
BRANCH  21  24
ATOM     24  C   UNL     1      47.447   2.337   6.603  0.00  0.00    +0.000 C 
ATOM     25  N   UNL     1      47.428   2.962   5.387  0.00  0.00    +0.000 N 
ATOM     26  O   UNL     1      48.228   1.419   6.822  0.00  0.00    +0.000 OA
ATOM     27  H   UNL     1      46.651   3.530   5.084  0.00  0.00    +0.000 HD
ATOM     28  H   UNL     1      48.022   2.558   4.675  0.00  0.00    +0.000 HD
ENDBRANCH  21  24
ENDBRANCH  16  18
ENDBRANCH  15  16
ENDBRANCH   1  15
TORSDOF 7
ENDMDL
MODEL 5
REMARK VINA RESULT:    -7.262      2.991      3.613
REMARK INTER + INTRA:         -11.197
REMARK INTER:                 -10.263
REMARK INTRA:                  -0.934
REMARK UNBOUND:                -0.963
REMARK  Name = 
REMARK  9 active torsions:
REMARK  status: ('A' for Active; 'I' for Inactive)
REMARK    1  A    between atoms: C_1  and  C_2
REMARK    2  A    between atoms: C_2  and  C_3
REMARK    3  A    between atoms: C_5  and  N_6
REMARK    4  A    between atoms: N_6  and  C_7
REMARK    5  A    between atoms: C_11  and  C_12
REMARK    6  A    between atoms: C_12  and  C_13
REMARK    7  A    between atoms: C_13  and  N_14
REMARK    8  A    between atoms: N_14  and  C_15
REMARK    9  A    between atoms: C_18  and  C_19
REMARK                            x       y       z     vdW  Elec       q    Type
REMARK                         _______ _______ _______ _____ _____    ______ ____
ROOT
ATOM      1  C   UNL     1      45.639   5.461  11.559  0.00  0.00    +0.000 C 
ENDROOT
BRANCH   1   6
ATOM      2  C   UNL     1      47.360   8.805  12.338  0.00  0.00    +0.000 A 
ATOM      3  C   UNL     1      46.285   9.684  12.173  0.00  0.00    +0.000 A 
ATOM      4  C   UNL     1      45.028   9.216  11.787  0.00  0.00    +0.000 A 
ATOM      5  C   UNL     1      44.820   7.851  11.586  0.00  0.00    +0.000 A 
ATOM      6  C   UNL     1      45.870   6.943  11.761  0.00  0.00    +0.000 A 
ATOM      7  C   UNL     1      47.131   7.433  12.145  0.00  0.00    +0.000 A 
BRANCH   2   8
ATOM      8  N   UNL     1      48.617   9.243  12.788  0.00  0.00    +0.000 N 
ATOM      9  H   UNL     1      49.377   9.177  12.121  0.00  0.00    +0.000 HD
BRANCH   8  14
ATOM     10  C   UNL     1      50.320   7.593  14.704  0.00  0.00    +0.000 C 
ATOM     11  C   UNL     1      49.713   8.903  15.135  0.00  0.00    +0.000 C 
ATOM     12  C   UNL     1      50.584   9.723  16.051  0.00  0.00    +0.000 C 
ATOM     13  C   UNL     1      48.214   8.961  15.312  0.00  0.00    +0.000 C 
ATOM     14  C   UNL     1      48.856   9.679  14.158  0.00  0.00    +0.000 C 
ENDBRANCH   8  14
ENDBRANCH   2   8
ENDBRANCH   1   6
BRANCH   1  15
ATOM     15  C   UNL     1      44.155   5.110  11.400  0.00  0.00    +0.000 C 
BRANCH  15  16
ATOM     16  N   UNL     1      43.817   4.870   9.991  0.00  0.00    +0.000 N 
ATOM     17  H   UNL     1      43.526   5.705   9.482  0.00  0.00    +0.000 HD
BRANCH  16  18
ATOM     18  C   UNL     1      44.630   4.034   9.216  0.00  0.00    +0.000 A 
ATOM     19  C   UNL     1      45.578   4.519   8.310  0.00  0.00    +0.000 A 
ATOM     20  C   UNL     1      46.425   3.646   7.607  0.00  0.00    +0.000 A 
ATOM     21  C   UNL     1      46.372   2.273   7.836  0.00  0.00    +0.000 A 
ATOM     22  C   UNL     1      45.449   1.768   8.756  0.00  0.00    +0.000 A 
ATOM     23  C   UNL     1      44.595   2.649   9.440  0.00  0.00    +0.000 A 
BRANCH  21  24
ATOM     24  C   UNL     1      47.306   1.403   7.072  0.00  0.00    +0.000 C 
ATOM     25  N   UNL     1      48.379   1.998   6.469  0.00  0.00    +0.000 N 
ATOM     26  O   UNL     1      47.104   0.201   6.945  0.00  0.00    +0.000 OA
ATOM     27  H   UNL     1      48.439   2.996   6.335  0.00  0.00    +0.000 HD
ATOM     28  H   UNL     1      48.922   1.407   5.853  0.00  0.00    +0.000 HD
ENDBRANCH  21  24
ENDBRANCH  16  18
ENDBRANCH  15  16
ENDBRANCH   1  15
TORSDOF 7
ENDMDL
MODEL 6
REMARK VINA RESULT:    -7.031      3.333      8.587
REMARK INTER + INTRA:         -10.871
REMARK INTER:                 -10.071
REMARK INTRA:                  -0.800
REMARK UNBOUND:                -0.963
REMARK  Name = 
REMARK  9 active torsions:
REMARK  status: ('A' for Active; 'I' for Inactive)
REMARK    1  A    between atoms: C_1  and  C_2
REMARK    2  A    between atoms: C_2  and  C_3
REMARK    3  A    between atoms: C_5  and  N_6
REMARK    4  A    between atoms: N_6  and  C_7
REMARK    5  A    between atoms: C_11  and  C_12
REMARK    6  A    between atoms: C_12  and  C_13
REMARK    7  A    between atoms: C_13  and  N_14
REMARK    8  A    between atoms: N_14  and  C_15
REMARK    9  A    between atoms: C_18  and  C_19
REMARK                            x       y       z     vdW  Elec       q    Type
REMARK                         _______ _______ _______ _____ _____    ______ ____
ROOT
ATOM      1  C   UNL     1      46.128   3.495  13.256  0.00  0.00    +0.000 C 
ENDROOT
BRANCH   1   6
ATOM      2  C   UNL     1      44.439   3.573   9.808  0.00  0.00    +0.000 A 
ATOM      3  C   UNL     1      43.608   4.687   9.961  0.00  0.00    +0.000 A 
ATOM      4  C   UNL     1      43.566   5.390  11.167  0.00  0.00    +0.000 A 
ATOM      5  C   UNL     1      44.378   5.003  12.232  0.00  0.00    +0.000 A 
ATOM      6  C   UNL     1      45.234   3.904  12.105  0.00  0.00    +0.000 A 
ATOM      7  C   UNL     1      45.261   3.204  10.885  0.00  0.00    +0.000 A 
BRANCH   2   8
ATOM      8  N   UNL     1      44.547   2.889   8.585  0.00  0.00    +0.000 N 
ATOM      9  H   UNL     1      44.129   1.966   8.552  0.00  0.00    +0.000 HD
BRANCH   8  14
ATOM     10  C   UNL     1      47.063   1.502   7.563  0.00  0.00    +0.000 C 
ATOM     11  C   UNL     1      46.536   2.747   6.897  0.00  0.00    +0.000 C 
ATOM     12  C   UNL     1      46.685   2.763   5.397  0.00  0.00    +0.000 C 
ATOM     13  C   UNL     1      46.644   4.051   7.653  0.00  0.00    +0.000 C 
ATOM     14  C   UNL     1      45.296   3.416   7.451  0.00  0.00    +0.000 C 
ENDBRANCH   8  14
ENDBRANCH   2   8
ENDBRANCH   1   6
BRANCH   1  15
ATOM     15  C   UNL     1      46.613   4.692  14.082  0.00  0.00    +0.000 C 
BRANCH  15  16
ATOM     16  N   UNL     1      46.622   4.376  15.516  0.00  0.00    +0.000 N 
ATOM     17  H   UNL     1      45.940   3.670  15.793  0.00  0.00    +0.000 HD
BRANCH  16  18
ATOM     18  C   UNL     1      47.843   4.224  16.185  0.00  0.00    +0.000 A 
ATOM     19  C   UNL     1      48.621   5.305  16.607  0.00  0.00    +0.000 A 
ATOM     20  C   UNL     1      49.802   5.108  17.342  0.00  0.00    +0.000 A 
ATOM     21  C   UNL     1      50.200   3.825  17.710  0.00  0.00    +0.000 A 
ATOM     22  C   UNL     1      49.423   2.731  17.320  0.00  0.00    +0.000 A 
ATOM     23  C   UNL     1      48.254   2.939  16.571  0.00  0.00    +0.000 A 
BRANCH  21  24
ATOM     24  C   UNL     1      51.452   3.684  18.501  0.00  0.00    +0.000 C 
ATOM     25  N   UNL     1      52.199   2.556  18.313  0.00  0.00    +0.000 N 
ATOM     26  O   UNL     1      51.787   4.526  19.327  0.00  0.00    +0.000 OA
ATOM     27  H   UNL     1      51.836   1.738  17.845  0.00  0.00    +0.000 HD
ATOM     28  H   UNL     1      52.972   2.427  18.952  0.00  0.00    +0.000 HD
ENDBRANCH  21  24
ENDBRANCH  16  18
ENDBRANCH  15  16
ENDBRANCH   1  15
TORSDOF 7
ENDMDL
MODEL 7
REMARK VINA RESULT:    -6.803      2.710      7.750
REMARK INTER + INTRA:         -10.550
REMARK INTER:                 -10.059
REMARK INTRA:                  -0.491
REMARK UNBOUND:                -0.963
REMARK  Name = 
REMARK  9 active torsions:
REMARK  status: ('A' for Active; 'I' for Inactive)
REMARK    1  A    between atoms: C_1  and  C_2
REMARK    2  A    between atoms: C_2  and  C_3
REMARK    3  A    between atoms: C_5  and  N_6
REMARK    4  A    between atoms: N_6  and  C_7
REMARK    5  A    between atoms: C_11  and  C_12
REMARK    6  A    between atoms: C_12  and  C_13
REMARK    7  A    between atoms: C_13  and  N_14
REMARK    8  A    between atoms: N_14  and  C_15
REMARK    9  A    between atoms: C_18  and  C_19
REMARK                            x       y       z     vdW  Elec       q    Type
REMARK                         _______ _______ _______ _____ _____    ______ ____
ROOT
ATOM      1  C   UNL     1      45.486   6.762  11.390  0.00  0.00    +0.000 C 
ENDROOT
BRANCH   1   6
ATOM      2  C   UNL     1      44.641   3.379   9.780  0.00  0.00    +0.000 A 
ATOM      3  C   UNL     1      43.707   2.891  10.700  0.00  0.00    +0.000 A 
ATOM      4  C   UNL     1      43.373   3.623  11.840  0.00  0.00    +0.000 A 
ATOM      5  C   UNL     1      43.950   4.872  12.065  0.00  0.00    +0.000 A 
ATOM      6  C   UNL     1      44.873   5.398  11.155  0.00  0.00    +0.000 A 
ATOM      7  C   UNL     1      45.203   4.645  10.013  0.00  0.00    +0.000 A 
BRANCH   2   8
ATOM      8  N   UNL     1      44.945   2.691   8.593  0.00  0.00    +0.000 N 
ATOM      9  H   UNL     1      44.778   1.692   8.602  0.00  0.00    +0.000 HD
BRANCH   8  14
ATOM     10  C   UNL     1      47.413   1.525   7.236  0.00  0.00    +0.000 C 
ATOM     11  C   UNL     1      46.765   2.784   6.722  0.00  0.00    +0.000 C 
ATOM     12  C   UNL     1      46.769   2.920   5.221  0.00  0.00    +0.000 C 
ATOM     13  C   UNL     1      46.884   4.033   7.565  0.00  0.00    +0.000 C 
ATOM     14  C   UNL     1      45.555   3.341   7.440  0.00  0.00    +0.000 C 
ENDBRANCH   8  14
ENDBRANCH   2   8
ENDBRANCH   1   6
BRANCH   1  15
ATOM     15  C   UNL     1      46.989   6.692  11.687  0.00  0.00    +0.000 C 
BRANCH  15  16
ATOM     16  N   UNL     1      47.273   7.099  13.069  0.00  0.00    +0.000 N 
ATOM     17  H   UNL     1      46.746   7.913  13.382  0.00  0.00    +0.000 HD
BRANCH  16  18
ATOM     18  C   UNL     1      47.389   6.126  14.069  0.00  0.00    +0.000 A 
ATOM     19  C   UNL     1      46.868   4.835  13.941  0.00  0.00    +0.000 A 
ATOM     20  C   UNL     1      47.072   3.866  14.938  0.00  0.00    +0.000 A 
ATOM     21  C   UNL     1      47.843   4.159  16.060  0.00  0.00    +0.000 A 
ATOM     22  C   UNL     1      48.394   5.436  16.197  0.00  0.00    +0.000 A 
ATOM     23  C   UNL     1      48.170   6.401  15.202  0.00  0.00    +0.000 A 
BRANCH  21  24
ATOM     24  C   UNL     1      48.035   3.085  17.072  0.00  0.00    +0.000 C 
ATOM     25  N   UNL     1      46.947   2.703  17.806  0.00  0.00    +0.000 N 
ATOM     26  O   UNL     1      49.135   2.586  17.278  0.00  0.00    +0.000 OA
ATOM     27  H   UNL     1      46.102   3.254  17.849  0.00  0.00    +0.000 HD
ATOM     28  H   UNL     1      47.133   2.067  18.571  0.00  0.00    +0.000 HD
ENDBRANCH  21  24
ENDBRANCH  16  18
ENDBRANCH  15  16
ENDBRANCH   1  15
TORSDOF 7
ENDMDL
MODEL 8
REMARK VINA RESULT:    -6.497      3.959      7.483
REMARK INTER + INTRA:         -10.119
REMARK INTER:                  -9.753
REMARK INTRA:                  -0.366
REMARK UNBOUND:                -0.963
REMARK  Name = 
REMARK  9 active torsions:
REMARK  status: ('A' for Active; 'I' for Inactive)
REMARK    1  A    between atoms: C_1  and  C_2
REMARK    2  A    between atoms: C_2  and  C_3
REMARK    3  A    between atoms: C_5  and  N_6
REMARK    4  A    between atoms: N_6  and  C_7
REMARK    5  A    between atoms: C_11  and  C_12
REMARK    6  A    between atoms: C_12  and  C_13
REMARK    7  A    between atoms: C_13  and  N_14
REMARK    8  A    between atoms: N_14  and  C_15
REMARK    9  A    between atoms: C_18  and  C_19
REMARK                            x       y       z     vdW  Elec       q    Type
REMARK                         _______ _______ _______ _____ _____    ______ ____
ROOT
ATOM      1  C   UNL     1      45.367   6.687  11.431  0.00  0.00    +0.000 C 
ENDROOT
BRANCH   1   6
ATOM      2  C   UNL     1      44.522   3.423   9.593  0.00  0.00    +0.000 A 
ATOM      3  C   UNL     1      44.049   2.651  10.659  0.00  0.00    +0.000 A 
ATOM      4  C   UNL     1      44.028   3.160  11.959  0.00  0.00    +0.000 A 
ATOM      5  C   UNL     1      44.457   4.463  12.209  0.00  0.00    +0.000 A 
ATOM      6  C   UNL     1      44.918   5.267  11.162  0.00  0.00    +0.000 A 
ATOM      7  C   UNL     1      44.937   4.738   9.859  0.00  0.00    +0.000 A 
BRANCH   2   8
ATOM      8  N   UNL     1      44.492   2.958   8.267  0.00  0.00    +0.000 N 
ATOM      9  H   UNL     1      43.847   2.200   8.076  0.00  0.00    +0.000 HD
BRANCH   8  14
ATOM     10  C   UNL     1      46.964   1.383   7.428  0.00  0.00    +0.000 C 
ATOM     11  C   UNL     1      46.619   2.696   6.773  0.00  0.00    +0.000 C 
ATOM     12  C   UNL     1      46.918   2.755   5.297  0.00  0.00    +0.000 C 
ATOM     13  C   UNL     1      46.766   3.955   7.597  0.00  0.00    +0.000 C 
ATOM     14  C   UNL     1      45.394   3.456   7.237  0.00  0.00    +0.000 C 
ENDBRANCH   8  14
ENDBRANCH   2   8
ENDBRANCH   1   6
BRANCH   1  15
ATOM     15  C   UNL     1      45.168   7.104  12.893  0.00  0.00    +0.000 C 
BRANCH  15  16
ATOM     16  N   UNL     1      46.074   8.199  13.259  0.00  0.00    +0.000 N 
ATOM     17  H   UNL     1      46.092   8.413  14.256  0.00  0.00    +0.000 HD
BRANCH  16  18
ATOM     18  C   UNL     1      47.348   8.267  12.681  0.00  0.00    +0.000 A 
ATOM     19  C   UNL     1      47.827   9.403  12.023  0.00  0.00    +0.000 A 
ATOM     20  C   UNL     1      49.140   9.456  11.524  0.00  0.00    +0.000 A 
ATOM     21  C   UNL     1      50.012   8.388  11.718  0.00  0.00    +0.000 A 
ATOM     22  C   UNL     1      49.562   7.251  12.395  0.00  0.00    +0.000 A 
ATOM     23  C   UNL     1      48.243   7.204  12.875  0.00  0.00    +0.000 A 
BRANCH  21  24
ATOM     24  C   UNL     1      51.394   8.511  11.179  0.00  0.00    +0.000 C 
ATOM     25  N   UNL     1      52.351   7.678  11.687  0.00  0.00    +0.000 N 
ATOM     26  O   UNL     1      51.681   9.356  10.339  0.00  0.00    +0.000 OA
ATOM     27  H   UNL     1      52.217   7.158  12.542  0.00  0.00    +0.000 HD
ATOM     28  H   UNL     1      53.301   7.870  11.397  0.00  0.00    +0.000 HD
ENDBRANCH  21  24
ENDBRANCH  16  18
ENDBRANCH  15  16
ENDBRANCH   1  15
TORSDOF 7
ENDMDL
MODEL 9
REMARK VINA RESULT:    -6.373      2.494      3.215
REMARK INTER + INTRA:          -9.943
REMARK INTER:                  -9.319
REMARK INTRA:                  -0.624
REMARK UNBOUND:                -0.963
REMARK  Name = 
REMARK  9 active torsions:
REMARK  status: ('A' for Active; 'I' for Inactive)
REMARK    1  A    between atoms: C_1  and  C_2
REMARK    2  A    between atoms: C_2  and  C_3
REMARK    3  A    between atoms: C_5  and  N_6
REMARK    4  A    between atoms: N_6  and  C_7
REMARK    5  A    between atoms: C_11  and  C_12
REMARK    6  A    between atoms: C_12  and  C_13
REMARK    7  A    between atoms: C_13  and  N_14
REMARK    8  A    between atoms: N_14  and  C_15
REMARK    9  A    between atoms: C_18  and  C_19
REMARK                            x       y       z     vdW  Elec       q    Type
REMARK                         _______ _______ _______ _____ _____    ______ ____
ROOT
ATOM      1  C   UNL     1      45.931   5.186  11.783  0.00  0.00    +0.000 C 
ENDROOT
BRANCH   1   6
ATOM      2  C   UNL     1      47.993   6.318  14.818  0.00  0.00    +0.000 A 
ATOM      3  C   UNL     1      47.920   5.170  15.613  0.00  0.00    +0.000 A 
ATOM      4  C   UNL     1      47.193   4.053  15.195  0.00  0.00    +0.000 A 
ATOM      5  C   UNL     1      46.547   4.060  13.959  0.00  0.00    +0.000 A 
ATOM      6  C   UNL     1      46.617   5.186  13.132  0.00  0.00    +0.000 A 
ATOM      7  C   UNL     1      47.350   6.304  13.570  0.00  0.00    +0.000 A 
BRANCH   2   8
ATOM      8  N   UNL     1      48.772   7.428  15.186  0.00  0.00    +0.000 N 
ATOM      9  H   UNL     1      48.556   8.299  14.714  0.00  0.00    +0.000 HD
BRANCH   8  14
ATOM     10  C   UNL     1      50.673   9.772  15.623  0.00  0.00    +0.000 C 
ATOM     11  C   UNL     1      50.845   8.479  16.379  0.00  0.00    +0.000 C 
ATOM     12  C   UNL     1      51.303   8.646  17.805  0.00  0.00    +0.000 C 
ATOM     13  C   UNL     1      51.304   7.265  15.605  0.00  0.00    +0.000 C 
ATOM     14  C   UNL     1      49.892   7.334  16.114  0.00  0.00    +0.000 C 
ENDBRANCH   8  14
ENDBRANCH   2   8
ENDBRANCH   1   6
BRANCH   1  15
ATOM     15  C   UNL     1      44.543   4.534  11.824  0.00  0.00    +0.000 C 
BRANCH  15  16
ATOM     16  N   UNL     1      43.997   4.367  10.472  0.00  0.00    +0.000 N 
ATOM     17  H   UNL     1      43.446   5.160  10.142  0.00  0.00    +0.000 HD
BRANCH  16  18
ATOM     18  C   UNL     1      44.801   3.825   9.461  0.00  0.00    +0.000 A 
ATOM     19  C   UNL     1      45.538   4.609   8.570  0.00  0.00    +0.000 A 
ATOM     20  C   UNL     1      46.391   4.023   7.619  0.00  0.00    +0.000 A 
ATOM     21  C   UNL     1      46.557   2.641   7.576  0.00  0.00    +0.000 A 
ATOM     22  C   UNL     1      45.847   1.839   8.474  0.00  0.00    +0.000 A 
ATOM     23  C   UNL     1      44.985   2.435   9.409  0.00  0.00    +0.000 A 
BRANCH  21  24
ATOM     24  C   UNL     1      47.485   2.083   6.556  0.00  0.00    +0.000 C 
ATOM     25  N   UNL     1      47.810   2.875   5.491  0.00  0.00    +0.000 N 
ATOM     26  O   UNL     1      47.913   0.937   6.637  0.00  0.00    +0.000 OA
ATOM     27  H   UNL     1      47.289   3.708   5.258  0.00  0.00    +0.000 HD
ATOM     28  H   UNL     1      48.336   2.427   4.753  0.00  0.00    +0.000 HD
ENDBRANCH  21  24
ENDBRANCH  16  18
ENDBRANCH  15  16
ENDBRANCH   1  15
TORSDOF 7
ENDMDL
