MODEL 1
REMARK VINA RESULT:    -8.211      0.000      0.000
REMARK INTER + INTRA:         -12.294
REMARK INTER:                 -11.091
REMARK INTRA:                  -1.203
REMARK UNBOUND:                -1.203
REMARK  Name = 
REMARK  9 active torsions:
REMARK  status: ('A' for Active; 'I' for Inactive)
REMARK    1  A    between atoms: C_1  and  O_2
REMARK    2  A    between atoms: O_2  and  C_3
REMARK    3  A    between atoms: C_6  and  O_7
REMARK    4  A    between atoms: O_7  and  C_8
REMARK    5  A    between atoms: C_8  and  C_9
REMARK    6  A    between atoms: C_9  and  C_10
REMARK    7  A    between atoms: C_9  and  C_11
REMARK    8  A    between atoms: C_9  and  C_12
REMARK    9  A    between atoms: C_16  and  C_17
REMARK                            x       y       z     vdW  Elec       q    Type
REMARK                         _______ _______ _______ _____ _____    ______ ____
ROOT
ATOM      1  C   UNL     1      43.924   4.575  11.894  0.00  0.00    +0.000 C 
ATOM      2  C   UNL     1      42.805   5.452  12.502  0.00  0.00    +0.000 C 
ATOM      3  C   UNL     1      43.757   3.122  12.395  0.00  0.00    +0.000 C 
ENDROOT
BRANCH   1   4
ATOM      4  C   UNL     1      45.291   5.124  12.351  0.00  0.00    +0.000 A 
ATOM      5  C   UNL     1      45.992   6.046  11.558  0.00  0.00    +0.000 A 
ATOM      6  C   UNL     1      47.208   6.582  11.981  0.00  0.00    +0.000 A 
ATOM      7  C   UNL     1      47.736   6.234  13.225  0.00  0.00    +0.000 A 
ATOM      8  C   UNL     1      47.076   5.325  14.064  0.00  0.00    +0.000 A 
ATOM      9  C   UNL     1      45.879   4.757  13.577  0.00  0.00    +0.000 A 
BRANCH   8  10
ATOM     10  C   UNL     1      47.577   4.998  15.423  0.00  0.00    +0.000 A 
ATOM     11  C   UNL     1      47.082   3.891  16.135  0.00  0.00    +0.000 A 
ATOM     12  C   UNL     1      47.559   3.621  17.410  0.00  0.00    +0.000 A 
ATOM     13  N   UNL     1      48.480   4.374  18.039  0.00  0.00    +0.000 NA
ATOM     14  C   UNL     1      48.946   5.439  17.358  0.00  0.00    +0.000 A 
ATOM     15  C   UNL     1      48.539   5.779  16.074  0.00  0.00    +0.000 A 
ENDBRANCH   8  10
ENDBRANCH   1   4
BRANCH   1  16
ATOM     16  C   UNL     1      43.705   4.573  10.349  0.00  0.00    +0.000 C 
BRANCH  16  17
ATOM     17  O   UNL     1      43.830   3.248   9.814  0.00  0.00    +0.000 OA
BRANCH  17  21
ATOM     18  C   UNL     1      46.968   2.285   7.234  0.00  0.00    +0.000 A 
ATOM     19  C   UNL     1      46.559   3.615   7.328  0.00  0.00    +0.000 A 
ATOM     20  C   UNL     1      45.517   3.979   8.188  0.00  0.00    +0.000 A 
ATOM     21  C   UNL     1      44.874   3.016   8.964  0.00  0.00    +0.000 A 
ATOM     22  C   UNL     1      45.293   1.687   8.884  0.00  0.00    +0.000 A 
ATOM     23  C   UNL     1      46.334   1.323   8.025  0.00  0.00    +0.000 A 
BRANCH  18  25
ATOM     24  C   UNL     1      47.990   2.332   5.096  0.00  0.00    +0.000 C 
ATOM     25  O   UNL     1      47.955   1.809   6.418  0.00  0.00    +0.000 OA
ENDBRANCH  18  25
ENDBRANCH  17  21
ENDBRANCH  16  17
ENDBRANCH   1  16
TORSDOF 6
ENDMDL
MODEL 2
REMARK VINA RESULT:    -7.893      2.326      3.659
REMARK INTER + INTRA:         -11.864
REMARK INTER:                 -10.760
REMARK INTRA:                  -1.105
REMARK UNBOUND:                -1.203
REMARK  Name = 
REMARK  9 active torsions:
REMARK  status: ('A' for Active; 'I' for Inactive)
REMARK    1  A    between atoms: C_1  and  O_2
REMARK    2  A    between atoms: O_2  and  C_3
REMARK    3  A    between atoms: C_6  and  O_7
REMARK    4  A    between atoms: O_7  and  C_8
REMARK    5  A    between atoms: C_8  and  C_9
REMARK    6  A    between atoms: C_9  and  C_10
REMARK    7  A    between atoms: C_9  and  C_11
REMARK    8  A    between atoms: C_9  and  C_12
REMARK    9  A    between atoms: C_16  and  C_17
REMARK                            x       y       z     vdW  Elec       q    Type
REMARK                         _______ _______ _______ _____ _____    ______ ____
ROOT
ATOM      1  C   UNL     1      43.794   4.491  11.848  0.00  0.00    +0.000 C 
ATOM      2  C   UNL     1      42.578   5.289  12.372  0.00  0.00    +0.000 C 
ATOM      3  C   UNL     1      43.644   3.010  12.263  0.00  0.00    +0.000 C 
ENDROOT
BRANCH   1   4
ATOM      4  C   UNL     1      45.079   5.075  12.472  0.00  0.00    +0.000 A 
ATOM      5  C   UNL     1      45.875   4.296  13.325  0.00  0.00    +0.000 A 
ATOM      6  C   UNL     1      47.060   4.798  13.861  0.00  0.00    +0.000 A 
ATOM      7  C   UNL     1      47.496   6.082  13.528  0.00  0.00    +0.000 A 
ATOM      8  C   UNL     1      46.745   6.903  12.674  0.00  0.00    +0.000 A 
ATOM      9  C   UNL     1      45.522   6.383  12.199  0.00  0.00    +0.000 A 
BRANCH   8  10
ATOM     10  C   UNL     1      47.223   8.241  12.242  0.00  0.00    +0.000 A 
ATOM     11  C   UNL     1      46.357   9.348  12.206  0.00  0.00    +0.000 A 
ATOM     12  C   UNL     1      46.831  10.581  11.784  0.00  0.00    +0.000 A 
ATOM     13  N   UNL     1      48.096  10.799  11.381  0.00  0.00    +0.000 NA
ATOM     14  C   UNL     1      48.922   9.735  11.409  0.00  0.00    +0.000 A 
ATOM     15  C   UNL     1      48.542   8.466  11.829  0.00  0.00    +0.000 A 
ENDBRANCH   8  10
ENDBRANCH   1   4
BRANCH   1  16
ATOM     16  C   UNL     1      43.737   4.556  10.290  0.00  0.00    +0.000 C 
BRANCH  16  17
ATOM     17  O   UNL     1      43.852   3.247   9.717  0.00  0.00    +0.000 OA
BRANCH  17  21
ATOM     18  C   UNL     1      47.071   2.286   7.238  0.00  0.00    +0.000 A 
ATOM     19  C   UNL     1      46.700   3.623   7.368  0.00  0.00    +0.000 A 
ATOM     20  C   UNL     1      45.632   3.986   8.196  0.00  0.00    +0.000 A 
ATOM     21  C   UNL     1      44.925   3.015   8.904  0.00  0.00    +0.000 A 
ATOM     22  C   UNL     1      45.307   1.677   8.788  0.00  0.00    +0.000 A 
ATOM     23  C   UNL     1      46.374   1.314   7.961  0.00  0.00    +0.000 A 
BRANCH  18  25
ATOM     24  C   UNL     1      48.073   2.239   5.090  0.00  0.00    +0.000 C 
ATOM     25  O   UNL     1      48.079   1.810   6.447  0.00  0.00    +0.000 OA
ENDBRANCH  18  25
ENDBRANCH  17  21
ENDBRANCH  16  17
ENDBRANCH   1  16
TORSDOF 6
ENDMDL
MODEL 3
REMARK VINA RESULT:    -6.269      3.499      8.083
REMARK INTER + INTRA:          -9.670
REMARK INTER:                  -8.717
REMARK INTRA:                  -0.953
REMARK UNBOUND:                -1.203
REMARK  Name = 
REMARK  9 active torsions:
REMARK  status: ('A' for Active; 'I' for Inactive)
REMARK    1  A    between atoms: C_1  and  O_2
REMARK    2  A    between atoms: O_2  and  C_3
REMARK    3  A    between atoms: C_6  and  O_7
REMARK    4  A    between atoms: O_7  and  C_8
REMARK    5  A    between atoms: C_8  and  C_9
REMARK    6  A    between atoms: C_9  and  C_10
REMARK    7  A    between atoms: C_9  and  C_11
REMARK    8  A    between atoms: C_9  and  C_12
REMARK    9  A    between atoms: C_16  and  C_17
REMARK                            x       y       z     vdW  Elec       q    Type
REMARK                         _______ _______ _______ _____ _____    ______ ____
ROOT
ATOM      1  C   UNL     1      46.502   7.508  12.144  0.00  0.00    +0.000 C 
ATOM      2  C   UNL     1      45.868   8.916  12.079  0.00  0.00    +0.000 C 
ATOM      3  C   UNL     1      47.832   7.516  11.356  0.00  0.00    +0.000 C 
ENDROOT
BRANCH   1   4
ATOM      4  C   UNL     1      45.530   6.494  11.505  0.00  0.00    +0.000 A 
ATOM      5  C   UNL     1      44.151   6.574  11.754  0.00  0.00    +0.000 A 
ATOM      6  C   UNL     1      43.259   5.690  11.149  0.00  0.00    +0.000 A 
ATOM      7  C   UNL     1      43.721   4.725  10.253  0.00  0.00    +0.000 A 
ATOM      8  C   UNL     1      45.087   4.604   9.960  0.00  0.00    +0.000 A 
ATOM      9  C   UNL     1      45.966   5.476  10.636  0.00  0.00    +0.000 A 
BRANCH   8  10
ATOM     10  C   UNL     1      45.596   3.639   8.952  0.00  0.00    +0.000 A 
ATOM     11  C   UNL     1      46.174   4.079   7.748  0.00  0.00    +0.000 A 
ATOM     12  C   UNL     1      46.626   3.152   6.820  0.00  0.00    +0.000 A 
ATOM     13  N   UNL     1      46.537   1.820   6.989  0.00  0.00    +0.000 NA
ATOM     14  C   UNL     1      45.977   1.401   8.140  0.00  0.00    +0.000 A 
ATOM     15  C   UNL     1      45.508   2.253   9.133  0.00  0.00    +0.000 A 
ENDBRANCH   8  10
ENDBRANCH   1   4
BRANCH   1  16
ATOM     16  C   UNL     1      46.839   7.235  13.643  0.00  0.00    +0.000 C 
BRANCH  16  17
ATOM     17  O   UNL     1      47.614   6.037  13.784  0.00  0.00    +0.000 OA
BRANCH  17  21
ATOM     18  C   UNL     1      48.261   4.478  17.603  0.00  0.00    +0.000 A 
ATOM     19  C   UNL     1      48.892   5.669  17.248  0.00  0.00    +0.000 A 
ATOM     20  C   UNL     1      48.693   6.229  15.981  0.00  0.00    +0.000 A 
ATOM     21  C   UNL     1      47.860   5.601  15.056  0.00  0.00    +0.000 A 
ATOM     22  C   UNL     1      47.214   4.418  15.415  0.00  0.00    +0.000 A 
ATOM     23  C   UNL     1      47.412   3.859  16.681  0.00  0.00    +0.000 A 
BRANCH  18  25
ATOM     24  C   UNL     1      48.977   4.574  19.861  0.00  0.00    +0.000 C 
ATOM     25  O   UNL     1      48.394   3.829  18.798  0.00  0.00    +0.000 OA
ENDBRANCH  18  25
ENDBRANCH  17  21
ENDBRANCH  16  17
ENDBRANCH   1  16
TORSDOF 6
ENDMDL
MODEL 4
REMARK VINA RESULT:    -6.188      4.210      7.584
REMARK INTER + INTRA:          -9.562
REMARK INTER:                  -8.674
REMARK INTRA:                  -0.888
REMARK UNBOUND:                -1.203
REMARK  Name = 
REMARK  9 active torsions:
REMARK  status: ('A' for Active; 'I' for Inactive)
REMARK    1  A    between atoms: C_1  and  O_2
REMARK    2  A    between atoms: O_2  and  C_3
REMARK    3  A    between atoms: C_6  and  O_7
REMARK    4  A    between atoms: O_7  and  C_8
REMARK    5  A    between atoms: C_8  and  C_9
REMARK    6  A    between atoms: C_9  and  C_10
REMARK    7  A    between atoms: C_9  and  C_11
REMARK    8  A    between atoms: C_9  and  C_12
REMARK    9  A    between atoms: C_16  and  C_17
REMARK                            x       y       z     vdW  Elec       q    Type
REMARK                         _______ _______ _______ _____ _____    ______ ____
ROOT
ATOM      1  C   UNL     1      45.355   6.143  11.789  0.00  0.00    +0.000 C 
ATOM      2  C   UNL     1      45.344   5.998  13.327  0.00  0.00    +0.000 C 
ATOM      3  C   UNL     1      44.327   7.220  11.373  0.00  0.00    +0.000 C 
ENDROOT
BRANCH   1   4
ATOM      4  C   UNL     1      44.968   4.789  11.158  0.00  0.00    +0.000 A 
ATOM      5  C   UNL     1      43.879   4.056  11.655  0.00  0.00    +0.000 A 
ATOM      6  C   UNL     1      43.493   2.852  11.066  0.00  0.00    +0.000 A 
ATOM      7  C   UNL     1      44.167   2.369   9.943  0.00  0.00    +0.000 A 
ATOM      8  C   UNL     1      45.257   3.063   9.398  0.00  0.00    +0.000 A 
ATOM      9  C   UNL     1      45.657   4.246  10.057  0.00  0.00    +0.000 A 
BRANCH   8  10
ATOM     10  C   UNL     1      45.942   2.612   8.160  0.00  0.00    +0.000 A 
ATOM     11  C   UNL     1      46.473   1.315   8.052  0.00  0.00    +0.000 A 
ATOM     12  C   UNL     1      47.120   0.929   6.887  0.00  0.00    +0.000 A 
ATOM     13  N   UNL     1      47.293   1.736   5.825  0.00  0.00    +0.000 NA
ATOM     14  C   UNL     1      46.791   2.982   5.934  0.00  0.00    +0.000 A 
ATOM     15  C   UNL     1      46.116   3.453   7.053  0.00  0.00    +0.000 A 
ENDBRANCH   8  10
ENDBRANCH   1   4
BRANCH   1  16
ATOM     16  C   UNL     1      46.773   6.663  11.396  0.00  0.00    +0.000 C 
BRANCH  16  17
ATOM     17  O   UNL     1      47.210   7.691  12.297  0.00  0.00    +0.000 OA
BRANCH  17  21
ATOM     18  C   UNL     1      50.788   9.551  11.215  0.00  0.00    +0.000 A 
ATOM     19  C   UNL     1      49.639  10.329  11.344  0.00  0.00    +0.000 A 
ATOM     20  C   UNL     1      48.422   9.745  11.714  0.00  0.00    +0.000 A 
ATOM     21  C   UNL     1      48.344   8.374  11.959  0.00  0.00    +0.000 A 
ATOM     22  C   UNL     1      49.497   7.596  11.847  0.00  0.00    +0.000 A 
ATOM     23  C   UNL     1      50.712   8.180  11.478  0.00  0.00    +0.000 A 
BRANCH  18  25
ATOM     24  C   UNL     1      52.592   9.405   9.684  0.00  0.00    +0.000 C 
ATOM     25  O   UNL     1      52.022  10.004  10.842  0.00  0.00    +0.000 OA
ENDBRANCH  18  25
ENDBRANCH  17  21
ENDBRANCH  16  17
ENDBRANCH   1  16
TORSDOF 6
ENDMDL
MODEL 5
REMARK VINA RESULT:    -6.174      3.658      7.628
REMARK INTER + INTRA:          -9.543
REMARK INTER:                  -8.368
REMARK INTRA:                  -1.175
REMARK UNBOUND:                -1.203
REMARK  Name = 
REMARK  9 active torsions:
REMARK  status: ('A' for Active; 'I' for Inactive)
REMARK    1  A    between atoms: C_1  and  O_2
REMARK    2  A    between atoms: O_2  and  C_3
REMARK    3  A    between atoms: C_6  and  O_7
REMARK    4  A    between atoms: O_7  and  C_8
REMARK    5  A    between atoms: C_8  and  C_9
REMARK    6  A    between atoms: C_9  and  C_10
REMARK    7  A    between atoms: C_9  and  C_11
REMARK    8  A    between atoms: C_9  and  C_12
REMARK    9  A    between atoms: C_16  and  C_17
REMARK                            x       y       z     vdW  Elec       q    Type
REMARK                         _______ _______ _______ _____ _____    ______ ____
ROOT
ATOM      1  C   UNL     1      49.117   8.280  12.255  0.00  0.00    +0.000 C 
ATOM      2  C   UNL     1      49.316   9.805  12.411  0.00  0.00    +0.000 C 
ATOM      3  C   UNL     1      49.916   7.788  11.026  0.00  0.00    +0.000 C 
ENDROOT
BRANCH   1   4
ATOM      4  C   UNL     1      47.616   7.992  12.043  0.00  0.00    +0.000 A 
ATOM      5  C   UNL     1      46.651   8.954  12.378  0.00  0.00    +0.000 A 
ATOM      6  C   UNL     1      45.295   8.722  12.151  0.00  0.00    +0.000 A 
ATOM      7  C   UNL     1      44.873   7.534  11.551  0.00  0.00    +0.000 A 
ATOM      8  C   UNL     1      45.794   6.540  11.188  0.00  0.00    +0.000 A 
ATOM      9  C   UNL     1      47.151   6.785  11.488  0.00  0.00    +0.000 A 
BRANCH   8  10
ATOM     10  C   UNL     1      45.381   5.303  10.479  0.00  0.00    +0.000 A 
ATOM     11  C   UNL     1      44.664   4.289  11.138  0.00  0.00    +0.000 A 
ATOM     12  C   UNL     1      44.305   3.138  10.452  0.00  0.00    +0.000 A 
ATOM     13  N   UNL     1      44.617   2.908   9.164  0.00  0.00    +0.000 NA
ATOM     14  C   UNL     1      45.311   3.877   8.536  0.00  0.00    +0.000 A 
ATOM     15  C   UNL     1      45.701   5.068   9.136  0.00  0.00    +0.000 A 
ENDBRANCH   8  10
ENDBRANCH   1   4
BRANCH   1  16
ATOM     16  C   UNL     1      49.736   7.613  13.523  0.00  0.00    +0.000 C 
BRANCH  16  17
ATOM     17  O   UNL     1      48.826   7.672  14.630  0.00  0.00    +0.000 OA
BRANCH  17  21
ATOM     18  C   UNL     1      47.540   4.111  16.390  0.00  0.00    +0.000 A 
ATOM     19  C   UNL     1      47.092   4.427  15.109  0.00  0.00    +0.000 A 
ATOM     20  C   UNL     1      47.507   5.607  14.481  0.00  0.00    +0.000 A 
ATOM     21  C   UNL     1      48.377   6.482  15.130  0.00  0.00    +0.000 A 
ATOM     22  C   UNL     1      48.841   6.159  16.405  0.00  0.00    +0.000 A 
ATOM     23  C   UNL     1      48.426   4.980  17.032  0.00  0.00    +0.000 A 
BRANCH  18  25
ATOM     24  C   UNL     1      47.943   2.749  18.288  0.00  0.00    +0.000 C 
ATOM     25  O   UNL     1      47.189   3.003  17.109  0.00  0.00    +0.000 OA
ENDBRANCH  18  25
ENDBRANCH  17  21
ENDBRANCH  16  17
ENDBRANCH   1  16
TORSDOF 6
ENDMDL
MODEL 6
REMARK VINA RESULT:    -6.119      3.310      6.212
REMARK INTER + INTRA:          -9.468
REMARK INTER:                  -8.320
REMARK INTRA:                  -1.148
REMARK UNBOUND:                -1.203
REMARK  Name = 
REMARK  9 active torsions:
REMARK  status: ('A' for Active; 'I' for Inactive)
REMARK    1  A    between atoms: C_1  and  O_2
REMARK    2  A    between atoms: O_2  and  C_3
REMARK    3  A    between atoms: C_6  and  O_7
REMARK    4  A    between atoms: O_7  and  C_8
REMARK    5  A    between atoms: C_8  and  C_9
REMARK    6  A    between atoms: C_9  and  C_10
REMARK    7  A    between atoms: C_9  and  C_11
REMARK    8  A    between atoms: C_9  and  C_12
REMARK    9  A    between atoms: C_16  and  C_17
REMARK                            x       y       z     vdW  Elec       q    Type
REMARK                         _______ _______ _______ _____ _____    ______ ____
ROOT
ATOM      1  C   UNL     1      49.239   7.057  16.001  0.00  0.00    +0.000 C 
ATOM      2  C   UNL     1      50.712   7.255  15.578  0.00  0.00    +0.000 C 
ATOM      3  C   UNL     1      48.847   8.164  17.007  0.00  0.00    +0.000 C 
ENDROOT
BRANCH   1   4
ATOM      4  C   UNL     1      49.096   5.675  16.674  0.00  0.00    +0.000 A 
ATOM      5  C   UNL     1      47.827   5.119  16.901  0.00  0.00    +0.000 A 
ATOM      6  C   UNL     1      47.687   3.854  17.468  0.00  0.00    +0.000 A 
ATOM      7  C   UNL     1      48.815   3.098  17.792  0.00  0.00    +0.000 A 
ATOM      8  C   UNL     1      50.108   3.599  17.580  0.00  0.00    +0.000 A 
ATOM      9  C   UNL     1      50.210   4.907  17.060  0.00  0.00    +0.000 A 
BRANCH   8  10
ATOM     10  C   UNL     1      51.323   2.786  17.843  0.00  0.00    +0.000 A 
ATOM     11  C   UNL     1      51.397   1.438  17.450  0.00  0.00    +0.000 A 
ATOM     12  C   UNL     1      52.540   0.701  17.724  0.00  0.00    +0.000 A 
ATOM     13  N   UNL     1      53.611   1.195  18.371  0.00  0.00    +0.000 NA
ATOM     14  C   UNL     1      53.535   2.485  18.754  0.00  0.00    +0.000 A 
ATOM     15  C   UNL     1      52.439   3.304  18.512  0.00  0.00    +0.000 A 
ENDBRANCH   8  10
ENDBRANCH   1   4
BRANCH   1  16
ATOM     16  C   UNL     1      48.372   7.251  14.718  0.00  0.00    +0.000 C 
BRANCH  16  17
ATOM     17  O   UNL     1      48.546   6.154  13.811  0.00  0.00    +0.000 OA
BRANCH  17  21
ATOM     18  C   UNL     1      45.143   4.754  11.838  0.00  0.00    +0.000 A 
ATOM     19  C   UNL     1      45.648   4.020  12.910  0.00  0.00    +0.000 A 
ATOM     20  C   UNL     1      46.781   4.461  13.603  0.00  0.00    +0.000 A 
ATOM     21  C   UNL     1      47.421   5.642  13.229  0.00  0.00    +0.000 A 
ATOM     22  C   UNL     1      46.907   6.388  12.167  0.00  0.00    +0.000 A 
ATOM     23  C   UNL     1      45.775   5.947  11.476  0.00  0.00    +0.000 A 
BRANCH  18  25
ATOM     24  C   UNL     1      43.426   3.182  11.395  0.00  0.00    +0.000 C 
ATOM     25  O   UNL     1      44.061   4.415  11.077  0.00  0.00    +0.000 OA
ENDBRANCH  18  25
ENDBRANCH  17  21
ENDBRANCH  16  17
ENDBRANCH   1  16
TORSDOF 6
ENDMDL
MODEL 7
REMARK VINA RESULT:    -5.991      2.274      4.821
REMARK INTER + INTRA:          -9.296
REMARK INTER:                  -7.889
REMARK INTRA:                  -1.407
REMARK UNBOUND:                -1.203
REMARK  Name = 
REMARK  9 active torsions:
REMARK  status: ('A' for Active; 'I' for Inactive)
REMARK    1  A    between atoms: C_1  and  O_2
REMARK    2  A    between atoms: O_2  and  C_3
REMARK    3  A    between atoms: C_6  and  O_7
REMARK    4  A    between atoms: O_7  and  C_8
REMARK    5  A    between atoms: C_8  and  C_9
REMARK    6  A    between atoms: C_9  and  C_10
REMARK    7  A    between atoms: C_9  and  C_11
REMARK    8  A    between atoms: C_9  and  C_12
REMARK    9  A    between atoms: C_16  and  C_17
REMARK                            x       y       z     vdW  Elec       q    Type
REMARK                         _______ _______ _______ _____ _____    ______ ____
ROOT
ATOM      1  C   UNL     1      48.037   8.496  12.560  0.00  0.00    +0.000 C 
ATOM      2  C   UNL     1      48.769   7.390  11.765  0.00  0.00    +0.000 C 
ATOM      3  C   UNL     1      48.558   9.877  12.103  0.00  0.00    +0.000 C 
ENDROOT
BRANCH   1   4
ATOM      4  C   UNL     1      48.329   8.305  14.063  0.00  0.00    +0.000 A 
ATOM      5  C   UNL     1      48.361   9.409  14.929  0.00  0.00    +0.000 A 
ATOM      6  C   UNL     1      48.581   9.244  16.296  0.00  0.00    +0.000 A 
ATOM      7  C   UNL     1      48.740   7.967  16.836  0.00  0.00    +0.000 A 
ATOM      8  C   UNL     1      48.709   6.827  16.019  0.00  0.00    +0.000 A 
ATOM      9  C   UNL     1      48.544   7.036  14.633  0.00  0.00    +0.000 A 
BRANCH   8  10
ATOM     10  C   UNL     1      48.798   5.453  16.578  0.00  0.00    +0.000 A 
ATOM     11  C   UNL     1      49.932   5.029  17.291  0.00  0.00    +0.000 A 
ATOM     12  C   UNL     1      49.991   3.734  17.787  0.00  0.00    +0.000 A 
ATOM     13  N   UNL     1      49.015   2.823  17.617  0.00  0.00    +0.000 NA
ATOM     14  C   UNL     1      47.933   3.230  16.925  0.00  0.00    +0.000 A 
ATOM     15  C   UNL     1      47.779   4.509  16.404  0.00  0.00    +0.000 A 
ENDBRANCH   8  10
ENDBRANCH   1   4
BRANCH   1  16
ATOM     16  C   UNL     1      46.528   8.405  12.171  0.00  0.00    +0.000 C 
BRANCH  16  17
ATOM     17  O   UNL     1      45.811   7.568  13.089  0.00  0.00    +0.000 OA
BRANCH  17  21
ATOM     18  C   UNL     1      44.498   3.953  11.466  0.00  0.00    +0.000 A 
ATOM     19  C   UNL     1      45.247   3.929  12.641  0.00  0.00    +0.000 A 
ATOM     20  C   UNL     1      45.698   5.119  13.221  0.00  0.00    +0.000 A 
ATOM     21  C   UNL     1      45.403   6.347  12.631  0.00  0.00    +0.000 A 
ATOM     22  C   UNL     1      44.638   6.375  11.464  0.00  0.00    +0.000 A 
ATOM     23  C   UNL     1      44.188   5.185  10.885  0.00  0.00    +0.000 A 
BRANCH  18  25
ATOM     24  C   UNL     1      44.657   2.547   9.564  0.00  0.00    +0.000 C 
ATOM     25  O   UNL     1      44.023   2.859  10.799  0.00  0.00    +0.000 OA
ENDBRANCH  18  25
ENDBRANCH  17  21
ENDBRANCH  16  17
ENDBRANCH   1  16
TORSDOF 6
ENDMDL
MODEL 8
REMARK VINA RESULT:    -5.953      4.928      8.754
REMARK INTER + INTRA:          -9.243
REMARK INTER:                  -8.339
REMARK INTRA:                  -0.905
REMARK UNBOUND:                -1.203
REMARK  Name = 
REMARK  9 active torsions:
REMARK  status: ('A' for Active; 'I' for Inactive)
REMARK    1  A    between atoms: C_1  and  O_2
REMARK    2  A    between atoms: O_2  and  C_3
REMARK    3  A    between atoms: C_6  and  O_7
REMARK    4  A    between atoms: O_7  and  C_8
REMARK    5  A    between atoms: C_8  and  C_9
REMARK    6  A    between atoms: C_9  and  C_10
REMARK    7  A    between atoms: C_9  and  C_11
REMARK    8  A    between atoms: C_9  and  C_12
REMARK    9  A    between atoms: C_16  and  C_17
REMARK                            x       y       z     vdW  Elec       q    Type
REMARK                         _______ _______ _______ _____ _____    ______ ____
ROOT
ATOM      1  C   UNL     1      48.086   4.484  17.082  0.00  0.00    +0.000 C 
ATOM      2  C   UNL     1      47.484   3.062  17.136  0.00  0.00    +0.000 C 
ATOM      3  C   UNL     1      47.487   5.332  18.228  0.00  0.00    +0.000 C 
ENDROOT
BRANCH   1   4
ATOM      4  C   UNL     1      47.728   5.125  15.724  0.00  0.00    +0.000 A 
ATOM      5  C   UNL     1      48.536   6.133  15.176  0.00  0.00    +0.000 A 
ATOM      6  C   UNL     1      48.246   6.689  13.930  0.00  0.00    +0.000 A 
ATOM      7  C   UNL     1      47.159   6.225  13.187  0.00  0.00    +0.000 A 
ATOM      8  C   UNL     1      46.322   5.215  13.682  0.00  0.00    +0.000 A 
ATOM      9  C   UNL     1      46.611   4.718  14.971  0.00  0.00    +0.000 A 
BRANCH   8  10
ATOM     10  C   UNL     1      45.206   4.650  12.880  0.00  0.00    +0.000 A 
ATOM     11  C   UNL     1      43.992   5.343  12.732  0.00  0.00    +0.000 A 
ATOM     12  C   UNL     1      42.963   4.782  11.989  0.00  0.00    +0.000 A 
ATOM     13  N   UNL     1      43.042   3.578  11.392  0.00  0.00    +0.000 NA
ATOM     14  C   UNL     1      44.204   2.913  11.542  0.00  0.00    +0.000 A 
ATOM     15  C   UNL     1      45.293   3.400  12.255  0.00  0.00    +0.000 A 
ENDBRANCH   8  10
ENDBRANCH   1   4
BRANCH   1  16
ATOM     16  C   UNL     1      49.616   4.336  17.350  0.00  0.00    +0.000 C 
BRANCH  16  17
ATOM     17  O   UNL     1      50.077   3.028  16.984  0.00  0.00    +0.000 OA
BRANCH  17  21
ATOM     18  C   UNL     1      53.727   1.581  18.403  0.00  0.00    +0.000 A 
ATOM     19  C   UNL     1      53.434   2.935  18.561  0.00  0.00    +0.000 A 
ATOM     20  C   UNL     1      52.218   3.456  18.107  0.00  0.00    +0.000 A 
ATOM     21  C   UNL     1      51.281   2.627  17.491  0.00  0.00    +0.000 A 
ATOM     22  C   UNL     1      51.566   1.269  17.348  0.00  0.00    +0.000 A 
ATOM     23  C   UNL     1      52.781   0.748  17.801  0.00  0.00    +0.000 A 
BRANCH  18  25
ATOM     24  C   UNL     1      54.886  -0.457  18.751  0.00  0.00    +0.000 C 
ATOM     25  O   UNL     1      54.885   0.965  18.786  0.00  0.00    +0.000 OA
ENDBRANCH  18  25
ENDBRANCH  17  21
ENDBRANCH  16  17
ENDBRANCH   1  16
TORSDOF 6
ENDMDL
MODEL 9
REMARK VINA RESULT:    -5.517      3.606      7.071
REMARK INTER + INTRA:          -8.655
REMARK INTER:                  -7.114
REMARK INTRA:                  -1.542
REMARK UNBOUND:                -1.203
REMARK  Name = 
REMARK  9 active torsions:
REMARK  status: ('A' for Active; 'I' for Inactive)
REMARK    1  A    between atoms: C_1  and  O_2
REMARK    2  A    between atoms: O_2  and  C_3
REMARK    3  A    between atoms: C_6  and  O_7
REMARK    4  A    between atoms: O_7  and  C_8
REMARK    5  A    between atoms: C_8  and  C_9
REMARK    6  A    between atoms: C_9  and  C_10
REMARK    7  A    between atoms: C_9  and  C_11
REMARK    8  A    between atoms: C_9  and  C_12
REMARK    9  A    between atoms: C_16  and  C_17
REMARK                            x       y       z     vdW  Elec       q    Type
REMARK                         _______ _______ _______ _____ _____    ______ ____
ROOT
ATOM      1  C   UNL     1      45.614   4.956  12.553  0.00  0.00    +0.000 C 
ATOM      2  C   UNL     1      45.420   4.343  11.148  0.00  0.00    +0.000 C 
ATOM      3  C   UNL     1      44.251   4.995  13.282  0.00  0.00    +0.000 C 
ENDROOT
BRANCH   1   4
ATOM      4  C   UNL     1      46.158   6.392  12.399  0.00  0.00    +0.000 A 
ATOM      5  C   UNL     1      45.280   7.483  12.315  0.00  0.00    +0.000 A 
ATOM      6  C   UNL     1      45.760   8.788  12.219  0.00  0.00    +0.000 A 
ATOM      7  C   UNL     1      47.134   9.037  12.239  0.00  0.00    +0.000 A 
ATOM      8  C   UNL     1      48.059   7.986  12.329  0.00  0.00    +0.000 A 
ATOM      9  C   UNL     1      47.537   6.675  12.364  0.00  0.00    +0.000 A 
BRANCH   8  10
ATOM     10  C   UNL     1      49.521   8.228  12.430  0.00  0.00    +0.000 A 
ATOM     11  C   UNL     1      50.182   8.188  13.670  0.00  0.00    +0.000 A 
ATOM     12  C   UNL     1      51.546   8.433  13.733  0.00  0.00    +0.000 A 
ATOM     13  N   UNL     1      52.303   8.729  12.660  0.00  0.00    +0.000 NA
ATOM     14  C   UNL     1      51.666   8.774  11.474  0.00  0.00    +0.000 A 
ATOM     15  C   UNL     1      50.308   8.529  11.311  0.00  0.00    +0.000 A 
ENDBRANCH   8  10
ENDBRANCH   1   4
BRANCH   1  16
ATOM     16  C   UNL     1      46.548   3.986  13.342  0.00  0.00    +0.000 C 
BRANCH  16  17
ATOM     17  O   UNL     1      46.235   3.998  14.742  0.00  0.00    +0.000 OA
BRANCH  17  21
ATOM     18  C   UNL     1      49.380   4.888  17.340  0.00  0.00    +0.000 A 
ATOM     19  C   UNL     1      48.810   3.617  17.387  0.00  0.00    +0.000 A 
ATOM     20  C   UNL     1      47.760   3.277  16.526  0.00  0.00    +0.000 A 
ATOM     21  C   UNL     1      47.271   4.206  15.609  0.00  0.00    +0.000 A 
ATOM     22  C   UNL     1      47.853   5.473  15.548  0.00  0.00    +0.000 A 
ATOM     23  C   UNL     1      48.902   5.813  16.408  0.00  0.00    +0.000 A 
BRANCH  18  25
ATOM     24  C   UNL     1      50.397   4.863  19.481  0.00  0.00    +0.000 C 
ATOM     25  O   UNL     1      50.392   5.339  18.140  0.00  0.00    +0.000 OA
ENDBRANCH  18  25
ENDBRANCH  17  21
ENDBRANCH  16  17
ENDBRANCH   1  16
TORSDOF 6
ENDMDL
