MODEL 1
REMARK VINA RESULT:    -8.921      0.000      0.000
REMARK INTER + INTRA:         -13.404
REMARK INTER:                 -12.832
REMARK INTRA:                  -0.572
REMARK UNBOUND:                -0.572
REMARK  Name = 
REMARK  9 active torsions:
REMARK  status: ('A' for Active; 'I' for Inactive)
REMARK    1  A    between atoms: C_1  and  C_2
REMARK    2  A    between atoms: C_2  and  C_3
REMARK    3  A    between atoms: C_3  and  N_4
REMARK    4  A    between atoms: C_3  and  C_17
REMARK    5  A    between atoms: C_5  and  C_7
REMARK    6  A    between atoms: C_20  and  C_21
REMARK    7  A    between atoms: C_21  and  N_22
REMARK    8  A    between atoms: C_21  and  C_23
REMARK    9  A    between atoms: C_23  and  C_24
REMARK                            x       y       z     vdW  Elec       q    Type
REMARK                         _______ _______ _______ _____ _____    ______ ____
ROOT
ATOM      1  C   UNL     1      46.527   8.076  12.998  0.00  0.00    +0.000 C 
ENDROOT
BRANCH   1   2
ATOM      2  C   UNL     1      45.930   6.877  12.272  0.00  0.00    +0.000 A 
ATOM      3  C   UNL     1      45.110   5.967  12.929  0.00  0.00    +0.000 A 
ATOM      4  N   UNL     1      44.646   4.834  12.337  0.00  0.00    +0.000 NA
ATOM      5  C   UNL     1      45.011   4.639  11.042  0.00  0.00    +0.000 A 
ATOM      6  C   UNL     1      45.848   5.537  10.396  0.00  0.00    +0.000 A 
ATOM      7  N   UNL     1      46.322   6.651  10.989  0.00  0.00    +0.000 NA
BRANCH   5   8
ATOM      8  C   UNL     1      44.617   3.350  10.340  0.00  0.00    +0.000 C 
BRANCH   8   9
ATOM      9  N   UNL     1      43.316   2.864  10.840  0.00  0.00    +0.000 NA
ATOM     10  H   UNL     1      42.731   3.675  11.047  0.00  0.00    +0.000 HD
ATOM     11  H   UNL     1      43.446   2.381  11.727  0.00  0.00    +0.000 HD
ENDBRANCH   8   9
BRANCH   8  12
ATOM     12  C   UNL     1      44.605   3.531   8.805  0.00  0.00    +0.000 C 
BRANCH  12  13
ATOM     13  C   UNL     1      45.714   2.776   8.117  0.00  0.00    +0.000 A 
ATOM     14  C   UNL     1      46.615   3.404   7.262  0.00  0.00    +0.000 A 
ATOM     15  C   UNL     1      47.637   2.645   6.722  0.00  0.00    +0.000 A 
ATOM     16  N   UNL     1      47.794   1.332   6.984  0.00  0.00    +0.000 NA
ATOM     17  N   UNL     1      46.918   0.712   7.816  0.00  0.00    +0.000 NA
ATOM     18  C   UNL     1      45.914   1.426   8.367  0.00  0.00    +0.000 A 
ENDBRANCH  12  13
ENDBRANCH   8  12
ENDBRANCH   5   8
ENDBRANCH   1   2
BRANCH   1  19
ATOM     19  N   UNL     1      47.169   7.597  14.212  0.00  0.00    +0.000 N 
ATOM     20  C   UNL     1      48.187   6.685  14.235  0.00  0.00    +0.000 C 
ATOM     21  O   UNL     1      48.717   6.268  13.208  0.00  0.00    +0.000 OA
ATOM     22  H   UNL     1      46.667   7.811  15.068  0.00  0.00    +0.000 HD
BRANCH  20  23
ATOM     23  C   UNL     1      48.652   6.275  15.566  0.00  0.00    +0.000 A 
ATOM     24  C   UNL     1      49.608   7.029  16.233  0.00  0.00    +0.000 A 
ATOM     25  S   UNL     1      50.008   6.416  17.775  0.00  0.00    +0.000 S 
ATOM     26  C   UNL     1      48.958   5.091  17.583  0.00  0.00    +0.000 A 
ATOM     27  N   UNL     1      48.848   4.138  18.547  0.00  0.00    +0.000 NA
ATOM     28  C   UNL     1      48.047   3.169  18.253  0.00  0.00    +0.000 A 
ATOM     29  N   UNL     1      47.336   3.072  17.087  0.00  0.00    +0.000 N 
ATOM     30  C   UNL     1      47.375   4.036  16.110  0.00  0.00    +0.000 A 
ATOM     31  O   UNL     1      46.659   3.961  15.118  0.00  0.00    +0.000 OA
ATOM     32  C   UNL     1      48.288   5.133  16.374  0.00  0.00    +0.000 A 
ATOM     33  H   UNL     1      46.704   2.302  16.927  0.00  0.00    +0.000 HD
ENDBRANCH  20  23
ENDBRANCH   1  19
BRANCH   1  35
ATOM     34  C   UNL     1      48.078  10.107  12.589  0.00  0.00    +0.000 C 
ATOM     35  C   UNL     1      47.543   8.782  12.072  0.00  0.00    +0.000 C 
ENDBRANCH   1  35
TORSDOF 8
ENDMDL
MODEL 2
REMARK VINA RESULT:    -8.180      2.128      2.827
REMARK INTER + INTRA:         -12.338
REMARK INTER:                 -11.187
REMARK INTRA:                  -1.151
REMARK UNBOUND:                -0.572
REMARK  Name = 
REMARK  9 active torsions:
REMARK  status: ('A' for Active; 'I' for Inactive)
REMARK    1  A    between atoms: C_1  and  C_2
REMARK    2  A    between atoms: C_2  and  C_3
REMARK    3  A    between atoms: C_3  and  N_4
REMARK    4  A    between atoms: C_3  and  C_17
REMARK    5  A    between atoms: C_5  and  C_7
REMARK    6  A    between atoms: C_20  and  C_21
REMARK    7  A    between atoms: C_21  and  N_22
REMARK    8  A    between atoms: C_21  and  C_23
REMARK    9  A    between atoms: C_23  and  C_24
REMARK                            x       y       z     vdW  Elec       q    Type
REMARK                         _______ _______ _______ _____ _____    ______ ____
ROOT
ATOM      1  C   UNL     1      47.358   7.299  13.709  0.00  0.00    +0.000 C 
ENDROOT
BRANCH   1   2
ATOM      2  C   UNL     1      46.470   6.282  13.004  0.00  0.00    +0.000 A 
ATOM      3  C   UNL     1      46.210   5.037  13.562  0.00  0.00    +0.000 A 
ATOM      4  N   UNL     1      45.507   4.070  12.913  0.00  0.00    +0.000 NA
ATOM      5  C   UNL     1      45.044   4.392  11.675  0.00  0.00    +0.000 A 
ATOM      6  C   UNL     1      45.324   5.629  11.110  0.00  0.00    +0.000 A 
ATOM      7  N   UNL     1      46.037   6.579  11.748  0.00  0.00    +0.000 NA
BRANCH   5   8
ATOM      8  C   UNL     1      44.336   3.337  10.844  0.00  0.00    +0.000 C 
BRANCH   8   9
ATOM      9  N   UNL     1      42.971   3.104  11.354  0.00  0.00    +0.000 NA
ATOM     10  H   UNL     1      42.321   3.652  10.789  0.00  0.00    +0.000 HD
ATOM     11  H   UNL     1      42.890   3.467  12.302  0.00  0.00    +0.000 HD
ENDBRANCH   8   9
BRANCH   8  12
ATOM     12  C   UNL     1      44.326   3.718   9.346  0.00  0.00    +0.000 C 
BRANCH  12  13
ATOM     13  C   UNL     1      45.318   2.926   8.533  0.00  0.00    +0.000 A 
ATOM     14  C   UNL     1      46.152   3.526   7.594  0.00  0.00    +0.000 A 
ATOM     15  C   UNL     1      47.073   2.731   6.937  0.00  0.00    +0.000 A 
ATOM     16  N   UNL     1      47.193   1.407   7.164  0.00  0.00    +0.000 NA
ATOM     17  N   UNL     1      46.383   0.814   8.076  0.00  0.00    +0.000 NA
ATOM     18  C   UNL     1      45.479   1.563   8.742  0.00  0.00    +0.000 A 
ENDBRANCH  12  13
ENDBRANCH   8  12
ENDBRANCH   5   8
ENDBRANCH   1   2
BRANCH   1  19
ATOM     19  N   UNL     1      48.195   6.587  14.661  0.00  0.00    +0.000 N 
ATOM     20  C   UNL     1      48.770   7.163  15.760  0.00  0.00    +0.000 C 
ATOM     21  O   UNL     1      48.535   8.322  16.091  0.00  0.00    +0.000 OA
ATOM     22  H   UNL     1      48.518   5.679  14.343  0.00  0.00    +0.000 HD
BRANCH  20  23
ATOM     23  C   UNL     1      49.641   6.292  16.559  0.00  0.00    +0.000 A 
ATOM     24  C   UNL     1      49.089   5.374  17.442  0.00  0.00    +0.000 A 
ATOM     25  S   UNL     1      50.251   4.433  18.265  0.00  0.00    +0.000 S 
ATOM     26  C   UNL     1      51.534   5.256  17.511  0.00  0.00    +0.000 A 
ATOM     27  N   UNL     1      52.828   4.957  17.806  0.00  0.00    +0.000 NA
ATOM     28  C   UNL     1      53.699   5.686  17.192  0.00  0.00    +0.000 A 
ATOM     29  N   UNL     1      53.395   6.681  16.301  0.00  0.00    +0.000 N 
ATOM     30  C   UNL     1      52.106   6.980  15.934  0.00  0.00    +0.000 A 
ATOM     31  O   UNL     1      51.873   7.816  15.067  0.00  0.00    +0.000 OA
ATOM     32  C   UNL     1      51.084   6.213  16.620  0.00  0.00    +0.000 A 
ATOM     33  H   UNL     1      54.123   7.199  15.833  0.00  0.00    +0.000 HD
ENDBRANCH  20  23
ENDBRANCH   1  19
BRANCH   1  35
ATOM     34  C   UNL     1      49.456   7.302  12.193  0.00  0.00    +0.000 C 
ATOM     35  C   UNL     1      48.215   8.045  12.662  0.00  0.00    +0.000 C 
ENDBRANCH   1  35
TORSDOF 8
ENDMDL
MODEL 3
REMARK VINA RESULT:    -7.888      2.432      2.956
REMARK INTER + INTRA:         -11.919
REMARK INTER:                 -10.826
REMARK INTRA:                  -1.093
REMARK UNBOUND:                -0.572
REMARK  Name = 
REMARK  9 active torsions:
REMARK  status: ('A' for Active; 'I' for Inactive)
REMARK    1  A    between atoms: C_1  and  C_2
REMARK    2  A    between atoms: C_2  and  C_3
REMARK    3  A    between atoms: C_3  and  N_4
REMARK    4  A    between atoms: C_3  and  C_17
REMARK    5  A    between atoms: C_5  and  C_7
REMARK    6  A    between atoms: C_20  and  C_21
REMARK    7  A    between atoms: C_21  and  N_22
REMARK    8  A    between atoms: C_21  and  C_23
REMARK    9  A    between atoms: C_23  and  C_24
REMARK                            x       y       z     vdW  Elec       q    Type
REMARK                         _______ _______ _______ _____ _____    ______ ____
ROOT
ATOM      1  C   UNL     1      48.503   7.052  14.992  0.00  0.00    +0.000 C 
ENDROOT
BRANCH   1   2
ATOM      2  C   UNL     1      47.653   6.135  14.121  0.00  0.00    +0.000 A 
ATOM      3  C   UNL     1      46.970   6.618  13.012  0.00  0.00    +0.000 A 
ATOM      4  N   UNL     1      46.124   5.848  12.276  0.00  0.00    +0.000 NA
ATOM      5  C   UNL     1      45.990   4.554  12.672  0.00  0.00    +0.000 A 
ATOM      6  C   UNL     1      46.657   4.080  13.793  0.00  0.00    +0.000 A 
ATOM      7  N   UNL     1      47.481   4.849  14.532  0.00  0.00    +0.000 NA
BRANCH   5   8
ATOM      8  C   UNL     1      44.991   3.656  11.964  0.00  0.00    +0.000 C 
BRANCH   8   9
ATOM      9  N   UNL     1      43.845   3.359  12.845  0.00  0.00    +0.000 NA
ATOM     10  H   UNL     1      43.127   2.893  12.289  0.00  0.00    +0.000 HD
ATOM     11  H   UNL     1      43.424   4.229  13.169  0.00  0.00    +0.000 HD
ENDBRANCH   8   9
BRANCH   8  12
ATOM     12  C   UNL     1      44.533   4.275  10.624  0.00  0.00    +0.000 C 
BRANCH  12  13
ATOM     13  C   UNL     1      45.176   3.624   9.426  0.00  0.00    +0.000 A 
ATOM     14  C   UNL     1      45.712   4.368   8.379  0.00  0.00    +0.000 A 
ATOM     15  C   UNL     1      46.336   3.688   7.350  0.00  0.00    +0.000 A 
ATOM     16  N   UNL     1      46.443   2.344   7.316  0.00  0.00    +0.000 NA
ATOM     17  N   UNL     1      45.921   1.611   8.332  0.00  0.00    +0.000 NA
ATOM     18  C   UNL     1      45.313   2.245   9.358  0.00  0.00    +0.000 A 
ENDBRANCH  12  13
ENDBRANCH   8  12
ENDBRANCH   5   8
ENDBRANCH   1   2
BRANCH   1  19
ATOM     19  N   UNL     1      49.534   6.248  15.627  0.00  0.00    +0.000 N 
ATOM     20  C   UNL     1      49.507   5.857  16.936  0.00  0.00    +0.000 C 
ATOM     21  O   UNL     1      48.542   6.072  17.665  0.00  0.00    +0.000 OA
ATOM     22  H   UNL     1      50.399   6.176  15.099  0.00  0.00    +0.000 HD
BRANCH  20  23
ATOM     23  C   UNL     1      50.680   5.109  17.408  0.00  0.00    +0.000 A 
ATOM     24  C   UNL     1      51.782   5.787  17.912  0.00  0.00    +0.000 A 
ATOM     25  S   UNL     1      53.038   4.757  18.434  0.00  0.00    +0.000 S 
ATOM     26  C   UNL     1      52.177   3.370  17.954  0.00  0.00    +0.000 A 
ATOM     27  N   UNL     1      52.714   2.128  18.093  0.00  0.00    +0.000 NA
ATOM     28  C   UNL     1      51.970   1.171  17.651  0.00  0.00    +0.000 A 
ATOM     29  N   UNL     1      50.730   1.341  17.093  0.00  0.00    +0.000 N 
ATOM     30  C   UNL     1      50.127   2.569  16.983  0.00  0.00    +0.000 A 
ATOM     31  O   UNL     1      48.981   2.676  16.560  0.00  0.00    +0.000 OA
ATOM     32  C   UNL     1      50.936   3.686  17.433  0.00  0.00    +0.000 A 
ATOM     33  H   UNL     1      50.185   0.548  16.790  0.00  0.00    +0.000 HD
ENDBRANCH  20  23
ENDBRANCH   1  19
BRANCH   1  35
ATOM     34  C   UNL     1      50.623   8.348  14.270  0.00  0.00    +0.000 C 
ATOM     35  C   UNL     1      49.123   8.162  14.115  0.00  0.00    +0.000 C 
ENDBRANCH   1  35
TORSDOF 8
ENDMDL
MODEL 4
REMARK VINA RESULT:    -7.454      2.016      2.625
REMARK INTER + INTRA:         -11.294
REMARK INTER:                 -10.177
REMARK INTRA:                  -1.117
REMARK UNBOUND:                -0.572
REMARK  Name = 
REMARK  9 active torsions:
REMARK  status: ('A' for Active; 'I' for Inactive)
REMARK    1  A    between atoms: C_1  and  C_2
REMARK    2  A    between atoms: C_2  and  C_3
REMARK    3  A    between atoms: C_3  and  N_4
REMARK    4  A    between atoms: C_3  and  C_17
REMARK    5  A    between atoms: C_5  and  C_7
REMARK    6  A    between atoms: C_20  and  C_21
REMARK    7  A    between atoms: C_21  and  N_22
REMARK    8  A    between atoms: C_21  and  C_23
REMARK    9  A    between atoms: C_23  and  C_24
REMARK                            x       y       z     vdW  Elec       q    Type
REMARK                         _______ _______ _______ _____ _____    ______ ____
ROOT
ATOM      1  C   UNL     1      48.136   7.782  13.797  0.00  0.00    +0.000 C 
ENDROOT
BRANCH   1   2
ATOM      2  C   UNL     1      47.000   6.922  13.256  0.00  0.00    +0.000 A 
ATOM      3  C   UNL     1      45.832   7.492  12.764  0.00  0.00    +0.000 A 
ATOM      4  N   UNL     1      44.761   6.752  12.371  0.00  0.00    +0.000 NA
ATOM      5  C   UNL     1      44.896   5.402  12.463  0.00  0.00    +0.000 A 
ATOM      6  C   UNL     1      46.055   4.837  12.977  0.00  0.00    +0.000 A 
ATOM      7  N   UNL     1      47.109   5.572  13.383  0.00  0.00    +0.000 NA
BRANCH   5   8
ATOM      8  C   UNL     1      43.712   4.509  12.138  0.00  0.00    +0.000 C 
BRANCH   8   9
ATOM      9  N   UNL     1      42.562   4.833  13.004  0.00  0.00    +0.000 NA
ATOM     10  H   UNL     1      42.309   5.810  12.846  0.00  0.00    +0.000 HD
ATOM     11  H   UNL     1      42.840   4.773  13.982  0.00  0.00    +0.000 HD
ENDBRANCH   8   9
BRANCH   8  12
ATOM     12  C   UNL     1      43.338   4.599  10.640  0.00  0.00    +0.000 C 
BRANCH  12  13
ATOM     13  C   UNL     1      44.330   3.900   9.745  0.00  0.00    +0.000 A 
ATOM     14  C   UNL     1      44.474   2.516   9.742  0.00  0.00    +0.000 A 
ATOM     15  C   UNL     1      45.366   1.955   8.846  0.00  0.00    +0.000 A 
ATOM     16  N   UNL     1      46.099   2.689   7.985  0.00  0.00    +0.000 NA
ATOM     17  N   UNL     1      45.965   4.040   7.983  0.00  0.00    +0.000 NA
ATOM     18  C   UNL     1      45.096   4.618   8.839  0.00  0.00    +0.000 A 
ENDBRANCH  12  13
ENDBRANCH   8  12
ENDBRANCH   5   8
ENDBRANCH   1   2
BRANCH   1  19
ATOM     19  N   UNL     1      48.173   7.626  15.242  0.00  0.00    +0.000 N 
ATOM     20  C   UNL     1      49.104   8.212  16.054  0.00  0.00    +0.000 C 
ATOM     21  O   UNL     1      49.935   9.011  15.630  0.00  0.00    +0.000 OA
ATOM     22  H   UNL     1      47.597   6.871  15.601  0.00  0.00    +0.000 HD
BRANCH  20  23
ATOM     23  C   UNL     1      49.016   7.873  17.481  0.00  0.00    +0.000 A 
ATOM     24  C   UNL     1      49.007   8.880  18.436  0.00  0.00    +0.000 A 
ATOM     25  S   UNL     1      48.875   8.302  20.037  0.00  0.00    +0.000 S 
ATOM     26  C   UNL     1      48.881   6.683  19.512  0.00  0.00    +0.000 A 
ATOM     27  N   UNL     1      48.827   5.658  20.404  0.00  0.00    +0.000 NA
ATOM     28  C   UNL     1      48.881   4.483  19.872  0.00  0.00    +0.000 A 
ATOM     29  N   UNL     1      48.971   4.239  18.527  0.00  0.00    +0.000 N 
ATOM     30  C   UNL     1      48.973   5.242  17.589  0.00  0.00    +0.000 A 
ATOM     31  O   UNL     1      48.965   4.987  16.390  0.00  0.00    +0.000 OA
ATOM     32  C   UNL     1      48.950   6.586  18.135  0.00  0.00    +0.000 A 
ATOM     33  H   UNL     1      48.981   3.296  18.171  0.00  0.00    +0.000 HD
ENDBRANCH  20  23
ENDBRANCH   1  19
BRANCH   1  35
ATOM     34  C   UNL     1      49.646   7.721  11.695  0.00  0.00    +0.000 C 
ATOM     35  C   UNL     1      49.468   7.334  13.154  0.00  0.00    +0.000 C 
ENDBRANCH   1  35
TORSDOF 8
ENDMDL
MODEL 5
REMARK VINA RESULT:    -7.324      3.360      7.355
REMARK INTER + INTRA:         -11.108
REMARK INTER:                  -9.911
REMARK INTRA:                  -1.197
REMARK UNBOUND:                -0.572
REMARK  Name = 
REMARK  9 active torsions:
REMARK  status: ('A' for Active; 'I' for Inactive)
REMARK    1  A    between atoms: C_1  and  C_2
REMARK    2  A    between atoms: C_2  and  C_3
REMARK    3  A    between atoms: C_3  and  N_4
REMARK    4  A    between atoms: C_3  and  C_17
REMARK    5  A    between atoms: C_5  and  C_7
REMARK    6  A    between atoms: C_20  and  C_21
REMARK    7  A    between atoms: C_21  and  N_22
REMARK    8  A    between atoms: C_21  and  C_23
REMARK    9  A    between atoms: C_23  and  C_24
REMARK                            x       y       z     vdW  Elec       q    Type
REMARK                         _______ _______ _______ _____ _____    ______ ____
ROOT
ATOM      1  C   UNL     1      49.289   8.562  14.448  0.00  0.00    +0.000 C 
ENDROOT
BRANCH   1   2
ATOM      2  C   UNL     1      49.618   7.822  15.739  0.00  0.00    +0.000 A 
ATOM      3  C   UNL     1      50.765   7.046  15.856  0.00  0.00    +0.000 A 
ATOM      4  N   UNL     1      51.034   6.292  16.956  0.00  0.00    +0.000 NA
ATOM      5  C   UNL     1      50.122   6.350  17.963  0.00  0.00    +0.000 A 
ATOM      6  C   UNL     1      48.966   7.108  17.833  0.00  0.00    +0.000 A 
ATOM      7  N   UNL     1      48.692   7.840  16.735  0.00  0.00    +0.000 NA
BRANCH   5   8
ATOM      8  C   UNL     1      50.298   5.463  19.183  0.00  0.00    +0.000 C 
BRANCH   8   9
ATOM      9  N   UNL     1      50.382   6.278  20.410  0.00  0.00    +0.000 NA
ATOM     10  H   UNL     1      50.619   5.660  21.188  0.00  0.00    +0.000 HD
ATOM     11  H   UNL     1      49.467   6.665  20.630  0.00  0.00    +0.000 HD
ENDBRANCH   8   9
BRANCH   8  12
ATOM     12  C   UNL     1      49.171   4.409  19.276  0.00  0.00    +0.000 C 
BRANCH  12  13
ATOM     13  C   UNL     1      49.188   3.429  18.130  0.00  0.00    +0.000 A 
ATOM     14  C   UNL     1      48.057   3.168  17.364  0.00  0.00    +0.000 A 
ATOM     15  C   UNL     1      48.180   2.299  16.295  0.00  0.00    +0.000 A 
ATOM     16  N   UNL     1      49.341   1.695  15.970  0.00  0.00    +0.000 NA
ATOM     17  N   UNL     1      50.449   1.943  16.714  0.00  0.00    +0.000 NA
ATOM     18  C   UNL     1      50.365   2.794  17.759  0.00  0.00    +0.000 A 
ENDBRANCH  12  13
ENDBRANCH   8  12
ENDBRANCH   5   8
ENDBRANCH   1   2
BRANCH   1  19
ATOM     19  N   UNL     1      48.060   8.007  13.908  0.00  0.00    +0.000 N 
ATOM     20  C   UNL     1      48.004   6.908  13.096  0.00  0.00    +0.000 C 
ATOM     21  O   UNL     1      48.997   6.232  12.839  0.00  0.00    +0.000 OA
ATOM     22  H   UNL     1      47.251   8.617  13.984  0.00  0.00    +0.000 HD
BRANCH  20  23
ATOM     23  C   UNL     1      46.672   6.547  12.594  0.00  0.00    +0.000 A 
ATOM     24  C   UNL     1      45.839   7.523  12.063  0.00  0.00    +0.000 A 
ATOM     25  S   UNL     1      44.343   6.917  11.508  0.00  0.00    +0.000 S 
ATOM     26  C   UNL     1      44.734   5.338  12.007  0.00  0.00    +0.000 A 
ATOM     27  N   UNL     1      43.850   4.315  11.853  0.00  0.00    +0.000 NA
ATOM     28  C   UNL     1      44.260   3.181  12.312  0.00  0.00    +0.000 A 
ATOM     29  N   UNL     1      45.478   2.971  12.901  0.00  0.00    +0.000 N 
ATOM     30  C   UNL     1      46.422   3.961  13.028  0.00  0.00    +0.000 A 
ATOM     31  O   UNL     1      47.536   3.720  13.480  0.00  0.00    +0.000 OA
ATOM     32  C   UNL     1      46.000   5.268  12.559  0.00  0.00    +0.000 A 
ATOM     33  H   UNL     1      45.751   2.053  13.216  0.00  0.00    +0.000 HD
ENDBRANCH  20  23
ENDBRANCH   1  19
BRANCH   1  35
ATOM     34  C   UNL     1      48.705  10.925  13.567  0.00  0.00    +0.000 C 
ATOM     35  C   UNL     1      49.135  10.070  14.748  0.00  0.00    +0.000 C 
ENDBRANCH   1  35
TORSDOF 8
ENDMDL
MODEL 6
REMARK VINA RESULT:    -7.224      2.995      7.206
REMARK INTER + INTRA:         -10.963
REMARK INTER:                 -11.004
REMARK INTRA:                   0.041
REMARK UNBOUND:                -0.572
REMARK  Name = 
REMARK  9 active torsions:
REMARK  status: ('A' for Active; 'I' for Inactive)
REMARK    1  A    between atoms: C_1  and  C_2
REMARK    2  A    between atoms: C_2  and  C_3
REMARK    3  A    between atoms: C_3  and  N_4
REMARK    4  A    between atoms: C_3  and  C_17
REMARK    5  A    between atoms: C_5  and  C_7
REMARK    6  A    between atoms: C_20  and  C_21
REMARK    7  A    between atoms: C_21  and  N_22
REMARK    8  A    between atoms: C_21  and  C_23
REMARK    9  A    between atoms: C_23  and  C_24
REMARK                            x       y       z     vdW  Elec       q    Type
REMARK                         _______ _______ _______ _____ _____    ______ ____
ROOT
ATOM      1  C   UNL     1      48.268   8.042  12.140  0.00  0.00    +0.000 C 
ENDROOT
BRANCH   1   2
ATOM      2  C   UNL     1      48.472   7.602  13.584  0.00  0.00    +0.000 A 
ATOM      3  C   UNL     1      48.508   6.258  13.934  0.00  0.00    +0.000 A 
ATOM      4  N   UNL     1      48.585   5.834  15.224  0.00  0.00    +0.000 NA
ATOM      5  C   UNL     1      48.648   6.806  16.173  0.00  0.00    +0.000 A 
ATOM      6  C   UNL     1      48.589   8.148  15.823  0.00  0.00    +0.000 A 
ATOM      7  N   UNL     1      48.494   8.566  14.545  0.00  0.00    +0.000 NA
BRANCH   5   8
ATOM      8  C   UNL     1      48.636   6.418  17.642  0.00  0.00    +0.000 C 
BRANCH   8   9
ATOM      9  N   UNL     1      47.946   7.445  18.445  0.00  0.00    +0.000 NA
ATOM     10  H   UNL     1      47.303   6.974  19.083  0.00  0.00    +0.000 HD
ATOM     11  H   UNL     1      47.365   8.023  17.840  0.00  0.00    +0.000 HD
ENDBRANCH   8   9
BRANCH   8  12
ATOM     12  C   UNL     1      48.008   5.020  17.846  0.00  0.00    +0.000 C 
BRANCH  12  13
ATOM     13  C   UNL     1      48.920   3.899  17.417  0.00  0.00    +0.000 A 
ATOM     14  C   UNL     1      50.243   3.820  17.842  0.00  0.00    +0.000 A 
ATOM     15  C   UNL     1      50.990   2.725  17.448  0.00  0.00    +0.000 A 
ATOM     16  N   UNL     1      50.494   1.740  16.671  0.00  0.00    +0.000 NA
ATOM     17  N   UNL     1      49.206   1.811  16.250  0.00  0.00    +0.000 NA
ATOM     18  C   UNL     1      48.446   2.863  16.625  0.00  0.00    +0.000 A 
ENDBRANCH  12  13
ENDBRANCH   8  12
ENDBRANCH   5   8
ENDBRANCH   1   2
BRANCH   1  19
ATOM     19  N   UNL     1      47.509   7.009  11.454  0.00  0.00    +0.000 N 
ATOM     20  C   UNL     1      46.155   6.852  11.560  0.00  0.00    +0.000 C 
ATOM     21  O   UNL     1      45.448   7.649  12.172  0.00  0.00    +0.000 OA
ATOM     22  H   UNL     1      48.072   6.261  11.061  0.00  0.00    +0.000 HD
BRANCH  20  23
ATOM     23  C   UNL     1      45.584   5.703  10.846  0.00  0.00    +0.000 A 
ATOM     24  C   UNL     1      45.708   5.608   9.466  0.00  0.00    +0.000 A 
ATOM     25  S   UNL     1      45.006   4.196   8.813  0.00  0.00    +0.000 S 
ATOM     26  C   UNL     1      44.465   3.688  10.344  0.00  0.00    +0.000 A 
ATOM     27  N   UNL     1      43.745   2.543  10.488  0.00  0.00    +0.000 NA
ATOM     28  C   UNL     1      43.364   2.300  11.697  0.00  0.00    +0.000 A 
ATOM     29  N   UNL     1      43.647   3.092  12.779  0.00  0.00    +0.000 N 
ATOM     30  C   UNL     1      44.415   4.227  12.688  0.00  0.00    +0.000 A 
ATOM     31  O   UNL     1      44.723   4.864  13.689  0.00  0.00    +0.000 OA
ATOM     32  C   UNL     1      44.841   4.566  11.343  0.00  0.00    +0.000 A 
ATOM     33  H   UNL     1      43.343   2.833  13.705  0.00  0.00    +0.000 HD
ENDBRANCH  20  23
ENDBRANCH   1  19
BRANCH   1  35
ATOM     34  C   UNL     1      48.251  10.529  11.423  0.00  0.00    +0.000 C 
ATOM     35  C   UNL     1      47.518   9.393  12.117  0.00  0.00    +0.000 C 
ENDBRANCH   1  35
TORSDOF 8
ENDMDL
MODEL 7
REMARK VINA RESULT:    -7.162      3.876      8.635
REMARK INTER + INTRA:         -10.874
REMARK INTER:                  -9.779
REMARK INTRA:                  -1.096
REMARK UNBOUND:                -0.572
REMARK  Name = 
REMARK  9 active torsions:
REMARK  status: ('A' for Active; 'I' for Inactive)
REMARK    1  A    between atoms: C_1  and  C_2
REMARK    2  A    between atoms: C_2  and  C_3
REMARK    3  A    between atoms: C_3  and  N_4
REMARK    4  A    between atoms: C_3  and  C_17
REMARK    5  A    between atoms: C_5  and  C_7
REMARK    6  A    between atoms: C_20  and  C_21
REMARK    7  A    between atoms: C_21  and  N_22
REMARK    8  A    between atoms: C_21  and  C_23
REMARK    9  A    between atoms: C_23  and  C_24
REMARK                            x       y       z     vdW  Elec       q    Type
REMARK                         _______ _______ _______ _____ _____    ______ ____
ROOT
ATOM      1  C   UNL     1      49.046   7.422  16.175  0.00  0.00    +0.000 C 
ENDROOT
BRANCH   1   2
ATOM      2  C   UNL     1      49.700   6.146  16.690  0.00  0.00    +0.000 A 
ATOM      3  C   UNL     1      51.079   6.041  16.820  0.00  0.00    +0.000 A 
ATOM      4  N   UNL     1      51.699   4.884  17.177  0.00  0.00    +0.000 NA
ATOM      5  C   UNL     1      50.889   3.820  17.427  0.00  0.00    +0.000 A 
ATOM      6  C   UNL     1      49.513   3.922  17.275  0.00  0.00    +0.000 A 
ATOM      7  N   UNL     1      48.902   5.064  16.903  0.00  0.00    +0.000 NA
BRANCH   5   8
ATOM      8  C   UNL     1      51.506   2.467  17.736  0.00  0.00    +0.000 C 
BRANCH   8   9
ATOM      9  N   UNL     1      50.808   1.397  16.998  0.00  0.00    +0.000 NA
ATOM     10  H   UNL     1      51.410   1.093  16.231  0.00  0.00    +0.000 HD
ATOM     11  H   UNL     1      49.967   1.772  16.560  0.00  0.00    +0.000 HD
ENDBRANCH   8   9
BRANCH   8  12
ATOM     12  C   UNL     1      53.024   2.465  17.441  0.00  0.00    +0.000 C 
BRANCH  12  13
ATOM     13  C   UNL     1      53.835   1.843  18.548  0.00  0.00    +0.000 A 
ATOM     14  C   UNL     1      54.316   2.589  19.621  0.00  0.00    +0.000 A 
ATOM     15  C   UNL     1      55.000   1.925  20.622  0.00  0.00    +0.000 A 
ATOM     16  N   UNL     1      55.224   0.595  20.601  0.00  0.00    +0.000 NA
ATOM     17  N   UNL     1      54.760  -0.139  19.557  0.00  0.00    +0.000 NA
ATOM     18  C   UNL     1      54.080   0.477  18.567  0.00  0.00    +0.000 A 
ENDBRANCH  12  13
ENDBRANCH   8  12
ENDBRANCH   5   8
ENDBRANCH   1   2
BRANCH   1  19
ATOM     19  N   UNL     1      47.976   7.048  15.266  0.00  0.00    +0.000 N 
ATOM     20  C   UNL     1      48.159   6.748  13.944  0.00  0.00    +0.000 C 
ATOM     21  O   UNL     1      49.276   6.670  13.439  0.00  0.00    +0.000 OA
ATOM     22  H   UNL     1      47.040   7.239  15.612  0.00  0.00    +0.000 HD
BRANCH  20  23
ATOM     23  C   UNL     1      46.941   6.465  13.174  0.00  0.00    +0.000 A 
ATOM     24  C   UNL     1      46.220   7.505  12.605  0.00  0.00    +0.000 A 
ATOM     25  S   UNL     1      44.850   6.987  11.728  0.00  0.00    +0.000 S 
ATOM     26  C   UNL     1      45.143   5.359  12.123  0.00  0.00    +0.000 A 
ATOM     27  N   UNL     1      44.302   4.374  11.707  0.00  0.00    +0.000 NA
ATOM     28  C   UNL     1      44.620   3.191  12.113  0.00  0.00    +0.000 A 
ATOM     29  N   UNL     1      45.711   2.900  12.888  0.00  0.00    +0.000 N 
ATOM     30  C   UNL     1      46.616   3.854  13.286  0.00  0.00    +0.000 A 
ATOM     31  O   UNL     1      47.628   3.546  13.906  0.00  0.00    +0.000 OA
ATOM     32  C   UNL     1      46.286   5.209  12.886  0.00  0.00    +0.000 A 
ATOM     33  H   UNL     1      45.922   1.949  13.151  0.00  0.00    +0.000 HD
ENDBRANCH  20  23
ENDBRANCH   1  19
BRANCH   1  35
ATOM     34  C   UNL     1      47.972   9.619  17.024  0.00  0.00    +0.000 C 
ATOM     35  C   UNL     1      48.501   8.237  17.370  0.00  0.00    +0.000 C 
ENDBRANCH   1  35
TORSDOF 8
ENDMDL
MODEL 8
REMARK VINA RESULT:    -6.647      2.898      4.520
REMARK INTER + INTRA:         -10.133
REMARK INTER:                  -8.941
REMARK INTRA:                  -1.192
REMARK UNBOUND:                -0.572
REMARK  Name = 
REMARK  9 active torsions:
REMARK  status: ('A' for Active; 'I' for Inactive)
REMARK    1  A    between atoms: C_1  and  C_2
REMARK    2  A    between atoms: C_2  and  C_3
REMARK    3  A    between atoms: C_3  and  N_4
REMARK    4  A    between atoms: C_3  and  C_17
REMARK    5  A    between atoms: C_5  and  C_7
REMARK    6  A    between atoms: C_20  and  C_21
REMARK    7  A    between atoms: C_21  and  N_22
REMARK    8  A    between atoms: C_21  and  C_23
REMARK    9  A    between atoms: C_23  and  C_24
REMARK                            x       y       z     vdW  Elec       q    Type
REMARK                         _______ _______ _______ _____ _____    ______ ____
ROOT
ATOM      1  C   UNL     1      50.681   8.326  15.487  0.00  0.00    +0.000 C 
ENDROOT
BRANCH   1   2
ATOM      2  C   UNL     1      49.422   7.978  14.703  0.00  0.00    +0.000 A 
ATOM      3  C   UNL     1      48.351   8.860  14.624  0.00  0.00    +0.000 A 
ATOM      4  N   UNL     1      47.176   8.539  14.020  0.00  0.00    +0.000 NA
ATOM      5  C   UNL     1      47.103   7.298  13.468  0.00  0.00    +0.000 A 
ATOM      6  C   UNL     1      48.166   6.411  13.568  0.00  0.00    +0.000 A 
ATOM      7  N   UNL     1      49.324   6.725  14.184  0.00  0.00    +0.000 NA
BRANCH   5   8
ATOM      8  C   UNL     1      45.793   6.825  12.861  0.00  0.00    +0.000 C 
BRANCH   8   9
ATOM      9  N   UNL     1      44.948   7.977  12.490  0.00  0.00    +0.000 NA
ATOM     10  H   UNL     1      45.361   8.426  11.672  0.00  0.00    +0.000 HD
ATOM     11  H   UNL     1      44.970   8.674  13.232  0.00  0.00    +0.000 HD
ENDBRANCH   8   9
BRANCH   8  12
ATOM     12  C   UNL     1      46.040   5.889  11.656  0.00  0.00    +0.000 C 
BRANCH  12  13
ATOM     13  C   UNL     1      45.074   4.733  11.604  0.00  0.00    +0.000 A 
ATOM     14  C   UNL     1      44.738   4.104  10.409  0.00  0.00    +0.000 A 
ATOM     15  C   UNL     1      43.890   3.013  10.463  0.00  0.00    +0.000 A 
ATOM     16  N   UNL     1      43.374   2.541  11.616  0.00  0.00    +0.000 NA
ATOM     17  N   UNL     1      43.694   3.151  12.785  0.00  0.00    +0.000 NA
ATOM     18  C   UNL     1      44.528   4.213  12.769  0.00  0.00    +0.000 A 
ENDBRANCH  12  13
ENDBRANCH   8  12
ENDBRANCH   5   8
ENDBRANCH   1   2
BRANCH   1  19
ATOM     19  N   UNL     1      51.276   7.088  15.962  0.00  0.00    +0.000 N 
ATOM     20  C   UNL     1      51.002   6.518  17.174  0.00  0.00    +0.000 C 
ATOM     21  O   UNL     1      50.139   6.963  17.927  0.00  0.00    +0.000 OA
ATOM     22  H   UNL     1      52.086   6.778  15.433  0.00  0.00    +0.000 HD
BRANCH  20  23
ATOM     23  C   UNL     1      51.762   5.304  17.501  0.00  0.00    +0.000 A 
ATOM     24  C   UNL     1      53.079   5.401  17.929  0.00  0.00    +0.000 A 
ATOM     25  S   UNL     1      53.794   3.893  18.285  0.00  0.00    +0.000 S 
ATOM     26  C   UNL     1      52.386   3.054  17.827  0.00  0.00    +0.000 A 
ATOM     27  N   UNL     1      52.338   1.695  17.859  0.00  0.00    +0.000 NA
ATOM     28  C   UNL     1      51.225   1.189  17.447  0.00  0.00    +0.000 A 
ATOM     29  N   UNL     1      50.149   1.918  17.015  0.00  0.00    +0.000 N 
ATOM     30  C   UNL     1      50.134   3.291  17.017  0.00  0.00    +0.000 A 
ATOM     31  O   UNL     1      49.123   3.913  16.708  0.00  0.00    +0.000 OA
ATOM     32  C   UNL     1      51.375   3.913  17.439  0.00  0.00    +0.000 A 
ATOM     33  H   UNL     1      49.295   1.463  16.730  0.00  0.00    +0.000 HD
ENDBRANCH  20  23
ENDBRANCH   1  19
BRANCH   1  35
ATOM     34  C   UNL     1      52.905   8.333  14.162  0.00  0.00    +0.000 C 
ATOM     35  C   UNL     1      51.658   9.099  14.573  0.00  0.00    +0.000 C 
ENDBRANCH   1  35
TORSDOF 8
ENDMDL
MODEL 9
REMARK VINA RESULT:    -6.469      3.136      4.545
REMARK INTER + INTRA:          -9.878
REMARK INTER:                  -8.772
REMARK INTRA:                  -1.106
REMARK UNBOUND:                -0.572
REMARK  Name = 
REMARK  9 active torsions:
REMARK  status: ('A' for Active; 'I' for Inactive)
REMARK    1  A    between atoms: C_1  and  C_2
REMARK    2  A    between atoms: C_2  and  C_3
REMARK    3  A    between atoms: C_3  and  N_4
REMARK    4  A    between atoms: C_3  and  C_17
REMARK    5  A    between atoms: C_5  and  C_7
REMARK    6  A    between atoms: C_20  and  C_21
REMARK    7  A    between atoms: C_21  and  N_22
REMARK    8  A    between atoms: C_21  and  C_23
REMARK    9  A    between atoms: C_23  and  C_24
REMARK                            x       y       z     vdW  Elec       q    Type
REMARK                         _______ _______ _______ _____ _____    ______ ____
ROOT
ATOM      1  C   UNL     1      50.235   7.187  16.416  0.00  0.00    +0.000 C 
ENDROOT
BRANCH   1   2
ATOM      2  C   UNL     1      49.130   6.611  15.539  0.00  0.00    +0.000 A 
ATOM      3  C   UNL     1      48.274   5.623  16.008  0.00  0.00    +0.000 A 
ATOM      4  N   UNL     1      47.347   5.017  15.219  0.00  0.00    +0.000 NA
ATOM      5  C   UNL     1      47.280   5.446  13.930  0.00  0.00    +0.000 A 
ATOM      6  C   UNL     1      48.152   6.417  13.458  0.00  0.00    +0.000 A 
ATOM      7  N   UNL     1      49.083   7.004  14.237  0.00  0.00    +0.000 NA
BRANCH   5   8
ATOM      8  C   UNL     1      46.340   4.752  12.959  0.00  0.00    +0.000 C 
BRANCH   8   9
ATOM      9  N   UNL     1      45.324   3.970  13.689  0.00  0.00    +0.000 NA
ATOM     10  H   UNL     1      45.558   2.980  13.599  0.00  0.00    +0.000 HD
ATOM     11  H   UNL     1      44.415   4.084  13.244  0.00  0.00    +0.000 HD
ENDBRANCH   8   9
BRANCH   8  12
ATOM     12  C   UNL     1      45.690   5.766  11.990  0.00  0.00    +0.000 C 
BRANCH  12  13
ATOM     13  C   UNL     1      45.296   5.148  10.673  0.00  0.00    +0.000 A 
ATOM     14  C   UNL     1      46.062   5.309   9.522  0.00  0.00    +0.000 A 
ATOM     15  C   UNL     1      45.656   4.657   8.373  0.00  0.00    +0.000 A 
ATOM     16  N   UNL     1      44.554   3.881   8.319  0.00  0.00    +0.000 NA
ATOM     17  N   UNL     1      43.800   3.721   9.437  0.00  0.00    +0.000 NA
ATOM     18  C   UNL     1      44.174   4.337  10.579  0.00  0.00    +0.000 A 
ENDBRANCH  12  13
ENDBRANCH   8  12
ENDBRANCH   5   8
ENDBRANCH   1   2
BRANCH   1  19
ATOM     19  N   UNL     1      51.047   6.085  16.903  0.00  0.00    +0.000 N 
ATOM     20  C   UNL     1      51.182   5.754  18.223  0.00  0.00    +0.000 C 
ATOM     21  O   UNL     1      50.534   6.308  19.107  0.00  0.00    +0.000 OA
ATOM     22  H   UNL     1      51.697   5.704  16.221  0.00  0.00    +0.000 HD
BRANCH  20  23
ATOM     23  C   UNL     1      52.107   4.652  18.518  0.00  0.00    +0.000 A 
ATOM     24  C   UNL     1      53.272   4.893  19.234  0.00  0.00    +0.000 A 
ATOM     25  S   UNL     1      54.211   3.493  19.503  0.00  0.00    +0.000 S 
ATOM     26  C   UNL     1      53.121   2.525  18.625  0.00  0.00    +0.000 A 
ATOM     27  N   UNL     1      53.356   1.199  18.438  0.00  0.00    +0.000 NA
ATOM     28  C   UNL     1      52.471   0.595  17.719  0.00  0.00    +0.000 A 
ATOM     29  N   UNL     1      51.363   1.194  17.179  0.00  0.00    +0.000 N 
ATOM     30  C   UNL     1      51.059   2.517  17.387  0.00  0.00    +0.000 A 
ATOM     31  O   UNL     1      50.014   3.000  16.963  0.00  0.00    +0.000 OA
ATOM     32  C   UNL     1      52.041   3.253  18.161  0.00  0.00    +0.000 A 
ATOM     33  H   UNL     1      50.692   0.661  16.647  0.00  0.00    +0.000 HD
ENDBRANCH  20  23
ENDBRANCH   1  19
BRANCH   1  35
ATOM     34  C   UNL     1      52.503   7.731  15.294  0.00  0.00    +0.000 C 
ATOM     35  C   UNL     1      51.081   8.180  15.588  0.00  0.00    +0.000 C 
ENDBRANCH   1  35
TORSDOF 8
ENDMDL
