MODEL 1
REMARK VINA RESULT:    -9.080      0.000      0.000
REMARK INTER + INTRA:         -11.862
REMARK INTER:                 -11.203
REMARK INTRA:                  -0.659
REMARK UNBOUND:                -0.659
REMARK  Name = 
REMARK  4 active torsions:
REMARK  status: ('A' for Active; 'I' for Inactive)
REMARK    1  A    between atoms: C_2  and  C_4
REMARK    2  A    between atoms: N_8  and  C_9
REMARK    3  A    between atoms: C_9  and  C_10
REMARK    4  A    between atoms: C_15  and  N_16
REMARK                            x       y       z     vdW  Elec       q    Type
REMARK                         _______ _______ _______ _____ _____    ______ ____
ROOT
ATOM      1  C   UNL     1      43.483   4.389  11.029  0.00  0.00    +0.000 C 
ENDROOT
BRANCH   1   6
ATOM      2  C   UNL     1      46.464   2.456   7.638  0.00  0.00    +0.000 A 
ATOM      3  C   UNL     1      45.616   1.943   8.588  0.00  0.00    +0.000 A 
ATOM      4  N   UNL     1      44.733   2.691   9.283  0.00  0.00    +0.000 NA
ATOM      5  C   UNL     1      44.705   4.009   9.025  0.00  0.00    +0.000 A 
ATOM      6  N   UNL     1      43.802   4.826   9.685  0.00  0.00    +0.000 N 
ATOM      7  N   UNL     1      45.515   4.608   8.141  0.00  0.00    +0.000 NA
ATOM      8  C   UNL     1      46.383   3.818   7.465  0.00  0.00    +0.000 A 
ATOM      9  H   UNL     1      44.142   5.776   9.604  0.00  0.00    +0.000 HD
BRANCH   2  11
ATOM     10  N   UNL     1      48.463   2.299   6.272  0.00  0.00    +0.000 N 
ATOM     11  C   UNL     1      47.424   1.647   6.879  0.00  0.00    +0.000 C 
ATOM     12  O   UNL     1      47.313   0.430   6.814  0.00  0.00    +0.000 OA
ATOM     13  H   UNL     1      49.161   1.712   5.828  0.00  0.00    +0.000 HD
ATOM     14  H   UNL     1      48.739   3.243   6.500  0.00  0.00    +0.000 HD
ENDBRANCH   2  11
ENDBRANCH   1   6
BRANCH   1  15
ATOM     15  C   UNL     1      44.596   4.772  11.977  0.00  0.00    +0.000 A 
ATOM     16  C   UNL     1      45.355   3.783  12.608  0.00  0.00    +0.000 A 
ATOM     17  C   UNL     1      46.422   4.149  13.412  0.00  0.00    +0.000 A 
ATOM     18  F   UNL     1      47.151   3.199  14.012  0.00  0.00    +0.000 F 
ATOM     19  C   UNL     1      46.759   5.488  13.602  0.00  0.00    +0.000 A 
ATOM     20  C   UNL     1      46.020   6.512  13.000  0.00  0.00    +0.000 A 
ATOM     21  C   UNL     1      44.935   6.122  12.189  0.00  0.00    +0.000 A 
BRANCH  20  22
ATOM     22  N   UNL     1      46.341   7.844  13.159  0.00  0.00    +0.000 N 
ATOM     23  C   UNL     1      45.403   8.943  12.874  0.00  0.00    +0.000 C 
ATOM     24  C   UNL     1      45.955   9.847  11.762  0.00  0.00    +0.000 C 
ATOM     25  O   UNL     1      47.274  10.323  12.080  0.00  0.00    +0.000 OA
ATOM     26  C   UNL     1      48.174   9.215  12.244  0.00  0.00    +0.000 C 
ATOM     27  C   UNL     1      47.730   8.279  13.382  0.00  0.00    +0.000 C 
ENDBRANCH  20  22
ENDBRANCH   1  15
TORSDOF 4
ENDMDL
MODEL 2
REMARK VINA RESULT:    -8.132      2.215      2.934
REMARK INTER + INTRA:         -10.692
REMARK INTER:                 -10.039
REMARK INTRA:                  -0.654
REMARK UNBOUND:                -0.659
REMARK  Name = 
REMARK  4 active torsions:
REMARK  status: ('A' for Active; 'I' for Inactive)
REMARK    1  A    between atoms: C_2  and  C_4
REMARK    2  A    between atoms: N_8  and  C_9
REMARK    3  A    between atoms: C_9  and  C_10
REMARK    4  A    between atoms: C_15  and  N_16
REMARK                            x       y       z     vdW  Elec       q    Type
REMARK                         _______ _______ _______ _____ _____    ______ ____
ROOT
ATOM      1  C   UNL     1      43.669   4.972  11.017  0.00  0.00    +0.000 C 
ENDROOT
BRANCH   1   6
ATOM      2  C   UNL     1      46.239   2.166   7.913  0.00  0.00    +0.000 A 
ATOM      3  C   UNL     1      45.584   1.948   9.099  0.00  0.00    +0.000 A 
ATOM      4  N   UNL     1      44.763   2.851   9.675  0.00  0.00    +0.000 NA
ATOM      5  C   UNL     1      44.600   4.026   9.045  0.00  0.00    +0.000 A 
ATOM      6  N   UNL     1      43.750   4.984   9.571  0.00  0.00    +0.000 N 
ATOM      7  N   UNL     1      45.222   4.346   7.901  0.00  0.00    +0.000 NA
ATOM      8  C   UNL     1      46.034   3.408   7.357  0.00  0.00    +0.000 A 
ATOM      9  H   UNL     1      44.003   5.872   9.155  0.00  0.00    +0.000 HD
BRANCH   2  11
ATOM     10  N   UNL     1      48.233   1.663   6.624  0.00  0.00    +0.000 N 
ATOM     11  C   UNL     1      47.131   1.186   7.281  0.00  0.00    +0.000 C 
ATOM     12  O   UNL     1      46.910  -0.014   7.365  0.00  0.00    +0.000 OA
ATOM     13  H   UNL     1      48.880   0.966   6.272  0.00  0.00    +0.000 HD
ATOM     14  H   UNL     1      48.590   2.600   6.740  0.00  0.00    +0.000 HD
ENDBRANCH   2  11
ENDBRANCH   1   6
BRANCH   1  15
ATOM     15  C   UNL     1      44.587   6.024  11.597  0.00  0.00    +0.000 A 
ATOM     16  C   UNL     1      44.207   7.369  11.595  0.00  0.00    +0.000 A 
ATOM     17  C   UNL     1      45.022   8.310  12.202  0.00  0.00    +0.000 A 
ATOM     18  F   UNL     1      44.654   9.598  12.202  0.00  0.00    +0.000 F 
ATOM     19  C   UNL     1      46.216   7.943  12.820  0.00  0.00    +0.000 A 
ATOM     20  C   UNL     1      46.641   6.610  12.837  0.00  0.00    +0.000 A 
ATOM     21  C   UNL     1      45.802   5.666  12.212  0.00  0.00    +0.000 A 
BRANCH  20  22
ATOM     22  N   UNL     1      47.811   6.218  13.456  0.00  0.00    +0.000 N 
ATOM     23  C   UNL     1      47.843   5.475  14.727  0.00  0.00    +0.000 C 
ATOM     24  C   UNL     1      48.574   6.286  15.806  0.00  0.00    +0.000 C 
ATOM     25  O   UNL     1      49.887   6.679  15.368  0.00  0.00    +0.000 OA
ATOM     26  C   UNL     1      49.792   7.490  14.186  0.00  0.00    +0.000 C 
ATOM     27  C   UNL     1      49.120   6.735  13.024  0.00  0.00    +0.000 C 
ENDBRANCH  20  22
ENDBRANCH   1  15
TORSDOF 4
ENDMDL
MODEL 3
REMARK VINA RESULT:    -7.619      4.108      8.062
REMARK INTER + INTRA:         -10.060
REMARK INTER:                  -9.584
REMARK INTRA:                  -0.476
REMARK UNBOUND:                -0.659
REMARK  Name = 
REMARK  4 active torsions:
REMARK  status: ('A' for Active; 'I' for Inactive)
REMARK    1  A    between atoms: C_2  and  C_4
REMARK    2  A    between atoms: N_8  and  C_9
REMARK    3  A    between atoms: C_9  and  C_10
REMARK    4  A    between atoms: C_15  and  N_16
REMARK                            x       y       z     vdW  Elec       q    Type
REMARK                         _______ _______ _______ _____ _____    ______ ____
ROOT
ATOM      1  C   UNL     1      46.685   4.727  13.476  0.00  0.00    +0.000 C 
ENDROOT
BRANCH   1   6
ATOM      2  C   UNL     1      48.655   3.917  17.902  0.00  0.00    +0.000 A 
ATOM      3  C   UNL     1      47.830   4.877  17.370  0.00  0.00    +0.000 A 
ATOM      4  N   UNL     1      47.251   4.774  16.155  0.00  0.00    +0.000 NA
ATOM      5  C   UNL     1      47.519   3.671  15.436  0.00  0.00    +0.000 A 
ATOM      6  N   UNL     1      46.935   3.494  14.193  0.00  0.00    +0.000 N 
ATOM      7  N   UNL     1      48.337   2.695  15.855  0.00  0.00    +0.000 NA
ATOM      8  C   UNL     1      48.893   2.839  17.082  0.00  0.00    +0.000 A 
ATOM      9  H   UNL     1      47.486   2.804  13.698  0.00  0.00    +0.000 HD
BRANCH   2  11
ATOM     10  N   UNL     1      48.540   3.654  20.311  0.00  0.00    +0.000 N 
ATOM     11  C   UNL     1      49.284   4.024  19.224  0.00  0.00    +0.000 C 
ATOM     12  O   UNL     1      50.441   4.405  19.344  0.00  0.00    +0.000 OA
ATOM     13  H   UNL     1      49.023   3.652  21.203  0.00  0.00    +0.000 HD
ATOM     14  H   UNL     1      47.695   3.106  20.249  0.00  0.00    +0.000 HD
ENDBRANCH   2  11
ENDBRANCH   1   6
BRANCH   1  15
ATOM     15  C   UNL     1      45.481   4.570  12.577  0.00  0.00    +0.000 A 
ATOM     16  C   UNL     1      44.247   5.108  12.951  0.00  0.00    +0.000 A 
ATOM     17  C   UNL     1      43.173   5.025  12.081  0.00  0.00    +0.000 A 
ATOM     18  F   UNL     1      41.992   5.545  12.440  0.00  0.00    +0.000 F 
ATOM     19  C   UNL     1      43.298   4.418  10.832  0.00  0.00    +0.000 A 
ATOM     20  C   UNL     1      44.511   3.856  10.420  0.00  0.00    +0.000 A 
ATOM     21  C   UNL     1      45.592   3.945  11.319  0.00  0.00    +0.000 A 
BRANCH  20  22
ATOM     22  N   UNL     1      44.666   3.263   9.183  0.00  0.00    +0.000 N 
ATOM     23  C   UNL     1      44.758   1.806   8.991  0.00  0.00    +0.000 C 
ATOM     24  C   UNL     1      46.109   1.431   8.366  0.00  0.00    +0.000 C 
ATOM     25  O   UNL     1      46.345   2.159   7.149  0.00  0.00    +0.000 OA
ATOM     26  C   UNL     1      46.351   3.572   7.411  0.00  0.00    +0.000 C 
ATOM     27  C   UNL     1      45.008   4.054   7.990  0.00  0.00    +0.000 C 
ENDBRANCH  20  22
ENDBRANCH   1  15
TORSDOF 4
ENDMDL
MODEL 4
REMARK VINA RESULT:    -7.436      2.790      3.691
REMARK INTER + INTRA:          -9.834
REMARK INTER:                  -9.201
REMARK INTRA:                  -0.632
REMARK UNBOUND:                -0.659
REMARK  Name = 
REMARK  4 active torsions:
REMARK  status: ('A' for Active; 'I' for Inactive)
REMARK    1  A    between atoms: C_2  and  C_4
REMARK    2  A    between atoms: N_8  and  C_9
REMARK    3  A    between atoms: C_9  and  C_10
REMARK    4  A    between atoms: C_15  and  N_16
REMARK                            x       y       z     vdW  Elec       q    Type
REMARK                         _______ _______ _______ _____ _____    ______ ____
ROOT
ATOM      1  C   UNL     1      44.543   5.579  11.752  0.00  0.00    +0.000 C 
ENDROOT
BRANCH   1   6
ATOM      2  C   UNL     1      46.050   2.461   8.271  0.00  0.00    +0.000 A 
ATOM      3  C   UNL     1      45.402   2.330   9.473  0.00  0.00    +0.000 A 
ATOM      4  N   UNL     1      44.907   3.373  10.173  0.00  0.00    +0.000 NA
ATOM      5  C   UNL     1      45.080   4.600   9.654  0.00  0.00    +0.000 A 
ATOM      6  N   UNL     1      44.573   5.709  10.310  0.00  0.00    +0.000 N 
ATOM      7  N   UNL     1      45.729   4.833   8.504  0.00  0.00    +0.000 NA
ATOM      8  C   UNL     1      46.205   3.756   7.834  0.00  0.00    +0.000 A 
ATOM      9  H   UNL     1      45.064   6.519   9.955  0.00  0.00    +0.000 HD
BRANCH   2  11
ATOM     10  N   UNL     1      47.175   1.602   6.300  0.00  0.00    +0.000 N 
ATOM     11  C   UNL     1      46.587   1.330   7.505  0.00  0.00    +0.000 C 
ATOM     12  O   UNL     1      46.534   0.188   7.944  0.00  0.00    +0.000 OA
ATOM     13  H   UNL     1      47.616   0.818   5.831  0.00  0.00    +0.000 HD
ATOM     14  H   UNL     1      47.467   2.526   6.017  0.00  0.00    +0.000 HD
ENDBRANCH   2  11
ENDBRANCH   1   6
BRANCH   1  15
ATOM     15  C   UNL     1      45.852   6.048  12.343  0.00  0.00    +0.000 A 
ATOM     16  C   UNL     1      46.520   7.146  11.794  0.00  0.00    +0.000 A 
ATOM     17  C   UNL     1      47.677   7.613  12.395  0.00  0.00    +0.000 A 
ATOM     18  F   UNL     1      48.313   8.668  11.869  0.00  0.00    +0.000 F 
ATOM     19  C   UNL     1      48.190   7.011  13.543  0.00  0.00    +0.000 A 
ATOM     20  C   UNL     1      47.562   5.903  14.121  0.00  0.00    +0.000 A 
ATOM     21  C   UNL     1      46.388   5.438  13.494  0.00  0.00    +0.000 A 
BRANCH  20  22
ATOM     22  N   UNL     1      48.040   5.298  15.265  0.00  0.00    +0.000 N 
ATOM     23  C   UNL     1      47.535   4.011  15.772  0.00  0.00    +0.000 C 
ATOM     24  C   UNL     1      46.926   4.184  17.170  0.00  0.00    +0.000 C 
ATOM     25  O   UNL     1      47.857   4.801  18.076  0.00  0.00    +0.000 OA
ATOM     26  C   UNL     1      48.235   6.099  17.589  0.00  0.00    +0.000 C 
ATOM     27  C   UNL     1      48.911   6.019  16.208  0.00  0.00    +0.000 C 
ENDBRANCH  20  22
ENDBRANCH   1  15
TORSDOF 4
ENDMDL
MODEL 5
REMARK VINA RESULT:    -7.005      5.239      7.796
REMARK INTER + INTRA:          -9.303
REMARK INTER:                  -8.708
REMARK INTRA:                  -0.595
REMARK UNBOUND:                -0.659
REMARK  Name = 
REMARK  4 active torsions:
REMARK  status: ('A' for Active; 'I' for Inactive)
REMARK    1  A    between atoms: C_2  and  C_4
REMARK    2  A    between atoms: N_8  and  C_9
REMARK    3  A    between atoms: C_9  and  C_10
REMARK    4  A    between atoms: C_15  and  N_16
REMARK                            x       y       z     vdW  Elec       q    Type
REMARK                         _______ _______ _______ _____ _____    ______ ____
ROOT
ATOM      1  C   UNL     1      48.650   6.482  15.748  0.00  0.00    +0.000 C 
ENDROOT
BRANCH   1   6
ATOM      2  C   UNL     1      51.008   2.505  17.406  0.00  0.00    +0.000 A 
ATOM      3  C   UNL     1      51.278   3.851  17.381  0.00  0.00    +0.000 A 
ATOM      4  N   UNL     1      50.367   4.789  17.045  0.00  0.00    +0.000 NA
ATOM      5  C   UNL     1      49.139   4.362  16.708  0.00  0.00    +0.000 A 
ATOM      6  N   UNL     1      48.152   5.277  16.380  0.00  0.00    +0.000 N 
ATOM      7  N   UNL     1      48.788   3.069  16.670  0.00  0.00    +0.000 NA
ATOM      8  C   UNL     1      49.733   2.163  17.018  0.00  0.00    +0.000 A 
ATOM      9  H   UNL     1      47.438   4.777  15.865  0.00  0.00    +0.000 HD
BRANCH   2  11
ATOM     10  N   UNL     1      51.523   0.248  18.132  0.00  0.00    +0.000 N 
ATOM     11  C   UNL     1      51.994   1.482  17.773  0.00  0.00    +0.000 C 
ATOM     12  O   UNL     1      53.194   1.718  17.732  0.00  0.00    +0.000 OA
ATOM     13  H   UNL     1      52.224  -0.467  18.296  0.00  0.00    +0.000 HD
ATOM     14  H   UNL     1      50.584  -0.068  17.941  0.00  0.00    +0.000 HD
ENDBRANCH   2  11
ENDBRANCH   1   6
BRANCH   1  15
ATOM     15  C   UNL     1      48.091   6.603  14.349  0.00  0.00    +0.000 A 
ATOM     16  C   UNL     1      48.670   7.485  13.433  0.00  0.00    +0.000 A 
ATOM     17  C   UNL     1      48.198   7.527  12.132  0.00  0.00    +0.000 A 
ATOM     18  F   UNL     1      48.757   8.371  11.254  0.00  0.00    +0.000 F 
ATOM     19  C   UNL     1      47.156   6.700  11.713  0.00  0.00    +0.000 A 
ATOM     20  C   UNL     1      46.539   5.809  12.598  0.00  0.00    +0.000 A 
ATOM     21  C   UNL     1      47.029   5.783  13.919  0.00  0.00    +0.000 A 
BRANCH  20  22
ATOM     22  N   UNL     1      45.517   4.970  12.205  0.00  0.00    +0.000 N 
ATOM     23  C   UNL     1      45.086   4.821  10.805  0.00  0.00    +0.000 C 
ATOM     24  C   UNL     1      43.619   5.247  10.646  0.00  0.00    +0.000 C 
ATOM     25  O   UNL     1      42.765   4.538  11.560  0.00  0.00    +0.000 OA
ATOM     26  C   UNL     1      43.163   4.802  12.915  0.00  0.00    +0.000 C 
ATOM     27  C   UNL     1      44.610   4.352  13.186  0.00  0.00    +0.000 C 
ENDBRANCH  20  22
ENDBRANCH   1  15
TORSDOF 4
ENDMDL
MODEL 6
REMARK VINA RESULT:    -6.657      4.435      8.286
REMARK INTER + INTRA:          -8.873
REMARK INTER:                  -8.205
REMARK INTRA:                  -0.668
REMARK UNBOUND:                -0.659
REMARK  Name = 
REMARK  4 active torsions:
REMARK  status: ('A' for Active; 'I' for Inactive)
REMARK    1  A    between atoms: C_2  and  C_4
REMARK    2  A    between atoms: N_8  and  C_9
REMARK    3  A    between atoms: C_9  and  C_10
REMARK    4  A    between atoms: C_15  and  N_16
REMARK                            x       y       z     vdW  Elec       q    Type
REMARK                         _______ _______ _______ _____ _____    ______ ____
ROOT
ATOM      1  C   UNL     1      49.234   7.337  14.006  0.00  0.00    +0.000 C 
ENDROOT
BRANCH   1   6
ATOM      2  C   UNL     1      48.872   5.250  18.437  0.00  0.00    +0.000 A 
ATOM      3  C   UNL     1      49.458   4.899  17.246  0.00  0.00    +0.000 A 
ATOM      4  N   UNL     1      49.598   5.746  16.204  0.00  0.00    +0.000 NA
ATOM      5  C   UNL     1      49.120   6.993  16.356  0.00  0.00    +0.000 A 
ATOM      6  N   UNL     1      49.256   7.917  15.333  0.00  0.00    +0.000 N 
ATOM      7  N   UNL     1      48.503   7.420  17.466  0.00  0.00    +0.000 NA
ATOM      8  C   UNL     1      48.388   6.537  18.487  0.00  0.00    +0.000 A 
ATOM      9  H   UNL     1      48.580   8.652  15.500  0.00  0.00    +0.000 HD
BRANCH   2  11
ATOM     10  N   UNL     1      48.375   3.038  19.300  0.00  0.00    +0.000 N 
ATOM     11  C   UNL     1      48.721   4.334  19.573  0.00  0.00    +0.000 C 
ATOM     12  O   UNL     1      48.924   4.710  20.720  0.00  0.00    +0.000 OA
ATOM     13  H   UNL     1      48.362   2.403  20.091  0.00  0.00    +0.000 HD
ATOM     14  H   UNL     1      48.444   2.623  18.383  0.00  0.00    +0.000 HD
ENDBRANCH   2  11
ENDBRANCH   1   6
BRANCH   1  15
ATOM     15  C   UNL     1      47.817   7.288  13.484  0.00  0.00    +0.000 A 
ATOM     16  C   UNL     1      47.018   8.435  13.507  0.00  0.00    +0.000 A 
ATOM     17  C   UNL     1      45.750   8.395  12.952  0.00  0.00    +0.000 A 
ATOM     18  F   UNL     1      44.987   9.497  12.971  0.00  0.00    +0.000 F 
ATOM     19  C   UNL     1      45.252   7.233  12.366  0.00  0.00    +0.000 A 
ATOM     20  C   UNL     1      46.012   6.058  12.330  0.00  0.00    +0.000 A 
ATOM     21  C   UNL     1      47.298   6.115  12.902  0.00  0.00    +0.000 A 
BRANCH  20  22
ATOM     22  N   UNL     1      45.549   4.899  11.742  0.00  0.00    +0.000 N 
ATOM     23  C   UNL     1      45.136   4.817  10.331  0.00  0.00    +0.000 C 
ATOM     24  C   UNL     1      43.656   4.423  10.225  0.00  0.00    +0.000 C 
ATOM     25  O   UNL     1      43.384   3.208  10.946  0.00  0.00    +0.000 OA
ATOM     26  C   UNL     1      43.704   3.376  12.337  0.00  0.00    +0.000 C 
ATOM     27  C   UNL     1      45.191   3.719  12.546  0.00  0.00    +0.000 C 
ENDBRANCH  20  22
ENDBRANCH   1  15
TORSDOF 4
ENDMDL
MODEL 7
REMARK VINA RESULT:    -6.585      4.556      8.040
REMARK INTER + INTRA:          -8.783
REMARK INTER:                  -8.309
REMARK INTRA:                  -0.475
REMARK UNBOUND:                -0.659
REMARK  Name = 
REMARK  4 active torsions:
REMARK  status: ('A' for Active; 'I' for Inactive)
REMARK    1  A    between atoms: C_2  and  C_4
REMARK    2  A    between atoms: N_8  and  C_9
REMARK    3  A    between atoms: C_9  and  C_10
REMARK    4  A    between atoms: C_15  and  N_16
REMARK                            x       y       z     vdW  Elec       q    Type
REMARK                         _______ _______ _______ _____ _____    ______ ____
ROOT
ATOM      1  C   UNL     1      47.888   6.414  14.002  0.00  0.00    +0.000 C 
ENDROOT
BRANCH   1   6
ATOM      2  C   UNL     1      50.421   4.405  17.699  0.00  0.00    +0.000 A 
ATOM      3  C   UNL     1      50.473   5.600  17.027  0.00  0.00    +0.000 A 
ATOM      4  N   UNL     1      49.522   6.013  16.162  0.00  0.00    +0.000 NA
ATOM      5  C   UNL     1      48.482   5.189  15.951  0.00  0.00    +0.000 A 
ATOM      6  N   UNL     1      47.460   5.566  15.096  0.00  0.00    +0.000 N 
ATOM      7  N   UNL     1      48.358   3.988  16.534  0.00  0.00    +0.000 NA
ATOM      8  C   UNL     1      49.335   3.617  17.397  0.00  0.00    +0.000 A 
ATOM      9  H   UNL     1      46.966   4.724  14.828  0.00  0.00    +0.000 HD
BRANCH   2  11
ATOM     10  N   UNL     1      51.373   4.409  19.931  0.00  0.00    +0.000 N 
ATOM     11  C   UNL     1      51.451   3.953  18.642  0.00  0.00    +0.000 C 
ATOM     12  O   UNL     1      52.330   3.177  18.293  0.00  0.00    +0.000 OA
ATOM     13  H   UNL     1      52.042   4.015  20.584  0.00  0.00    +0.000 HD
ATOM     14  H   UNL     1      50.546   4.833  20.324  0.00  0.00    +0.000 HD
ENDBRANCH   2  11
ENDBRANCH   1   6
BRANCH   1  15
ATOM     15  C   UNL     1      46.705   6.780  13.135  0.00  0.00    +0.000 A 
ATOM     16  C   UNL     1      46.377   8.121  12.921  0.00  0.00    +0.000 A 
ATOM     17  C   UNL     1      45.340   8.441  12.061  0.00  0.00    +0.000 A 
ATOM     18  F   UNL     1      45.029   9.728  11.853  0.00  0.00    +0.000 F 
ATOM     19  C   UNL     1      44.616   7.451  11.398  0.00  0.00    +0.000 A 
ATOM     20  C   UNL     1      44.903   6.095  11.591  0.00  0.00    +0.000 A 
ATOM     21  C   UNL     1      45.958   5.787  12.473  0.00  0.00    +0.000 A 
BRANCH  20  22
ATOM     22  N   UNL     1      44.212   5.096  10.936  0.00  0.00    +0.000 N 
ATOM     23  C   UNL     1      43.070   4.379  11.529  0.00  0.00    +0.000 C 
ATOM     24  C   UNL     1      43.380   2.881  11.650  0.00  0.00    +0.000 C 
ATOM     25  O   UNL     1      43.779   2.323  10.386  0.00  0.00    +0.000 OA
ATOM     26  C   UNL     1      44.959   2.986   9.903  0.00  0.00    +0.000 C 
ATOM     27  C   UNL     1      44.726   4.493   9.695  0.00  0.00    +0.000 C 
ENDBRANCH  20  22
ENDBRANCH   1  15
TORSDOF 4
ENDMDL
