MODEL 1
REMARK VINA RESULT:    -9.317      0.000      0.000
REMARK INTER + INTRA:         -13.041
REMARK INTER:                 -12.041
REMARK INTRA:                  -1.000
REMARK UNBOUND:                -1.000
REMARK  Name = 
REMARK  6 active torsions:
REMARK  status: ('A' for Active; 'I' for Inactive)
REMARK    1  A    between atoms: C_1  and  O_2
REMARK    2  A    between atoms: O_2  and  C_3
REMARK    3  A    between atoms: C_7  and  C_8
REMARK    4  A    between atoms: C_12  and  C_13
REMARK    5  A    between atoms: C_13  and  N_14
REMARK    6  A    between atoms: C_18  and  C_19
REMARK                            x       y       z     vdW  Elec       q    Type
REMARK                         _______ _______ _______ _____ _____    ______ ____
ROOT
ATOM      1  C   UNL     1      43.916   5.113  11.140  0.00  0.00    +0.000 C 
ATOM      2  C   UNL     1      42.651   5.804  11.630  0.00  0.00    +0.000 C 
ATOM      3  C   UNL     1      42.754   4.318  11.713  0.00  0.00    +0.000 C 
ENDROOT
BRANCH   1   4
ATOM      4  N   UNL     1      44.178   5.104   9.686  0.00  0.00    +0.000 N 
ATOM      5  C   UNL     1      44.990   4.155   9.048  0.00  0.00    +0.000 A 
ATOM      6  C   UNL     1      45.026   2.811   9.411  0.00  0.00    +0.000 A 
ATOM      7  C   UNL     1      45.790   1.909   8.666  0.00  0.00    +0.000 A 
ATOM      8  C   UNL     1      46.510   2.363   7.565  0.00  0.00    +0.000 A 
ATOM      9  C   UNL     1      46.442   3.717   7.281  0.00  0.00    +0.000 A 
ATOM     10  N   UNL     1      45.693   4.608   7.986  0.00  0.00    +0.000 NA
ATOM     11  H   UNL     1      44.428   6.001   9.273  0.00  0.00    +0.000 HD
BRANCH   8  12
ATOM     12  C   UNL     1      47.329   1.410   6.783  0.00  0.00    +0.000 C 
ATOM     13  N   UNL     1      48.387   1.909   6.075  0.00  0.00    +0.000 N 
ATOM     14  O   UNL     1      47.048   0.218   6.743  0.00  0.00    +0.000 OA
ATOM     15  H   UNL     1      48.517   2.893   5.880  0.00  0.00    +0.000 HD
ATOM     16  H   UNL     1      48.865   1.253   5.469  0.00  0.00    +0.000 HD
ENDBRANCH   8  12
ENDBRANCH   1   4
BRANCH   1  21
ATOM     17  C   UNL     1      47.195   6.675  12.470  0.00  0.00    +0.000 A 
ATOM     18  C   UNL     1      47.459   5.841  13.562  0.00  0.00    +0.000 A 
ATOM     19  C   UNL     1      46.611   4.774  13.872  0.00  0.00    +0.000 A 
ATOM     20  C   UNL     1      45.475   4.534  13.099  0.00  0.00    +0.000 A 
ATOM     21  C   UNL     1      45.167   5.335  11.987  0.00  0.00    +0.000 A 
ATOM     22  C   UNL     1      46.053   6.382  11.692  0.00  0.00    +0.000 A 
BRANCH  17  27
ATOM     23  C   UNL     1      50.217   8.741  11.481  0.00  0.00    +0.000 A 
ATOM     24  C   UNL     1      49.654  10.003  11.580  0.00  0.00    +0.000 A 
ATOM     25  N   UNL     1      48.358  10.238  11.894  0.00  0.00    +0.000 NA
ATOM     26  C   UNL     1      47.594   9.149  12.157  0.00  0.00    +0.000 A 
ATOM     27  C   UNL     1      48.046   7.830  12.121  0.00  0.00    +0.000 A 
ATOM     28  C   UNL     1      49.394   7.652  11.753  0.00  0.00    +0.000 A 
BRANCH  23  30
ATOM     29  C   UNL     1      51.933   7.562  10.365  0.00  0.00    +0.000 C 
ATOM     30  O   UNL     1      51.545   8.671  11.171  0.00  0.00    +0.000 OA
ENDBRANCH  23  30
ENDBRANCH  17  27
ENDBRANCH   1  21
TORSDOF 5
ENDMDL
MODEL 2
REMARK VINA RESULT:    -9.072      2.862      4.349
REMARK INTER + INTRA:         -12.723
REMARK INTER:                 -11.831
REMARK INTRA:                  -0.893
REMARK UNBOUND:                -1.000
REMARK  Name = 
REMARK  6 active torsions:
REMARK  status: ('A' for Active; 'I' for Inactive)
REMARK    1  A    between atoms: C_1  and  O_2
REMARK    2  A    between atoms: O_2  and  C_3
REMARK    3  A    between atoms: C_7  and  C_8
REMARK    4  A    between atoms: C_12  and  C_13
REMARK    5  A    between atoms: C_13  and  N_14
REMARK    6  A    between atoms: C_18  and  C_19
REMARK                            x       y       z     vdW  Elec       q    Type
REMARK                         _______ _______ _______ _____ _____    ______ ____
ROOT
ATOM      1  C   UNL     1      43.927   5.132  11.248  0.00  0.00    +0.000 C 
ATOM      2  C   UNL     1      42.552   5.554  11.745  0.00  0.00    +0.000 C 
ATOM      3  C   UNL     1      42.977   4.131  11.883  0.00  0.00    +0.000 C 
ENDROOT
BRANCH   1   4
ATOM      4  N   UNL     1      44.159   5.115   9.789  0.00  0.00    +0.000 N 
ATOM      5  C   UNL     1      44.975   4.176   9.141  0.00  0.00    +0.000 A 
ATOM      6  C   UNL     1      45.045   2.837   9.515  0.00  0.00    +0.000 A 
ATOM      7  C   UNL     1      45.811   1.943   8.762  0.00  0.00    +0.000 A 
ATOM      8  C   UNL     1      46.498   2.401   7.642  0.00  0.00    +0.000 A 
ATOM      9  C   UNL     1      46.397   3.751   7.347  0.00  0.00    +0.000 A 
ATOM     10  N   UNL     1      45.647   4.633   8.061  0.00  0.00    +0.000 NA
ATOM     11  H   UNL     1      44.382   6.013   9.363  0.00  0.00    +0.000 HD
BRANCH   8  12
ATOM     12  C   UNL     1      47.319   1.457   6.851  0.00  0.00    +0.000 C 
ATOM     13  N   UNL     1      48.344   1.972   6.107  0.00  0.00    +0.000 N 
ATOM     14  O   UNL     1      47.067   0.258   6.834  0.00  0.00    +0.000 OA
ATOM     15  H   UNL     1      48.445   2.955   5.895  0.00  0.00    +0.000 HD
ATOM     16  H   UNL     1      48.821   1.319   5.497  0.00  0.00    +0.000 HD
ENDBRANCH   8  12
ENDBRANCH   1   4
BRANCH   1  21
ATOM     17  C   UNL     1      46.744   5.337  13.891  0.00  0.00    +0.000 A 
ATOM     18  C   UNL     1      47.355   6.543  13.531  0.00  0.00    +0.000 A 
ATOM     19  C   UNL     1      46.869   7.302  12.463  0.00  0.00    +0.000 A 
ATOM     20  C   UNL     1      45.771   6.856  11.728  0.00  0.00    +0.000 A 
ATOM     21  C   UNL     1      45.115   5.657  12.051  0.00  0.00    +0.000 A 
ATOM     22  C   UNL     1      45.614   4.934  13.144  0.00  0.00    +0.000 A 
BRANCH  17  27
ATOM     23  C   UNL     1      47.795   4.195  17.351  0.00  0.00    +0.000 A 
ATOM     24  C   UNL     1      48.263   2.932  17.026  0.00  0.00    +0.000 A 
ATOM     25  N   UNL     1      48.220   2.400  15.782  0.00  0.00    +0.000 NA
ATOM     26  C   UNL     1      47.712   3.190  14.804  0.00  0.00    +0.000 A 
ATOM     27  C   UNL     1      47.236   4.488  14.995  0.00  0.00    +0.000 A 
ATOM     28  C   UNL     1      47.277   4.969  16.317  0.00  0.00    +0.000 A 
BRANCH  23  30
ATOM     29  C   UNL     1      48.742   5.744  18.864  0.00  0.00    +0.000 C 
ATOM     30  O   UNL     1      47.926   4.595  18.650  0.00  0.00    +0.000 OA
ENDBRANCH  23  30
ENDBRANCH  17  27
ENDBRANCH   1  21
TORSDOF 5
ENDMDL
MODEL 3
REMARK VINA RESULT:    -7.933      2.382      3.237
REMARK INTER + INTRA:         -11.252
REMARK INTER:                 -10.890
REMARK INTRA:                  -0.362
REMARK UNBOUND:                -1.000
REMARK  Name = 
REMARK  6 active torsions:
REMARK  status: ('A' for Active; 'I' for Inactive)
REMARK    1  A    between atoms: C_1  and  O_2
REMARK    2  A    between atoms: O_2  and  C_3
REMARK    3  A    between atoms: C_7  and  C_8
REMARK    4  A    between atoms: C_12  and  C_13
REMARK    5  A    between atoms: C_13  and  N_14
REMARK    6  A    between atoms: C_18  and  C_19
REMARK                            x       y       z     vdW  Elec       q    Type
REMARK                         _______ _______ _______ _____ _____    ______ ____
ROOT
ATOM      1  C   UNL     1      44.001   5.481  11.197  0.00  0.00    +0.000 C 
ATOM      2  C   UNL     1      42.600   5.288  11.760  0.00  0.00    +0.000 C 
ATOM      3  C   UNL     1      43.671   4.310  12.107  0.00  0.00    +0.000 C 
ENDROOT
BRANCH   1   4
ATOM      4  N   UNL     1      44.198   5.266   9.749  0.00  0.00    +0.000 N 
ATOM      5  C   UNL     1      44.940   4.202   9.214  0.00  0.00    +0.000 A 
ATOM      6  C   UNL     1      44.935   2.919   9.754  0.00  0.00    +0.000 A 
ATOM      7  C   UNL     1      45.626   1.890   9.110  0.00  0.00    +0.000 A 
ATOM      8  C   UNL     1      46.315   2.157   7.931  0.00  0.00    +0.000 A 
ATOM      9  C   UNL     1      46.291   3.463   7.469  0.00  0.00    +0.000 A 
ATOM     10  N   UNL     1      45.614   4.475   8.075  0.00  0.00    +0.000 NA
ATOM     11  H   UNL     1      44.467   6.086   9.209  0.00  0.00    +0.000 HD
BRANCH   8  12
ATOM     12  C   UNL     1      47.058   1.070   7.255  0.00  0.00    +0.000 C 
ATOM     13  N   UNL     1      46.769  -0.218   7.611  0.00  0.00    +0.000 N 
ATOM     14  O   UNL     1      47.928   1.317   6.429  0.00  0.00    +0.000 OA
ATOM     15  H   UNL     1      46.247  -0.467   8.441  0.00  0.00    +0.000 HD
ATOM     16  H   UNL     1      47.363  -0.933   7.210  0.00  0.00    +0.000 HD
ENDBRANCH   8  12
ENDBRANCH   1   4
BRANCH   1  21
ATOM     17  C   UNL     1      46.651   7.520  13.143  0.00  0.00    +0.000 A 
ATOM     18  C   UNL     1      46.315   8.823  12.757  0.00  0.00    +0.000 A 
ATOM     19  C   UNL     1      45.243   9.061  11.893  0.00  0.00    +0.000 A 
ATOM     20  C   UNL     1      44.496   7.995  11.391  0.00  0.00    +0.000 A 
ATOM     21  C   UNL     1      44.784   6.669  11.752  0.00  0.00    +0.000 A 
ATOM     22  C   UNL     1      45.852   6.469  12.639  0.00  0.00    +0.000 A 
BRANCH  17  27
ATOM     23  C   UNL     1      48.832   5.815  15.734  0.00  0.00    +0.000 A 
ATOM     24  C   UNL     1      49.876   6.725  15.765  0.00  0.00    +0.000 A 
ATOM     25  N   UNL     1      49.955   7.823  14.977  0.00  0.00    +0.000 NA
ATOM     26  C   UNL     1      48.913   8.039  14.137  0.00  0.00    +0.000 A 
ATOM     27  C   UNL     1      47.791   7.217  14.031  0.00  0.00    +0.000 A 
ATOM     28  C   UNL     1      47.787   6.073  14.852  0.00  0.00    +0.000 A 
BRANCH  23  30
ATOM     29  C   UNL     1      50.074   4.684  17.395  0.00  0.00    +0.000 C 
ATOM     30  O   UNL     1      48.890   4.765  16.605  0.00  0.00    +0.000 OA
ENDBRANCH  23  30
ENDBRANCH  17  27
ENDBRANCH   1  21
TORSDOF 5
ENDMDL
MODEL 4
REMARK VINA RESULT:    -7.022      5.175      8.343
REMARK INTER + INTRA:         -10.075
REMARK INTER:                  -9.158
REMARK INTRA:                  -0.916
REMARK UNBOUND:                -1.000
REMARK  Name = 
REMARK  6 active torsions:
REMARK  status: ('A' for Active; 'I' for Inactive)
REMARK    1  A    between atoms: C_1  and  O_2
REMARK    2  A    between atoms: O_2  and  C_3
REMARK    3  A    between atoms: C_7  and  C_8
REMARK    4  A    between atoms: C_12  and  C_13
REMARK    5  A    between atoms: C_13  and  N_14
REMARK    6  A    between atoms: C_18  and  C_19
REMARK                            x       y       z     vdW  Elec       q    Type
REMARK                         _______ _______ _______ _____ _____    ______ ____
ROOT
ATOM      1  C   UNL     1      49.102   7.206  16.634  0.00  0.00    +0.000 C 
ATOM      2  C   UNL     1      48.514   8.449  17.288  0.00  0.00    +0.000 C 
ATOM      3  C   UNL     1      49.982   8.204  17.367  0.00  0.00    +0.000 C 
ENDROOT
BRANCH   1   4
ATOM      4  N   UNL     1      48.795   5.896  17.243  0.00  0.00    +0.000 N 
ATOM      5  C   UNL     1      49.703   4.828  17.290  0.00  0.00    +0.000 A 
ATOM      6  C   UNL     1      51.069   4.994  17.503  0.00  0.00    +0.000 A 
ATOM      7  C   UNL     1      51.895   3.875  17.630  0.00  0.00    +0.000 A 
ATOM      8  C   UNL     1      51.345   2.600  17.541  0.00  0.00    +0.000 A 
ATOM      9  C   UNL     1      49.982   2.517  17.305  0.00  0.00    +0.000 A 
ATOM     10  N   UNL     1      49.160   3.594  17.192  0.00  0.00    +0.000 NA
ATOM     11  H   UNL     1      47.900   5.484  16.986  0.00  0.00    +0.000 HD
BRANCH   8  12
ATOM     12  C   UNL     1      52.221   1.414  17.663  0.00  0.00    +0.000 C 
ATOM     13  N   UNL     1      51.649   0.236  18.056  0.00  0.00    +0.000 N 
ATOM     14  O   UNL     1      53.426   1.493  17.454  0.00  0.00    +0.000 OA
ATOM     15  H   UNL     1      50.729   0.169  18.467  0.00  0.00    +0.000 HD
ATOM     16  H   UNL     1      52.288  -0.531  18.230  0.00  0.00    +0.000 HD
ENDBRANCH   8  12
ENDBRANCH   1   4
BRANCH   1  21
ATOM     17  C   UNL     1      47.952   6.570  12.996  0.00  0.00    +0.000 A 
ATOM     18  C   UNL     1      48.983   7.190  12.282  0.00  0.00    +0.000 A 
ATOM     19  C   UNL     1      50.052   7.798  12.948  0.00  0.00    +0.000 A 
ATOM     20  C   UNL     1      50.097   7.805  14.342  0.00  0.00    +0.000 A 
ATOM     21  C   UNL     1      49.092   7.190  15.107  0.00  0.00    +0.000 A 
ATOM     22  C   UNL     1      48.048   6.569  14.405  0.00  0.00    +0.000 A 
BRANCH  17  27
ATOM     23  C   UNL     1      45.020   4.261  12.325  0.00  0.00    +0.000 A 
ATOM     24  C   UNL     1      44.695   4.695  11.049  0.00  0.00    +0.000 A 
ATOM     25  N   UNL     1      45.318   5.710  10.407  0.00  0.00    +0.000 NA
ATOM     26  C   UNL     1      46.346   6.300  11.065  0.00  0.00    +0.000 A 
ATOM     27  C   UNL     1      46.791   5.938  12.338  0.00  0.00    +0.000 A 
ATOM     28  C   UNL     1      46.078   4.899  12.965  0.00  0.00    +0.000 A 
BRANCH  23  30
ATOM     29  C   UNL     1      43.406   2.583  11.920  0.00  0.00    +0.000 C 
ATOM     30  O   UNL     1      44.307   3.211  12.829  0.00  0.00    +0.000 OA
ENDBRANCH  23  30
ENDBRANCH  17  27
ENDBRANCH   1  21
TORSDOF 5
ENDMDL
MODEL 5
REMARK VINA RESULT:    -6.889      3.378      8.098
REMARK INTER + INTRA:          -9.902
REMARK INTER:                  -8.917
REMARK INTRA:                  -0.986
REMARK UNBOUND:                -1.000
REMARK  Name = 
REMARK  6 active torsions:
REMARK  status: ('A' for Active; 'I' for Inactive)
REMARK    1  A    between atoms: C_1  and  O_2
REMARK    2  A    between atoms: O_2  and  C_3
REMARK    3  A    between atoms: C_7  and  C_8
REMARK    4  A    between atoms: C_12  and  C_13
REMARK    5  A    between atoms: C_13  and  N_14
REMARK    6  A    between atoms: C_18  and  C_19
REMARK                            x       y       z     vdW  Elec       q    Type
REMARK                         _______ _______ _______ _____ _____    ______ ____
ROOT
ATOM      1  C   UNL     1      49.159   8.462  12.543  0.00  0.00    +0.000 C 
ATOM      2  C   UNL     1      49.907   9.212  11.450  0.00  0.00    +0.000 C 
ATOM      3  C   UNL     1      50.178   7.761  11.660  0.00  0.00    +0.000 C 
ENDROOT
BRANCH   1   4
ATOM      4  N   UNL     1      49.487   8.781  13.947  0.00  0.00    +0.000 N 
ATOM      5  C   UNL     1      49.064   8.010  15.040  0.00  0.00    +0.000 A 
ATOM      6  C   UNL     1      48.993   6.620  15.012  0.00  0.00    +0.000 A 
ATOM      7  C   UNL     1      48.651   5.917  16.171  0.00  0.00    +0.000 A 
ATOM      8  C   UNL     1      48.386   6.615  17.345  0.00  0.00    +0.000 A 
ATOM      9  C   UNL     1      48.456   7.997  17.287  0.00  0.00    +0.000 A 
ATOM     10  N   UNL     1      48.799   8.698  16.173  0.00  0.00    +0.000 NA
ATOM     11  H   UNL     1      49.351   9.751  14.227  0.00  0.00    +0.000 HD
BRANCH   8  12
ATOM     12  C   UNL     1      48.013   5.872  18.570  0.00  0.00    +0.000 C 
ATOM     13  N   UNL     1      46.709   5.485  18.708  0.00  0.00    +0.000 N 
ATOM     14  O   UNL     1      48.836   5.643  19.447  0.00  0.00    +0.000 OA
ATOM     15  H   UNL     1      45.952   5.849  18.145  0.00  0.00    +0.000 HD
ATOM     16  H   UNL     1      46.461   5.071  19.599  0.00  0.00    +0.000 HD
ENDBRANCH   8  12
ENDBRANCH   1   4
BRANCH   1  21
ATOM     17  C   UNL     1      45.849   6.781  11.455  0.00  0.00    +0.000 A 
ATOM     18  C   UNL     1      44.918   7.737  11.878  0.00  0.00    +0.000 A 
ATOM     19  C   UNL     1      45.335   8.920  12.493  0.00  0.00    +0.000 A 
ATOM     20  C   UNL     1      46.692   9.160  12.708  0.00  0.00    +0.000 A 
ATOM     21  C   UNL     1      47.669   8.238  12.297  0.00  0.00    +0.000 A 
ATOM     22  C   UNL     1      47.216   7.073  11.661  0.00  0.00    +0.000 A 
BRANCH  17  27
ATOM     23  C   UNL     1      45.247   4.101   8.842  0.00  0.00    +0.000 A 
ATOM     24  C   UNL     1      44.615   3.162   9.641  0.00  0.00    +0.000 A 
ATOM     25  N   UNL     1      44.412   3.306  10.971  0.00  0.00    +0.000 NA
ATOM     26  C   UNL     1      44.834   4.470  11.525  0.00  0.00    +0.000 A 
ATOM     27  C   UNL     1      45.456   5.505  10.825  0.00  0.00    +0.000 A 
ATOM     28  C   UNL     1      45.670   5.278   9.453  0.00  0.00    +0.000 A 
BRANCH  23  30
ATOM     29  C   UNL     1      46.689   3.610   7.034  0.00  0.00    +0.000 C 
ATOM     30  O   UNL     1      45.361   3.815   7.511  0.00  0.00    +0.000 OA
ENDBRANCH  23  30
ENDBRANCH  17  27
ENDBRANCH   1  21
TORSDOF 5
ENDMDL
