MODEL 1
REMARK VINA RESULT:    -8.212      0.000      0.000
REMARK INTER + INTRA:         -12.931
REMARK INTER:                 -12.052
REMARK INTRA:                  -0.879
REMARK UNBOUND:                -0.879
REMARK  Name = 
REMARK  8 active torsions:
REMARK  status: ('A' for Active; 'I' for Inactive)
REMARK    1  A    between atoms: C_2  and  C_3
REMARK    2  A    between atoms: C_3  and  C_4
REMARK    3  A    between atoms: C_4  and  N_5
REMARK    4  A    between atoms: C_4  and  C_18
REMARK    5  A    between atoms: C_6  and  C_8
REMARK    6  A    between atoms: C_21  and  C_22
REMARK    7  A    between atoms: C_22  and  O_23
REMARK    8  A    between atoms: O_23  and  C_24
REMARK                            x       y       z     vdW  Elec       q    Type
REMARK                         _______ _______ _______ _____ _____    ______ ____
ROOT
ATOM      1  C   UNL     1      46.171   7.545  13.045  0.00  0.00    +0.000 C 
ENDROOT
BRANCH   1   2
ATOM      2  C   UNL     1      45.660   6.321  12.286  0.00  0.00    +0.000 A 
ATOM      3  C   UNL     1      45.741   6.283  10.887  0.00  0.00    +0.000 A 
ATOM      4  C   UNL     1      45.341   5.144  10.179  0.00  0.00    +0.000 A 
ATOM      5  C   UNL     1      44.837   4.026  10.853  0.00  0.00    +0.000 A 
ATOM      6  C   UNL     1      44.728   4.071  12.247  0.00  0.00    +0.000 A 
ATOM      7  C   UNL     1      45.110   5.214  12.952  0.00  0.00    +0.000 A 
BRANCH   5   8
ATOM      8  C   UNL     1      44.422   2.785  10.099  0.00  0.00    +0.000 C 
BRANCH   8   9
ATOM      9  O   UNL     1      44.390   3.069   8.700  0.00  0.00    +0.000 OA
BRANCH   9  10
ATOM     10  C   UNL     1      45.476   2.534   8.038  0.00  0.00    +0.000 A 
ATOM     11  C   UNL     1      46.076   3.327   7.074  0.00  0.00    +0.000 A 
ATOM     12  C   UNL     1      47.182   2.820   6.395  0.00  0.00    +0.000 A 
ATOM     13  C   UNL     1      47.644   1.544   6.705  0.00  0.00    +0.000 A 
ATOM     14  C   UNL     1      46.978   0.826   7.682  0.00  0.00    +0.000 A 
ATOM     15  N   UNL     1      45.902   1.290   8.355  0.00  0.00    +0.000 NA
ENDBRANCH   9  10
ENDBRANCH   8   9
ENDBRANCH   5   8
ENDBRANCH   1   2
BRANCH   1  16
ATOM     16  N   UNL     1      46.928   7.080  14.195  0.00  0.00    +0.000 N 
ATOM     17  C   UNL     1      48.184   6.528  14.114  0.00  0.00    +0.000 C 
ATOM     18  O   UNL     1      48.723   6.282  13.041  0.00  0.00    +0.000 OA
ATOM     19  H   UNL     1      46.536   7.269  15.108  0.00  0.00    +0.000 HD
BRANCH  17  20
ATOM     20  C   UNL     1      48.878   6.307  15.393  0.00  0.00    +0.000 A 
ATOM     21  C   UNL     1      50.009   7.044  15.708  0.00  0.00    +0.000 A 
ATOM     22  S   UNL     1      50.610   6.734  17.280  0.00  0.00    +0.000 S 
ATOM     23  C   UNL     1      49.403   5.571  17.571  0.00  0.00    +0.000 A 
ATOM     24  N   UNL     1      49.319   4.927  18.767  0.00  0.00    +0.000 NA
ATOM     25  C   UNL     1      48.359   4.066  18.843  0.00  0.00    +0.000 A 
ATOM     26  N   UNL     1      47.485   3.778  17.826  0.00  0.00    +0.000 N 
ATOM     27  C   UNL     1      47.552   4.380  16.594  0.00  0.00    +0.000 A 
ATOM     28  O   UNL     1      46.785   4.065  15.690  0.00  0.00    +0.000 OA
ATOM     29  C   UNL     1      48.574   5.401  16.476  0.00  0.00    +0.000 A 
ATOM     30  H   UNL     1      46.766   3.078  17.943  0.00  0.00    +0.000 HD
ENDBRANCH  17  20
ENDBRANCH   1  16
BRANCH   1  31
ATOM     31  C   UNL     1      46.952   8.528  12.147  0.00  0.00    +0.000 C 
BRANCH  31  33
ATOM     32  N   UNL     1      45.671  10.814  11.918  0.00  0.00    +0.000 NA
ATOM     33  C   UNL     1      46.232   9.803  12.017  0.00  0.00    +0.000 C 
ENDBRANCH  31  33
ENDBRANCH   1  31
TORSDOF 8
ENDMDL
MODEL 2
REMARK VINA RESULT:    -8.157      1.377      1.515
REMARK INTER + INTRA:         -12.850
REMARK INTER:                 -11.452
REMARK INTRA:                  -1.399
REMARK UNBOUND:                -0.879
REMARK  Name = 
REMARK  8 active torsions:
REMARK  status: ('A' for Active; 'I' for Inactive)
REMARK    1  A    between atoms: C_2  and  C_3
REMARK    2  A    between atoms: C_3  and  C_4
REMARK    3  A    between atoms: C_4  and  N_5
REMARK    4  A    between atoms: C_4  and  C_18
REMARK    5  A    between atoms: C_6  and  C_8
REMARK    6  A    between atoms: C_21  and  C_22
REMARK    7  A    between atoms: C_22  and  O_23
REMARK    8  A    between atoms: O_23  and  C_24
REMARK                            x       y       z     vdW  Elec       q    Type
REMARK                         _______ _______ _______ _____ _____    ______ ____
ROOT
ATOM      1  C   UNL     1      47.136   7.205  12.999  0.00  0.00    +0.000 C 
ENDROOT
BRANCH   1   2
ATOM      2  C   UNL     1      46.370   6.072  12.317  0.00  0.00    +0.000 A 
ATOM      3  C   UNL     1      45.824   6.268  11.040  0.00  0.00    +0.000 A 
ATOM      4  C   UNL     1      45.179   5.221  10.372  0.00  0.00    +0.000 A 
ATOM      5  C   UNL     1      45.052   3.963  10.972  0.00  0.00    +0.000 A 
ATOM      6  C   UNL     1      45.570   3.773  12.257  0.00  0.00    +0.000 A 
ATOM      7  C   UNL     1      46.198   4.821  12.932  0.00  0.00    +0.000 A 
BRANCH   5   8
ATOM      8  C   UNL     1      44.374   2.822  10.250  0.00  0.00    +0.000 C 
BRANCH   8   9
ATOM      9  O   UNL     1      44.340   3.101   8.850  0.00  0.00    +0.000 OA
BRANCH   9  10
ATOM     10  C   UNL     1      45.429   2.569   8.189  0.00  0.00    +0.000 A 
ATOM     11  C   UNL     1      46.093   3.400   7.302  0.00  0.00    +0.000 A 
ATOM     12  C   UNL     1      47.203   2.894   6.628  0.00  0.00    +0.000 A 
ATOM     13  C   UNL     1      47.604   1.583   6.864  0.00  0.00    +0.000 A 
ATOM     14  C   UNL     1      46.875   0.829   7.768  0.00  0.00    +0.000 A 
ATOM     15  N   UNL     1      45.795   1.290   8.434  0.00  0.00    +0.000 NA
ENDBRANCH   9  10
ENDBRANCH   8   9
ENDBRANCH   5   8
ENDBRANCH   1   2
BRANCH   1  16
ATOM     16  N   UNL     1      48.087   6.614  13.925  0.00  0.00    +0.000 N 
ATOM     17  C   UNL     1      48.539   7.239  15.062  0.00  0.00    +0.000 C 
ATOM     18  O   UNL     1      48.255   8.400  15.329  0.00  0.00    +0.000 OA
ATOM     19  H   UNL     1      48.348   5.650  13.761  0.00  0.00    +0.000 HD
BRANCH  17  20
ATOM     20  C   UNL     1      49.335   6.411  15.983  0.00  0.00    +0.000 A 
ATOM     21  C   UNL     1      50.638   6.768  16.292  0.00  0.00    +0.000 A 
ATOM     22  S   UNL     1      51.364   5.756  17.466  0.00  0.00    +0.000 S 
ATOM     23  C   UNL     1      49.974   4.781  17.564  0.00  0.00    +0.000 A 
ATOM     24  N   UNL     1      49.910   3.729  18.424  0.00  0.00    +0.000 NA
ATOM     25  C   UNL     1      48.798   3.074  18.387  0.00  0.00    +0.000 A 
ATOM     26  N   UNL     1      47.747   3.366  17.553  0.00  0.00    +0.000 N 
ATOM     27  C   UNL     1      47.779   4.397  16.649  0.00  0.00    +0.000 A 
ATOM     28  O   UNL     1      46.842   4.602  15.884  0.00  0.00    +0.000 OA
ATOM     29  C   UNL     1      48.983   5.203  16.694  0.00  0.00    +0.000 A 
ATOM     30  H   UNL     1      46.910   2.802  17.559  0.00  0.00    +0.000 HD
ENDBRANCH  17  20
ENDBRANCH   1  16
BRANCH   1  31
ATOM     31  C   UNL     1      47.779   8.187  11.995  0.00  0.00    +0.000 C 
BRANCH  31  33
ATOM     32  N   UNL     1      50.274   7.518  11.499  0.00  0.00    +0.000 NA
ATOM     33  C   UNL     1      49.171   7.810  11.713  0.00  0.00    +0.000 C 
ENDBRANCH  31  33
ENDBRANCH   1  31
TORSDOF 8
ENDMDL
MODEL 3
REMARK VINA RESULT:    -7.959      2.704      4.094
REMARK INTER + INTRA:         -12.559
REMARK INTER:                 -11.221
REMARK INTRA:                  -1.338
REMARK UNBOUND:                -0.879
REMARK  Name = 
REMARK  8 active torsions:
REMARK  status: ('A' for Active; 'I' for Inactive)
REMARK    1  A    between atoms: C_2  and  C_3
REMARK    2  A    between atoms: C_3  and  C_4
REMARK    3  A    between atoms: C_4  and  N_5
REMARK    4  A    between atoms: C_4  and  C_18
REMARK    5  A    between atoms: C_6  and  C_8
REMARK    6  A    between atoms: C_21  and  C_22
REMARK    7  A    between atoms: C_22  and  O_23
REMARK    8  A    between atoms: O_23  and  C_24
REMARK                            x       y       z     vdW  Elec       q    Type
REMARK                         _______ _______ _______ _____ _____    ______ ____
ROOT
ATOM      1  C   UNL     1      47.851   4.785  15.131  0.00  0.00    +0.000 C 
ENDROOT
BRANCH   1   2
ATOM      2  C   UNL     1      46.904   4.782  13.931  0.00  0.00    +0.000 A 
ATOM      3  C   UNL     1      46.800   5.921  13.121  0.00  0.00    +0.000 A 
ATOM      4  C   UNL     1      45.991   5.914  11.979  0.00  0.00    +0.000 A 
ATOM      5  C   UNL     1      45.257   4.774  11.633  0.00  0.00    +0.000 A 
ATOM      6  C   UNL     1      45.336   3.645  12.455  0.00  0.00    +0.000 A 
ATOM      7  C   UNL     1      46.129   3.658  13.604  0.00  0.00    +0.000 A 
BRANCH   5   8
ATOM      8  C   UNL     1      44.397   4.751  10.391  0.00  0.00    +0.000 C 
BRANCH   8   9
ATOM      9  O   UNL     1      44.182   3.398   9.989  0.00  0.00    +0.000 OA
BRANCH   9  10
ATOM     10  C   UNL     1      45.074   3.001   9.013  0.00  0.00    +0.000 A 
ATOM     11  C   UNL     1      45.498   3.969   8.118  0.00  0.00    +0.000 A 
ATOM     12  C   UNL     1      46.407   3.601   7.128  0.00  0.00    +0.000 A 
ATOM     13  C   UNL     1      46.854   2.285   7.070  0.00  0.00    +0.000 A 
ATOM     14  C   UNL     1      46.372   1.388   8.007  0.00  0.00    +0.000 A 
ATOM     15  N   UNL     1      45.489   1.714   8.976  0.00  0.00    +0.000 NA
ENDBRANCH   9  10
ENDBRANCH   8   9
ENDBRANCH   5   8
ENDBRANCH   1   2
BRANCH   1  16
ATOM     16  N   UNL     1      47.901   6.136  15.663  0.00  0.00    +0.000 N 
ATOM     17  C   UNL     1      49.067   6.811  15.933  0.00  0.00    +0.000 C 
ATOM     18  O   UNL     1      50.167   6.278  15.848  0.00  0.00    +0.000 OA
ATOM     19  H   UNL     1      47.021   6.630  15.742  0.00  0.00    +0.000 HD
BRANCH  17  20
ATOM     20  C   UNL     1      48.927   8.237  16.269  0.00  0.00    +0.000 A 
ATOM     21  C   UNL     1      49.427   9.207  15.414  0.00  0.00    +0.000 A 
ATOM     22  S   UNL     1      49.070  10.805  15.911  0.00  0.00    +0.000 S 
ATOM     23  C   UNL     1      48.274  10.251  17.308  0.00  0.00    +0.000 A 
ATOM     24  N   UNL     1      47.691  11.119  18.178  0.00  0.00    +0.000 NA
ATOM     25  C   UNL     1      47.131  10.559  19.198  0.00  0.00    +0.000 A 
ATOM     26  N   UNL     1      47.115   9.208  19.436  0.00  0.00    +0.000 N 
ATOM     27  C   UNL     1      47.717   8.298  18.603  0.00  0.00    +0.000 A 
ATOM     28  O   UNL     1      47.726   7.101  18.869  0.00  0.00    +0.000 OA
ATOM     29  C   UNL     1      48.307   8.871  17.410  0.00  0.00    +0.000 A 
ATOM     30  H   UNL     1      46.676   8.833  20.264  0.00  0.00    +0.000 HD
ENDBRANCH  17  20
ENDBRANCH   1  16
BRANCH   1  31
ATOM     31  C   UNL     1      47.489   3.717  16.186  0.00  0.00    +0.000 C 
BRANCH  31  33
ATOM     32  N   UNL     1      49.303   1.813  16.239  0.00  0.00    +0.000 NA
ATOM     33  C   UNL     1      48.499   2.650  16.218  0.00  0.00    +0.000 C 
ENDBRANCH  31  33
ENDBRANCH   1  31
TORSDOF 8
ENDMDL
MODEL 4
REMARK VINA RESULT:    -7.863      2.114      4.610
REMARK INTER + INTRA:         -12.419
REMARK INTER:                 -11.134
REMARK INTRA:                  -1.286
REMARK UNBOUND:                -0.879
REMARK  Name = 
REMARK  8 active torsions:
REMARK  status: ('A' for Active; 'I' for Inactive)
REMARK    1  A    between atoms: C_2  and  C_3
REMARK    2  A    between atoms: C_3  and  C_4
REMARK    3  A    between atoms: C_4  and  N_5
REMARK    4  A    between atoms: C_4  and  C_18
REMARK    5  A    between atoms: C_6  and  C_8
REMARK    6  A    between atoms: C_21  and  C_22
REMARK    7  A    between atoms: C_22  and  O_23
REMARK    8  A    between atoms: O_23  and  C_24
REMARK                            x       y       z     vdW  Elec       q    Type
REMARK                         _______ _______ _______ _____ _____    ______ ____
ROOT
ATOM      1  C   UNL     1      47.387   5.004  14.331  0.00  0.00    +0.000 C 
ENDROOT
BRANCH   1   2
ATOM      2  C   UNL     1      46.491   4.747  13.120  0.00  0.00    +0.000 A 
ATOM      3  C   UNL     1      46.239   5.781  12.207  0.00  0.00    +0.000 A 
ATOM      4  C   UNL     1      45.477   5.547  11.057  0.00  0.00    +0.000 A 
ATOM      5  C   UNL     1      44.939   4.280  10.803  0.00  0.00    +0.000 A 
ATOM      6  C   UNL     1      45.165   3.254  11.727  0.00  0.00    +0.000 A 
ATOM      7  C   UNL     1      45.910   3.491  12.884  0.00  0.00    +0.000 A 
BRANCH   5   8
ATOM      8  C   UNL     1      44.133   4.013   9.554  0.00  0.00    +0.000 C 
BRANCH   8   9
ATOM      9  O   UNL     1      44.901   4.378   8.407  0.00  0.00    +0.000 OA
BRANCH   9  10
ATOM     10  C   UNL     1      45.674   3.331   7.947  0.00  0.00    +0.000 A 
ATOM     11  C   UNL     1      46.573   3.613   6.932  0.00  0.00    +0.000 A 
ATOM     12  C   UNL     1      47.375   2.579   6.453  0.00  0.00    +0.000 A 
ATOM     13  C   UNL     1      47.248   1.308   7.004  0.00  0.00    +0.000 A 
ATOM     14  C   UNL     1      46.319   1.123   8.014  0.00  0.00    +0.000 A 
ATOM     15  N   UNL     1      45.526   2.104   8.496  0.00  0.00    +0.000 NA
ENDBRANCH   9  10
ENDBRANCH   8   9
ENDBRANCH   5   8
ENDBRANCH   1   2
BRANCH   1  16
ATOM     16  N   UNL     1      47.634   6.434  14.416  0.00  0.00    +0.000 N 
ATOM     17  C   UNL     1      48.784   6.985  14.926  0.00  0.00    +0.000 C 
ATOM     18  O   UNL     1      49.656   6.307  15.457  0.00  0.00    +0.000 OA
ATOM     19  H   UNL     1      46.952   7.043  13.981  0.00  0.00    +0.000 HD
BRANCH  17  20
ATOM     20  C   UNL     1      48.945   8.436  14.741  0.00  0.00    +0.000 A 
ATOM     21  C   UNL     1      48.944   9.283  15.839  0.00  0.00    +0.000 A 
ATOM     22  S   UNL     1      49.259  10.917  15.442  0.00  0.00    +0.000 S 
ATOM     23  C   UNL     1      49.362  10.551  13.784  0.00  0.00    +0.000 A 
ATOM     24  N   UNL     1      49.648  11.513  12.866  0.00  0.00    +0.000 NA
ATOM     25  C   UNL     1      49.686  11.093  11.645  0.00  0.00    +0.000 A 
ATOM     26  N   UNL     1      49.447   9.799  11.256  0.00  0.00    +0.000 N 
ATOM     27  C   UNL     1      49.124   8.803  12.143  0.00  0.00    +0.000 A 
ATOM     28  O   UNL     1      48.869   7.667  11.759  0.00  0.00    +0.000 OA
ATOM     29  C   UNL     1      49.129   9.209  13.535  0.00  0.00    +0.000 A 
ATOM     30  H   UNL     1      49.473   9.538  10.282  0.00  0.00    +0.000 HD
ENDBRANCH  17  20
ENDBRANCH   1  16
BRANCH   1  31
ATOM     31  C   UNL     1      46.827   4.395  15.635  0.00  0.00    +0.000 C 
BRANCH  31  33
ATOM     32  N   UNL     1      48.564   2.748  16.725  0.00  0.00    +0.000 NA
ATOM     33  C   UNL     1      47.801   3.479  16.245  0.00  0.00    +0.000 C 
ENDBRANCH  31  33
ENDBRANCH   1  31
TORSDOF 8
ENDMDL
MODEL 5
REMARK VINA RESULT:    -7.661      2.188      2.986
REMARK INTER + INTRA:         -12.123
REMARK INTER:                 -10.608
REMARK INTRA:                  -1.515
REMARK UNBOUND:                -0.879
REMARK  Name = 
REMARK  8 active torsions:
REMARK  status: ('A' for Active; 'I' for Inactive)
REMARK    1  A    between atoms: C_2  and  C_3
REMARK    2  A    between atoms: C_3  and  C_4
REMARK    3  A    between atoms: C_4  and  N_5
REMARK    4  A    between atoms: C_4  and  C_18
REMARK    5  A    between atoms: C_6  and  C_8
REMARK    6  A    between atoms: C_21  and  C_22
REMARK    7  A    between atoms: C_22  and  O_23
REMARK    8  A    between atoms: O_23  and  C_24
REMARK                            x       y       z     vdW  Elec       q    Type
REMARK                         _______ _______ _______ _____ _____    ______ ____
ROOT
ATOM      1  C   UNL     1      47.272   7.520  13.528  0.00  0.00    +0.000 C 
ENDROOT
BRANCH   1   2
ATOM      2  C   UNL     1      46.422   6.475  12.806  0.00  0.00    +0.000 A 
ATOM      3  C   UNL     1      45.644   6.851  11.701  0.00  0.00    +0.000 A 
ATOM      4  C   UNL     1      44.913   5.896  10.987  0.00  0.00    +0.000 A 
ATOM      5  C   UNL     1      44.930   4.550  11.370  0.00  0.00    +0.000 A 
ATOM      6  C   UNL     1      45.682   4.177  12.489  0.00  0.00    +0.000 A 
ATOM      7  C   UNL     1      46.398   5.132  13.214  0.00  0.00    +0.000 A 
BRANCH   5   8
ATOM      8  C   UNL     1      44.159   3.509  10.592  0.00  0.00    +0.000 C 
BRANCH   8   9
ATOM      9  O   UNL     1      44.123   3.879   9.213  0.00  0.00    +0.000 OA
BRANCH   9  10
ATOM     10  C   UNL     1      45.156   3.311   8.497  0.00  0.00    +0.000 A 
ATOM     11  C   UNL     1      45.414   1.969   8.725  0.00  0.00    +0.000 A 
ATOM     12  C   UNL     1      46.445   1.363   8.009  0.00  0.00    +0.000 A 
ATOM     13  C   UNL     1      47.175   2.118   7.097  0.00  0.00    +0.000 A 
ATOM     14  C   UNL     1      46.844   3.453   6.939  0.00  0.00    +0.000 A 
ATOM     15  N   UNL     1      45.853   4.068   7.620  0.00  0.00    +0.000 NA
ENDBRANCH   9  10
ENDBRANCH   8   9
ENDBRANCH   5   8
ENDBRANCH   1   2
BRANCH   1  16
ATOM     16  N   UNL     1      48.207   6.822  14.395  0.00  0.00    +0.000 N 
ATOM     17  C   UNL     1      48.661   7.320  15.592  0.00  0.00    +0.000 C 
ATOM     18  O   UNL     1      48.395   8.453  15.973  0.00  0.00    +0.000 OA
ATOM     19  H   UNL     1      48.452   5.875  14.135  0.00  0.00    +0.000 HD
BRANCH  17  20
ATOM     20  C   UNL     1      49.436   6.389  16.428  0.00  0.00    +0.000 A 
ATOM     21  C   UNL     1      48.785   5.454  17.218  0.00  0.00    +0.000 A 
ATOM     22  S   UNL     1      49.848   4.385  18.028  0.00  0.00    +0.000 S 
ATOM     23  C   UNL     1      51.213   5.167  17.383  0.00  0.00    +0.000 A 
ATOM     24  N   UNL     1      52.472   4.728  17.655  0.00  0.00    +0.000 NA
ATOM     25  C   UNL     1      53.411   5.422  17.105  0.00  0.00    +0.000 A 
ATOM     26  N   UNL     1      53.208   6.528  16.319  0.00  0.00    +0.000 N 
ATOM     27  C   UNL     1      51.959   7.025  16.043  0.00  0.00    +0.000 A 
ATOM     28  O   UNL     1      51.813   8.044  15.376  0.00  0.00    +0.000 OA
ATOM     29  C   UNL     1      50.865   6.245  16.587  0.00  0.00    +0.000 A 
ATOM     30  H   UNL     1      53.988   7.039  15.933  0.00  0.00    +0.000 HD
ENDBRANCH  17  20
ENDBRANCH   1  16
BRANCH   1  31
ATOM     31  C   UNL     1      47.950   8.516  12.563  0.00  0.00    +0.000 C 
BRANCH  31  33
ATOM     32  N   UNL     1      50.206   7.539  11.627  0.00  0.00    +0.000 NA
ATOM     33  C   UNL     1      49.209   7.965  12.042  0.00  0.00    +0.000 C 
ENDBRANCH  31  33
ENDBRANCH   1  31
TORSDOF 8
ENDMDL
MODEL 6
REMARK VINA RESULT:    -7.287      2.956      3.945
REMARK INTER + INTRA:         -11.574
REMARK INTER:                 -10.237
REMARK INTRA:                  -1.337
REMARK UNBOUND:                -0.879
REMARK  Name = 
REMARK  8 active torsions:
REMARK  status: ('A' for Active; 'I' for Inactive)
REMARK    1  A    between atoms: C_2  and  C_3
REMARK    2  A    between atoms: C_3  and  C_4
REMARK    3  A    between atoms: C_4  and  N_5
REMARK    4  A    between atoms: C_4  and  C_18
REMARK    5  A    between atoms: C_6  and  C_8
REMARK    6  A    between atoms: C_21  and  C_22
REMARK    7  A    between atoms: C_22  and  O_23
REMARK    8  A    between atoms: O_23  and  C_24
REMARK                            x       y       z     vdW  Elec       q    Type
REMARK                         _______ _______ _______ _____ _____    ______ ____
ROOT
ATOM      1  C   UNL     1      46.196   7.811  13.024  0.00  0.00    +0.000 C 
ENDROOT
BRANCH   1   2
ATOM      2  C   UNL     1      45.853   6.499  12.319  0.00  0.00    +0.000 A 
ATOM      3  C   UNL     1      45.673   5.329  13.071  0.00  0.00    +0.000 A 
ATOM      4  C   UNL     1      45.292   4.134  12.451  0.00  0.00    +0.000 A 
ATOM      5  C   UNL     1      45.099   4.079  11.066  0.00  0.00    +0.000 A 
ATOM      6  C   UNL     1      45.306   5.237  10.309  0.00  0.00    +0.000 A 
ATOM      7  C   UNL     1      45.704   6.425  10.925  0.00  0.00    +0.000 A 
BRANCH   5   8
ATOM      8  C   UNL     1      44.669   2.798  10.391  0.00  0.00    +0.000 C 
BRANCH   8   9
ATOM      9  O   UNL     1      44.453   3.045   9.001  0.00  0.00    +0.000 OA
BRANCH   9  10
ATOM     10  C   UNL     1      45.476   2.544   8.222  0.00  0.00    +0.000 A 
ATOM     11  C   UNL     1      45.978   3.376   7.234  0.00  0.00    +0.000 A 
ATOM     12  C   UNL     1      47.018   2.904   6.438  0.00  0.00    +0.000 A 
ATOM     13  C   UNL     1      47.515   1.623   6.657  0.00  0.00    +0.000 A 
ATOM     14  C   UNL     1      46.948   0.864   7.666  0.00  0.00    +0.000 A 
ATOM     15  N   UNL     1      45.937   1.294   8.452  0.00  0.00    +0.000 NA
ENDBRANCH   9  10
ENDBRANCH   8   9
ENDBRANCH   5   8
ENDBRANCH   1   2
BRANCH   1  16
ATOM     16  N   UNL     1      47.574   8.148  12.707  0.00  0.00    +0.000 N 
ATOM     17  C   UNL     1      48.661   7.636  13.372  0.00  0.00    +0.000 C 
ATOM     18  O   UNL     1      48.548   6.931  14.368  0.00  0.00    +0.000 OA
ATOM     19  H   UNL     1      47.727   8.718  11.884  0.00  0.00    +0.000 HD
BRANCH  17  20
ATOM     20  C   UNL     1      49.977   7.927  12.781  0.00  0.00    +0.000 A 
ATOM     21  C   UNL     1      50.233   7.610  11.456  0.00  0.00    +0.000 A 
ATOM     22  S   UNL     1      51.772   8.127  10.915  0.00  0.00    +0.000 S 
ATOM     23  C   UNL     1      52.162   8.752  12.447  0.00  0.00    +0.000 A 
ATOM     24  N   UNL     1      53.349   9.377  12.672  0.00  0.00    +0.000 NA
ATOM     25  C   UNL     1      53.513   9.794  13.883  0.00  0.00    +0.000 A 
ATOM     26  N   UNL     1      52.603   9.627  14.897  0.00  0.00    +0.000 N 
ATOM     27  C   UNL     1      51.407   8.976  14.724  0.00  0.00    +0.000 A 
ATOM     28  O   UNL     1      50.636   8.801  15.662  0.00  0.00    +0.000 OA
ATOM     29  C   UNL     1      51.147   8.542  13.366  0.00  0.00    +0.000 A 
ATOM     30  H   UNL     1      52.799   9.960  15.829  0.00  0.00    +0.000 HD
ENDBRANCH  17  20
ENDBRANCH   1  16
BRANCH   1  31
ATOM     31  C   UNL     1      45.194   8.943  12.710  0.00  0.00    +0.000 C 
BRANCH  31  33
ATOM     32  N   UNL     1      46.406  10.954  11.524  0.00  0.00    +0.000 NA
ATOM     33  C   UNL     1      45.868  10.070  12.050  0.00  0.00    +0.000 C 
ENDBRANCH  31  33
ENDBRANCH   1  31
TORSDOF 8
ENDMDL
MODEL 7
REMARK VINA RESULT:    -7.175      2.200      2.508
REMARK INTER + INTRA:         -11.409
REMARK INTER:                 -10.107
REMARK INTRA:                  -1.302
REMARK UNBOUND:                -0.879
REMARK  Name = 
REMARK  8 active torsions:
REMARK  status: ('A' for Active; 'I' for Inactive)
REMARK    1  A    between atoms: C_2  and  C_3
REMARK    2  A    between atoms: C_3  and  C_4
REMARK    3  A    between atoms: C_4  and  N_5
REMARK    4  A    between atoms: C_4  and  C_18
REMARK    5  A    between atoms: C_6  and  C_8
REMARK    6  A    between atoms: C_21  and  C_22
REMARK    7  A    between atoms: C_22  and  O_23
REMARK    8  A    between atoms: O_23  and  C_24
REMARK                            x       y       z     vdW  Elec       q    Type
REMARK                         _______ _______ _______ _____ _____    ______ ____
ROOT
ATOM      1  C   UNL     1      47.405   7.894  13.624  0.00  0.00    +0.000 C 
ENDROOT
BRANCH   1   2
ATOM      2  C   UNL     1      46.580   6.789  12.965  0.00  0.00    +0.000 A 
ATOM      3  C   UNL     1      45.745   7.094  11.880  0.00  0.00    +0.000 A 
ATOM      4  C   UNL     1      45.034   6.085  11.221  0.00  0.00    +0.000 A 
ATOM      5  C   UNL     1      45.129   4.754  11.642  0.00  0.00    +0.000 A 
ATOM      6  C   UNL     1      45.938   4.450  12.743  0.00  0.00    +0.000 A 
ATOM      7  C   UNL     1      46.634   5.459  13.412  0.00  0.00    +0.000 A 
BRANCH   5   8
ATOM      8  C   UNL     1      44.382   3.655  10.925  0.00  0.00    +0.000 C 
BRANCH   8   9
ATOM      9  O   UNL     1      44.199   4.022   9.557  0.00  0.00    +0.000 OA
BRANCH   9  10
ATOM     10  C   UNL     1      45.155   3.458   8.737  0.00  0.00    +0.000 A 
ATOM     11  C   UNL     1      45.375   2.097   8.872  0.00  0.00    +0.000 A 
ATOM     12  C   UNL     1      46.327   1.497   8.051  0.00  0.00    +0.000 A 
ATOM     13  C   UNL     1      47.021   2.276   7.131  0.00  0.00    +0.000 A 
ATOM     14  C   UNL     1      46.734   3.629   7.071  0.00  0.00    +0.000 A 
ATOM     15  N   UNL     1      45.819   4.239   7.855  0.00  0.00    +0.000 NA
ENDBRANCH   9  10
ENDBRANCH   8   9
ENDBRANCH   5   8
ENDBRANCH   1   2
BRANCH   1  16
ATOM     16  N   UNL     1      48.287   7.277  14.601  0.00  0.00    +0.000 N 
ATOM     17  C   UNL     1      48.713   7.899  15.749  0.00  0.00    +0.000 C 
ATOM     18  O   UNL     1      48.466   9.075  15.988  0.00  0.00    +0.000 OA
ATOM     19  H   UNL     1      48.514   6.301  14.460  0.00  0.00    +0.000 HD
BRANCH  17  20
ATOM     20  C   UNL     1      49.430   7.052  16.716  0.00  0.00    +0.000 A 
ATOM     21  C   UNL     1      50.541   6.326  16.317  0.00  0.00    +0.000 A 
ATOM     22  S   UNL     1      51.311   5.495  17.599  0.00  0.00    +0.000 S 
ATOM     23  C   UNL     1      50.157   6.045  18.721  0.00  0.00    +0.000 A 
ATOM     24  N   UNL     1      50.246   5.721  20.040  0.00  0.00    +0.000 NA
ATOM     25  C   UNL     1      49.298   6.201  20.772  0.00  0.00    +0.000 A 
ATOM     26  N   UNL     1      48.257   6.963  20.304  0.00  0.00    +0.000 N 
ATOM     27  C   UNL     1      48.110   7.287  18.979  0.00  0.00    +0.000 A 
ATOM     28  O   UNL     1      47.142   7.929  18.584  0.00  0.00    +0.000 OA
ATOM     29  C   UNL     1      49.183   6.824  18.121  0.00  0.00    +0.000 A 
ATOM     30  H   UNL     1      47.535   7.292  20.927  0.00  0.00    +0.000 HD
ENDBRANCH  17  20
ENDBRANCH   1  16
BRANCH   1  31
ATOM     31  C   UNL     1      48.142   8.787  12.602  0.00  0.00    +0.000 C 
BRANCH  31  33
ATOM     32  N   UNL     1      50.143   7.486  11.496  0.00  0.00    +0.000 NA
ATOM     33  C   UNL     1      49.263   8.063  11.987  0.00  0.00    +0.000 C 
ENDBRANCH  31  33
ENDBRANCH   1  31
TORSDOF 8
ENDMDL
MODEL 8
REMARK VINA RESULT:    -7.139      2.232      2.865
REMARK INTER + INTRA:         -11.356
REMARK INTER:                  -9.890
REMARK INTRA:                  -1.466
REMARK UNBOUND:                -0.879
REMARK  Name = 
REMARK  8 active torsions:
REMARK  status: ('A' for Active; 'I' for Inactive)
REMARK    1  A    between atoms: C_2  and  C_3
REMARK    2  A    between atoms: C_3  and  C_4
REMARK    3  A    between atoms: C_4  and  N_5
REMARK    4  A    between atoms: C_4  and  C_18
REMARK    5  A    between atoms: C_6  and  C_8
REMARK    6  A    between atoms: C_21  and  C_22
REMARK    7  A    between atoms: C_22  and  O_23
REMARK    8  A    between atoms: O_23  and  C_24
REMARK                            x       y       z     vdW  Elec       q    Type
REMARK                         _______ _______ _______ _____ _____    ______ ____
ROOT
ATOM      1  C   UNL     1      47.922   7.960  13.547  0.00  0.00    +0.000 C 
ENDROOT
BRANCH   1   2
ATOM      2  C   UNL     1      46.740   7.108  13.088  0.00  0.00    +0.000 A 
ATOM      3  C   UNL     1      45.734   7.680  12.295  0.00  0.00    +0.000 A 
ATOM      4  C   UNL     1      44.679   6.900  11.809  0.00  0.00    +0.000 A 
ATOM      5  C   UNL     1      44.598   5.537  12.116  0.00  0.00    +0.000 A 
ATOM      6  C   UNL     1      45.585   4.970  12.931  0.00  0.00    +0.000 A 
ATOM      7  C   UNL     1      46.627   5.751  13.431  0.00  0.00    +0.000 A 
BRANCH   5   8
ATOM      8  C   UNL     1      43.475   4.683  11.579  0.00  0.00    +0.000 C 
BRANCH   8   9
ATOM      9  O   UNL     1      43.394   4.843  10.162  0.00  0.00    +0.000 OA
BRANCH   9  10
ATOM     10  C   UNL     1      44.219   3.960   9.494  0.00  0.00    +0.000 A 
ATOM     11  C   UNL     1      45.142   4.505   8.617  0.00  0.00    +0.000 A 
ATOM     12  C   UNL     1      45.996   3.640   7.936  0.00  0.00    +0.000 A 
ATOM     13  C   UNL     1      45.895   2.270   8.156  0.00  0.00    +0.000 A 
ATOM     14  C   UNL     1      44.939   1.820   9.050  0.00  0.00    +0.000 A 
ATOM     15  N   UNL     1      44.096   2.633   9.722  0.00  0.00    +0.000 NA
ENDBRANCH   9  10
ENDBRANCH   8   9
ENDBRANCH   5   8
ENDBRANCH   1   2
BRANCH   1  16
ATOM     16  N   UNL     1      48.155   7.687  14.956  0.00  0.00    +0.000 N 
ATOM     17  C   UNL     1      48.337   8.663  15.906  0.00  0.00    +0.000 C 
ATOM     18  O   UNL     1      48.426   9.850  15.617  0.00  0.00    +0.000 OA
ATOM     19  H   UNL     1      48.080   6.723  15.254  0.00  0.00    +0.000 HD
BRANCH  17  20
ATOM     20  C   UNL     1      48.352   8.209  17.306  0.00  0.00    +0.000 A 
ATOM     21  C   UNL     1      47.808   9.004  18.303  0.00  0.00    +0.000 A 
ATOM     22  S   UNL     1      47.812   8.263  19.845  0.00  0.00    +0.000 S 
ATOM     23  C   UNL     1      48.581   6.874  19.237  0.00  0.00    +0.000 A 
ATOM     24  N   UNL     1      48.857   5.812  20.041  0.00  0.00    +0.000 NA
ATOM     25  C   UNL     1      49.450   4.831  19.446  0.00  0.00    +0.000 A 
ATOM     26  N   UNL     1      49.808   4.822  18.122  0.00  0.00    +0.000 N 
ATOM     27  C   UNL     1      49.578   5.882  17.281  0.00  0.00    +0.000 A 
ATOM     28  O   UNL     1      49.954   5.862  16.114  0.00  0.00    +0.000 OA
ATOM     29  C   UNL     1      48.859   6.986  17.885  0.00  0.00    +0.000 A 
ATOM     30  H   UNL     1      50.288   4.030  17.720  0.00  0.00    +0.000 HD
ENDBRANCH  17  20
ENDBRANCH   1  16
BRANCH   1  31
ATOM     31  C   UNL     1      49.176   7.775  12.666  0.00  0.00    +0.000 C 
BRANCH  31  33
ATOM     32  N   UNL     1      51.361   8.289  14.038  0.00  0.00    +0.000 NA
ATOM     33  C   UNL     1      50.399   8.065  13.428  0.00  0.00    +0.000 C 
ENDBRANCH  31  33
ENDBRANCH   1  31
TORSDOF 8
ENDMDL
MODEL 9
REMARK VINA RESULT:    -6.905      2.468      3.242
REMARK INTER + INTRA:         -11.012
REMARK INTER:                  -9.323
REMARK INTRA:                  -1.690
REMARK UNBOUND:                -0.879
REMARK  Name = 
REMARK  8 active torsions:
REMARK  status: ('A' for Active; 'I' for Inactive)
REMARK    1  A    between atoms: C_2  and  C_3
REMARK    2  A    between atoms: C_3  and  C_4
REMARK    3  A    between atoms: C_4  and  N_5
REMARK    4  A    between atoms: C_4  and  C_18
REMARK    5  A    between atoms: C_6  and  C_8
REMARK    6  A    between atoms: C_21  and  C_22
REMARK    7  A    between atoms: C_22  and  O_23
REMARK    8  A    between atoms: O_23  and  C_24
REMARK                            x       y       z     vdW  Elec       q    Type
REMARK                         _______ _______ _______ _____ _____    ______ ____
ROOT
ATOM      1  C   UNL     1      49.441   8.316  12.881  0.00  0.00    +0.000 C 
ENDROOT
BRANCH   1   2
ATOM      2  C   UNL     1      48.185   7.467  12.689  0.00  0.00    +0.000 A 
ATOM      3  C   UNL     1      47.071   8.008  12.031  0.00  0.00    +0.000 A 
ATOM      4  C   UNL     1      45.938   7.225  11.785  0.00  0.00    +0.000 A 
ATOM      5  C   UNL     1      45.888   5.891  12.205  0.00  0.00    +0.000 A 
ATOM      6  C   UNL     1      46.986   5.357  12.887  0.00  0.00    +0.000 A 
ATOM      7  C   UNL     1      48.110   6.143  13.148  0.00  0.00    +0.000 A 
BRANCH   5   8
ATOM      8  C   UNL     1      44.677   5.033  11.926  0.00  0.00    +0.000 C 
BRANCH   8   9
ATOM      9  O   UNL     1      44.245   5.244  10.582  0.00  0.00    +0.000 OA
BRANCH   9  10
ATOM     10  C   UNL     1      44.839   4.361   9.703  0.00  0.00    +0.000 A 
ATOM     11  C   UNL     1      44.626   3.011   9.930  0.00  0.00    +0.000 A 
ATOM     12  C   UNL     1      45.203   2.094   9.054  0.00  0.00    +0.000 A 
ATOM     13  C   UNL     1      45.968   2.559   7.989  0.00  0.00    +0.000 A 
ATOM     14  C   UNL     1      46.126   3.927   7.845  0.00  0.00    +0.000 A 
ATOM     15  N   UNL     1      45.582   4.839   8.679  0.00  0.00    +0.000 NA
ENDBRANCH   9  10
ENDBRANCH   8   9
ENDBRANCH   5   8
ENDBRANCH   1   2
BRANCH   1  16
ATOM     16  N   UNL     1      50.334   7.604  13.780  0.00  0.00    +0.000 N 
ATOM     17  C   UNL     1      50.540   7.955  15.092  0.00  0.00    +0.000 C 
ATOM     18  O   UNL     1      50.064   8.972  15.581  0.00  0.00    +0.000 OA
ATOM     19  H   UNL     1      50.746   6.748  13.432  0.00  0.00    +0.000 HD
BRANCH  17  20
ATOM     20  C   UNL     1      51.315   7.001  15.903  0.00  0.00    +0.000 A 
ATOM     21  C   UNL     1      52.700   7.042  15.893  0.00  0.00    +0.000 A 
ATOM     22  S   UNL     1      53.424   5.939  16.982  0.00  0.00    +0.000 S 
ATOM     23  C   UNL     1      51.908   5.341  17.469  0.00  0.00    +0.000 A 
ATOM     24  N   UNL     1      51.804   4.378  18.425  0.00  0.00    +0.000 NA
ATOM     25  C   UNL     1      50.594   4.015  18.689  0.00  0.00    +0.000 A 
ATOM     26  N   UNL     1      49.475   4.516  18.071  0.00  0.00    +0.000 N 
ATOM     27  C   UNL     1      49.535   5.464  17.080  0.00  0.00    +0.000 A 
ATOM     28  O   UNL     1      48.520   5.857  16.514  0.00  0.00    +0.000 OA
ATOM     29  C   UNL     1      50.868   5.951  16.790  0.00  0.00    +0.000 A 
ATOM     30  H   UNL     1      48.556   4.175  18.309  0.00  0.00    +0.000 HD
ENDBRANCH  17  20
ENDBRANCH   1  16
BRANCH   1  31
ATOM     31  C   UNL     1      50.103   8.725  11.547  0.00  0.00    +0.000 C 
BRANCH  31  33
ATOM     32  N   UNL     1      52.666   8.137  11.566  0.00  0.00    +0.000 NA
ATOM     33  C   UNL     1      51.536   8.399  11.552  0.00  0.00    +0.000 C 
ENDBRANCH  31  33
ENDBRANCH   1  31
TORSDOF 8
ENDMDL
