MODEL 1
REMARK VINA RESULT:    -7.484      0.000      0.000
REMARK INTER + INTRA:         -10.078
REMARK INTER:                  -9.672
REMARK INTRA:                  -0.406
REMARK UNBOUND:                -0.406
REMARK  Name = 
REMARK  6 active torsions:
REMARK  status: ('A' for Active; 'I' for Inactive)
REMARK    1  A    between atoms: C_1  and  O_2
REMARK    2  A    between atoms: O_2  and  C_3
REMARK    3  A    between atoms: C_5  and  C_6
REMARK    4  A    between atoms: C_11  and  O_12
REMARK    5  A    between atoms: O_12  and  C_13
REMARK    6  A    between atoms: C_13  and  C_14
REMARK                            x       y       z     vdW  Elec       q    Type
REMARK                         _______ _______ _______ _____ _____    ______ ____
ROOT
ATOM      1  C   UNL     1      45.860   4.754  12.800  0.00  0.00    +0.000 A 
ATOM      2  C   UNL     1      46.085   6.067  13.238  0.00  0.00    +0.000 A 
ATOM      3  C   UNL     1      45.551   7.164  12.540  0.00  0.00    +0.000 A 
ATOM      4  C   UNL     1      44.815   6.943  11.379  0.00  0.00    +0.000 A 
ATOM      5  C   UNL     1      44.592   5.644  10.933  0.00  0.00    +0.000 A 
ATOM      6  C   UNL     1      45.066   4.542  11.658  0.00  0.00    +0.000 A 
ENDROOT
BRANCH   3   7
ATOM      7  C   UNL     1      45.811   8.529  13.076  0.00  0.00    +0.000 C 
ATOM      8  N   UNL     1      44.879   9.509  12.863  0.00  0.00    +0.000 N 
ATOM      9  O   UNL     1      46.830   8.788  13.701  0.00  0.00    +0.000 OA
ATOM     10  H   UNL     1      44.013   9.399  12.361  0.00  0.00    +0.000 HD
ATOM     11  H   UNL     1      45.088  10.421  13.236  0.00  0.00    +0.000 HD
ENDBRANCH   3   7
BRANCH   1  13
ATOM     12  C   UNL     1      47.172   3.845  14.580  0.00  0.00    +0.000 C 
ATOM     13  O   UNL     1      46.387   3.639  13.408  0.00  0.00    +0.000 OA
ENDBRANCH   1  13
BRANCH   6  14
ATOM     14  O   UNL     1      44.763   3.245  11.301  0.00  0.00    +0.000 OA
BRANCH  14  15
ATOM     15  C   UNL     1      44.142   3.117  10.013  0.00  0.00    +0.000 C 
BRANCH  15  16
ATOM     16  C   UNL     1      45.121   2.871   8.900  0.00  0.00    +0.000 A 
ATOM     17  C   UNL     1      45.765   1.651   8.694  0.00  0.00    +0.000 A 
ATOM     18  C   UNL     1      46.622   1.505   7.607  0.00  0.00    +0.000 A 
ATOM     19  C   UNL     1      46.806   2.593   6.769  0.00  0.00    +0.000 A 
ATOM     20 CL   UNL     1      47.824   2.482   5.394  0.00  0.00    +0.000 Cl
ATOM     21  N   UNL     1      46.220   3.793   6.938  0.00  0.00    +0.000 NA
ATOM     22  C   UNL     1      45.393   3.903   8.000  0.00  0.00    +0.000 A 
ENDBRANCH  15  16
ENDBRANCH  14  15
ENDBRANCH   6  14
TORSDOF 5
ENDMDL
MODEL 2
REMARK VINA RESULT:    -7.352      3.407      6.596
REMARK INTER + INTRA:          -9.908
REMARK INTER:                  -9.572
REMARK INTRA:                  -0.335
REMARK UNBOUND:                -0.406
REMARK  Name = 
REMARK  6 active torsions:
REMARK  status: ('A' for Active; 'I' for Inactive)
REMARK    1  A    between atoms: C_1  and  O_2
REMARK    2  A    between atoms: O_2  and  C_3
REMARK    3  A    between atoms: C_5  and  C_6
REMARK    4  A    between atoms: C_11  and  O_12
REMARK    5  A    between atoms: O_12  and  C_13
REMARK    6  A    between atoms: C_13  and  C_14
REMARK                            x       y       z     vdW  Elec       q    Type
REMARK                         _______ _______ _______ _____ _____    ______ ____
ROOT
ATOM      1  C   UNL     1      44.463   2.734   9.630  0.00  0.00    +0.000 A 
ATOM      2  C   UNL     1      45.222   1.767   8.957  0.00  0.00    +0.000 A 
ATOM      3  C   UNL     1      46.229   2.139   8.049  0.00  0.00    +0.000 A 
ATOM      4  C   UNL     1      46.451   3.489   7.791  0.00  0.00    +0.000 A 
ATOM      5  C   UNL     1      45.699   4.457   8.450  0.00  0.00    +0.000 A 
ATOM      6  C   UNL     1      44.737   4.096   9.404  0.00  0.00    +0.000 A 
ENDROOT
BRANCH   3   7
ATOM      7  C   UNL     1      47.012   1.058   7.388  0.00  0.00    +0.000 C 
ATOM      8  N   UNL     1      46.720  -0.245   7.691  0.00  0.00    +0.000 N 
ATOM      9  O   UNL     1      47.899   1.310   6.584  0.00  0.00    +0.000 OA
ATOM     10  H   UNL     1      46.014  -0.555   8.338  0.00  0.00    +0.000 HD
ATOM     11  H   UNL     1      47.270  -0.950   7.228  0.00  0.00    +0.000 HD
ENDBRANCH   3   7
BRANCH   1  13
ATOM     12  C   UNL     1      43.778   2.237  11.865  0.00  0.00    +0.000 C 
ATOM     13  O   UNL     1      43.437   2.441  10.496  0.00  0.00    +0.000 OA
ENDBRANCH   1  13
BRANCH   6  14
ATOM     14  O   UNL     1      44.059   5.035  10.152  0.00  0.00    +0.000 OA
BRANCH  14  15
ATOM     15  C   UNL     1      44.880   6.106  10.640  0.00  0.00    +0.000 C 
BRANCH  15  16
ATOM     16  C   UNL     1      45.663   5.746  11.871  0.00  0.00    +0.000 A 
ATOM     17  C   UNL     1      46.970   6.173  12.107  0.00  0.00    +0.000 A 
ATOM     18  C   UNL     1      47.598   5.825  13.299  0.00  0.00    +0.000 A 
ATOM     19  C   UNL     1      46.893   5.053  14.209  0.00  0.00    +0.000 A 
ATOM     20 CL   UNL     1      47.588   4.608  15.711  0.00  0.00    +0.000 Cl
ATOM     21  N   UNL     1      45.639   4.605  14.017  0.00  0.00    +0.000 NA
ATOM     22  C   UNL     1      45.055   4.961  12.852  0.00  0.00    +0.000 A 
ENDBRANCH  15  16
ENDBRANCH  14  15
ENDBRANCH   6  14
TORSDOF 5
ENDMDL
MODEL 3
REMARK VINA RESULT:    -7.316      1.748      2.770
REMARK INTER + INTRA:          -9.860
REMARK INTER:                  -9.307
REMARK INTRA:                  -0.553
REMARK UNBOUND:                -0.406
REMARK  Name = 
REMARK  6 active torsions:
REMARK  status: ('A' for Active; 'I' for Inactive)
REMARK    1  A    between atoms: C_1  and  O_2
REMARK    2  A    between atoms: O_2  and  C_3
REMARK    3  A    between atoms: C_5  and  C_6
REMARK    4  A    between atoms: C_11  and  O_12
REMARK    5  A    between atoms: O_12  and  C_13
REMARK    6  A    between atoms: C_13  and  C_14
REMARK                            x       y       z     vdW  Elec       q    Type
REMARK                         _______ _______ _______ _____ _____    ______ ____
ROOT
ATOM      1  C   UNL     1      45.177   5.671  11.950  0.00  0.00    +0.000 A 
ATOM      2  C   UNL     1      46.024   5.909  13.041  0.00  0.00    +0.000 A 
ATOM      3  C   UNL     1      46.615   4.845  13.745  0.00  0.00    +0.000 A 
ATOM      4  C   UNL     1      46.326   3.535  13.372  0.00  0.00    +0.000 A 
ATOM      5  C   UNL     1      45.481   3.288  12.294  0.00  0.00    +0.000 A 
ATOM      6  C   UNL     1      44.939   4.344  11.547  0.00  0.00    +0.000 A 
ENDROOT
BRANCH   3   7
ATOM      7  C   UNL     1      47.524   5.173  14.878  0.00  0.00    +0.000 C 
ATOM      8  N   UNL     1      47.937   6.469  15.036  0.00  0.00    +0.000 N 
ATOM      9  O   UNL     1      47.901   4.316  15.665  0.00  0.00    +0.000 OA
ATOM     10  H   UNL     1      47.688   7.243  14.443  0.00  0.00    +0.000 HD
ATOM     11  H   UNL     1      48.554   6.655  15.811  0.00  0.00    +0.000 HD
ENDBRANCH   3   7
BRANCH   1  13
ATOM     12  C   UNL     1      44.870   8.008  11.558  0.00  0.00    +0.000 C 
ATOM     13  O   UNL     1      44.533   6.660  11.245  0.00  0.00    +0.000 OA
ENDBRANCH   1  13
BRANCH   6  14
ATOM     14  O   UNL     1      44.192   4.126  10.409  0.00  0.00    +0.000 OA
BRANCH  14  15
ATOM     15  C   UNL     1      44.273   2.789   9.895  0.00  0.00    +0.000 C 
BRANCH  15  16
ATOM     16  C   UNL     1      45.227   2.648   8.742  0.00  0.00    +0.000 A 
ATOM     17  C   UNL     1      45.932   1.477   8.463  0.00  0.00    +0.000 A 
ATOM     18  C   UNL     1      46.759   1.428   7.344  0.00  0.00    +0.000 A 
ATOM     19  C   UNL     1      46.854   2.560   6.551  0.00  0.00    +0.000 A 
ATOM     20 CL   UNL     1      47.829   2.567   5.141  0.00  0.00    +0.000 Cl
ATOM     21  N   UNL     1      46.207   3.715   6.791  0.00  0.00    +0.000 NA
ATOM     22  C   UNL     1      45.410   3.731   7.881  0.00  0.00    +0.000 A 
ENDBRANCH  15  16
ENDBRANCH  14  15
ENDBRANCH   6  14
TORSDOF 5
ENDMDL
MODEL 4
REMARK VINA RESULT:    -7.313      3.216      6.357
REMARK INTER + INTRA:          -9.857
REMARK INTER:                  -9.083
REMARK INTRA:                  -0.773
REMARK UNBOUND:                -0.406
REMARK  Name = 
REMARK  6 active torsions:
REMARK  status: ('A' for Active; 'I' for Inactive)
REMARK    1  A    between atoms: C_1  and  O_2
REMARK    2  A    between atoms: O_2  and  C_3
REMARK    3  A    between atoms: C_5  and  C_6
REMARK    4  A    between atoms: C_11  and  O_12
REMARK    5  A    between atoms: O_12  and  C_13
REMARK    6  A    between atoms: C_13  and  C_14
REMARK                            x       y       z     vdW  Elec       q    Type
REMARK                         _______ _______ _______ _____ _____    ______ ____
ROOT
ATOM      1  C   UNL     1      45.231   4.174   8.955  0.00  0.00    +0.000 A 
ATOM      2  C   UNL     1      46.192   3.855   7.986  0.00  0.00    +0.000 A 
ATOM      3  C   UNL     1      46.415   2.521   7.598  0.00  0.00    +0.000 A 
ATOM      4  C   UNL     1      45.693   1.502   8.213  0.00  0.00    +0.000 A 
ATOM      5  C   UNL     1      44.741   1.808   9.181  0.00  0.00    +0.000 A 
ATOM      6  C   UNL     1      44.468   3.139   9.526  0.00  0.00    +0.000 A 
ENDROOT
BRANCH   3   7
ATOM      7  C   UNL     1      47.435   2.259   6.545  0.00  0.00    +0.000 C 
ATOM      8  N   UNL     1      47.438   3.042   5.422  0.00  0.00    +0.000 N 
ATOM      9  O   UNL     1      48.264   1.368   6.666  0.00  0.00    +0.000 OA
ATOM     10  H   UNL     1      46.798   3.794   5.227  0.00  0.00    +0.000 HD
ATOM     11  H   UNL     1      48.139   2.834   4.729  0.00  0.00    +0.000 HD
ENDBRANCH   3   7
BRANCH   1  13
ATOM     12  C   UNL     1      46.061   6.114  10.078  0.00  0.00    +0.000 C 
ATOM     13  O   UNL     1      44.992   5.448   9.411  0.00  0.00    +0.000 OA
ENDBRANCH   1  13
BRANCH   6  14
ATOM     14  O   UNL     1      43.453   3.475  10.397  0.00  0.00    +0.000 OA
BRANCH  14  15
ATOM     15  C   UNL     1      43.626   2.969  11.729  0.00  0.00    +0.000 C 
BRANCH  15  16
ATOM     16  C   UNL     1      44.726   3.652  12.490  0.00  0.00    +0.000 A 
ATOM     17  C   UNL     1      45.948   3.049  12.790  0.00  0.00    +0.000 A 
ATOM     18  C   UNL     1      46.924   3.779  13.461  0.00  0.00    +0.000 A 
ATOM     19  C   UNL     1      46.635   5.087  13.815  0.00  0.00    +0.000 A 
ATOM     20 CL   UNL     1      47.797   6.058  14.619  0.00  0.00    +0.000 Cl
ATOM     21  N   UNL     1      45.466   5.704  13.563  0.00  0.00    +0.000 NA
ATOM     22  C   UNL     1      44.540   4.971  12.908  0.00  0.00    +0.000 A 
ENDBRANCH  15  16
ENDBRANCH  14  15
ENDBRANCH   6  14
TORSDOF 5
ENDMDL
MODEL 5
REMARK VINA RESULT:    -7.151      2.005      2.944
REMARK INTER + INTRA:          -9.647
REMARK INTER:                  -9.107
REMARK INTRA:                  -0.540
REMARK UNBOUND:                -0.406
REMARK  Name = 
REMARK  6 active torsions:
REMARK  status: ('A' for Active; 'I' for Inactive)
REMARK    1  A    between atoms: C_1  and  O_2
REMARK    2  A    between atoms: O_2  and  C_3
REMARK    3  A    between atoms: C_5  and  C_6
REMARK    4  A    between atoms: C_11  and  O_12
REMARK    5  A    between atoms: O_12  and  C_13
REMARK    6  A    between atoms: C_13  and  C_14
REMARK                            x       y       z     vdW  Elec       q    Type
REMARK                         _______ _______ _______ _____ _____    ______ ____
ROOT
ATOM      1  C   UNL     1      45.448   6.464  11.838  0.00  0.00    +0.000 A 
ATOM      2  C   UNL     1      46.472   6.754  12.750  0.00  0.00    +0.000 A 
ATOM      3  C   UNL     1      47.003   5.754  13.583  0.00  0.00    +0.000 A 
ATOM      4  C   UNL     1      46.479   4.465  13.524  0.00  0.00    +0.000 A 
ATOM      5  C   UNL     1      45.458   4.169  12.625  0.00  0.00    +0.000 A 
ATOM      6  C   UNL     1      44.967   5.145  11.746  0.00  0.00    +0.000 A 
ENDROOT
BRANCH   3   7
ATOM      7  C   UNL     1      48.107   6.128  14.511  0.00  0.00    +0.000 C 
ATOM      8  N   UNL     1      47.903   6.003  15.859  0.00  0.00    +0.000 N 
ATOM      9  O   UNL     1      49.181   6.537  14.095  0.00  0.00    +0.000 OA
ATOM     10  H   UNL     1      47.058   5.680  16.300  0.00  0.00    +0.000 HD
ATOM     11  H   UNL     1      48.669   6.268  16.458  0.00  0.00    +0.000 HD
ENDBRANCH   3   7
BRANCH   1  13
ATOM     12  C   UNL     1      44.700   8.716  11.551  0.00  0.00    +0.000 C 
ATOM     13  O   UNL     1      44.854   7.401  11.025  0.00  0.00    +0.000 OA
ENDBRANCH   1  13
BRANCH   6  14
ATOM     14  O   UNL     1      44.037   4.851  10.772  0.00  0.00    +0.000 OA
BRANCH  14  15
ATOM     15  C   UNL     1      44.052   3.484  10.335  0.00  0.00    +0.000 C 
BRANCH  15  16
ATOM     16  C   UNL     1      45.001   3.230   9.198  0.00  0.00    +0.000 A 
ATOM     17  C   UNL     1      45.530   4.239   8.394  0.00  0.00    +0.000 A 
ATOM     18  C   UNL     1      46.438   3.910   7.391  0.00  0.00    +0.000 A 
ATOM     19  C   UNL     1      46.775   2.576   7.228  0.00  0.00    +0.000 A 
ATOM     20 CL   UNL     1      47.908   2.095   6.034  0.00  0.00    +0.000 Cl
ATOM     21  N   UNL     1      46.278   1.568   7.967  0.00  0.00    +0.000 NA
ATOM     22  C   UNL     1      45.402   1.919   8.933  0.00  0.00    +0.000 A 
ENDBRANCH  15  16
ENDBRANCH  14  15
ENDBRANCH   6  14
TORSDOF 5
ENDMDL
MODEL 6
REMARK VINA RESULT:    -6.786      3.146      6.538
REMARK INTER + INTRA:          -9.175
REMARK INTER:                  -8.846
REMARK INTRA:                  -0.329
REMARK UNBOUND:                -0.406
REMARK  Name = 
REMARK  6 active torsions:
REMARK  status: ('A' for Active; 'I' for Inactive)
REMARK    1  A    between atoms: C_1  and  O_2
REMARK    2  A    between atoms: O_2  and  C_3
REMARK    3  A    between atoms: C_5  and  C_6
REMARK    4  A    between atoms: C_11  and  O_12
REMARK    5  A    between atoms: O_12  and  C_13
REMARK    6  A    between atoms: C_13  and  C_14
REMARK                            x       y       z     vdW  Elec       q    Type
REMARK                         _______ _______ _______ _____ _____    ______ ____
ROOT
ATOM      1  C   UNL     1      44.283   3.105   9.933  0.00  0.00    +0.000 A 
ATOM      2  C   UNL     1      44.983   2.080   9.282  0.00  0.00    +0.000 A 
ATOM      3  C   UNL     1      46.014   2.371   8.371  0.00  0.00    +0.000 A 
ATOM      4  C   UNL     1      46.319   3.700   8.088  0.00  0.00    +0.000 A 
ATOM      5  C   UNL     1      45.625   4.725   8.724  0.00  0.00    +0.000 A 
ATOM      6  C   UNL     1      44.641   4.442   9.681  0.00  0.00    +0.000 A 
ENDROOT
BRANCH   3   7
ATOM      7  C   UNL     1      46.731   1.231   7.735  0.00  0.00    +0.000 C 
ATOM      8  N   UNL     1      47.742   1.500   6.853  0.00  0.00    +0.000 N 
ATOM      9  O   UNL     1      46.438   0.071   7.988  0.00  0.00    +0.000 OA
ATOM     10  H   UNL     1      48.056   2.416   6.577  0.00  0.00    +0.000 HD
ATOM     11  H   UNL     1      48.203   0.705   6.439  0.00  0.00    +0.000 HD
ENDBRANCH   3   7
BRANCH   1  13
ATOM     12  C   UNL     1      43.554   2.355  12.082  0.00  0.00    +0.000 C 
ATOM     13  O   UNL     1      43.238   2.893  10.801  0.00  0.00    +0.000 OA
ENDBRANCH   1  13
BRANCH   6  14
ATOM     14  O   UNL     1      44.019   5.436  10.407  0.00  0.00    +0.000 OA
BRANCH  14  15
ATOM     15  C   UNL     1      44.518   5.591  11.743  0.00  0.00    +0.000 C 
BRANCH  15  16
ATOM     16  C   UNL     1      45.518   6.704  11.883  0.00  0.00    +0.000 A 
ATOM     17  C   UNL     1      46.897   6.520  11.775  0.00  0.00    +0.000 A 
ATOM     18  C   UNL     1      47.743   7.621  11.874  0.00  0.00    +0.000 A 
ATOM     19  C   UNL     1      47.173   8.867  12.085  0.00  0.00    +0.000 A 
ATOM     20 CL   UNL     1      48.148  10.274  12.190  0.00  0.00    +0.000 Cl
ATOM     21  N   UNL     1      45.852   9.089  12.212  0.00  0.00    +0.000 NA
ATOM     22  C   UNL     1      45.057   8.002  12.109  0.00  0.00    +0.000 A 
ENDBRANCH  15  16
ENDBRANCH  14  15
ENDBRANCH   6  14
TORSDOF 5
ENDMDL
MODEL 7
REMARK VINA RESULT:    -6.556      2.050      2.429
REMARK INTER + INTRA:          -8.878
REMARK INTER:                  -8.638
REMARK INTRA:                  -0.241
REMARK UNBOUND:                -0.406
REMARK  Name = 
REMARK  6 active torsions:
REMARK  status: ('A' for Active; 'I' for Inactive)
REMARK    1  A    between atoms: C_1  and  O_2
REMARK    2  A    between atoms: O_2  and  C_3
REMARK    3  A    between atoms: C_5  and  C_6
REMARK    4  A    between atoms: C_11  and  O_12
REMARK    5  A    between atoms: O_12  and  C_13
REMARK    6  A    between atoms: C_13  and  C_14
REMARK                            x       y       z     vdW  Elec       q    Type
REMARK                         _______ _______ _______ _____ _____    ______ ____
ROOT
ATOM      1  C   UNL     1      45.750   4.780  12.692  0.00  0.00    +0.000 A 
ATOM      2  C   UNL     1      46.690   5.297  13.594  0.00  0.00    +0.000 A 
ATOM      3  C   UNL     1      47.341   6.517  13.342  0.00  0.00    +0.000 A 
ATOM      4  C   UNL     1      47.072   7.204  12.161  0.00  0.00    +0.000 A 
ATOM      5  C   UNL     1      46.145   6.695  11.255  0.00  0.00    +0.000 A 
ATOM      6  C   UNL     1      45.444   5.512  11.530  0.00  0.00    +0.000 A 
ENDROOT
BRANCH   3   7
ATOM      7  C   UNL     1      48.310   7.018  14.356  0.00  0.00    +0.000 C 
ATOM      8  N   UNL     1      47.876   7.917  15.293  0.00  0.00    +0.000 N 
ATOM      9  O   UNL     1      49.473   6.641  14.370  0.00  0.00    +0.000 OA
ATOM     10  H   UNL     1      46.943   8.290  15.364  0.00  0.00    +0.000 HD
ATOM     11  H   UNL     1      48.558   8.237  15.962  0.00  0.00    +0.000 HD
ENDBRANCH   3   7
BRANCH   1  13
ATOM     12  C   UNL     1      43.707   3.612  13.110  0.00  0.00    +0.000 C 
ATOM     13  O   UNL     1      45.109   3.575  12.855  0.00  0.00    +0.000 OA
ENDBRANCH   1  13
BRANCH   6  14
ATOM     14  O   UNL     1      44.441   5.048  10.706  0.00  0.00    +0.000 OA
BRANCH  14  15
ATOM     15  C   UNL     1      44.754   5.102   9.306  0.00  0.00    +0.000 C 
BRANCH  15  16
ATOM     16  C   UNL     1      45.312   3.815   8.768  0.00  0.00    +0.000 A 
ATOM     17  C   UNL     1      46.276   3.753   7.761  0.00  0.00    +0.000 A 
ATOM     18  C   UNL     1      46.766   2.514   7.360  0.00  0.00    +0.000 A 
ATOM     19  C   UNL     1      46.264   1.380   7.978  0.00  0.00    +0.000 A 
ATOM     20 CL   UNL     1      46.838  -0.180   7.558  0.00  0.00    +0.000 Cl
ATOM     21  N   UNL     1      45.323   1.391   8.940  0.00  0.00    +0.000 NA
ATOM     22  C   UNL     1      44.869   2.608   9.310  0.00  0.00    +0.000 A 
ENDBRANCH  15  16
ENDBRANCH  14  15
ENDBRANCH   6  14
TORSDOF 5
ENDMDL
MODEL 8
REMARK VINA RESULT:    -6.377      2.072      2.269
REMARK INTER + INTRA:          -8.647
REMARK INTER:                  -8.304
REMARK INTRA:                  -0.343
REMARK UNBOUND:                -0.406
REMARK  Name = 
REMARK  6 active torsions:
REMARK  status: ('A' for Active; 'I' for Inactive)
REMARK    1  A    between atoms: C_1  and  O_2
REMARK    2  A    between atoms: O_2  and  C_3
REMARK    3  A    between atoms: C_5  and  C_6
REMARK    4  A    between atoms: C_11  and  O_12
REMARK    5  A    between atoms: O_12  and  C_13
REMARK    6  A    between atoms: C_13  and  C_14
REMARK                            x       y       z     vdW  Elec       q    Type
REMARK                         _______ _______ _______ _____ _____    ______ ____
ROOT
ATOM      1  C   UNL     1      46.969   5.139  13.510  0.00  0.00    +0.000 A 
ATOM      2  C   UNL     1      48.015   6.022  13.814  0.00  0.00    +0.000 A 
ATOM      3  C   UNL     1      48.245   7.168  13.034  0.00  0.00    +0.000 A 
ATOM      4  C   UNL     1      47.442   7.411  11.922  0.00  0.00    +0.000 A 
ATOM      5  C   UNL     1      46.405   6.537  11.608  0.00  0.00    +0.000 A 
ATOM      6  C   UNL     1      46.129   5.427  12.419  0.00  0.00    +0.000 A 
ENDROOT
BRANCH   3   7
ATOM      7  C   UNL     1      49.360   8.074  13.430  0.00  0.00    +0.000 C 
ATOM      8  N   UNL     1      50.621   7.804  12.972  0.00  0.00    +0.000 N 
ATOM      9  O   UNL     1      49.169   9.046  14.146  0.00  0.00    +0.000 OA
ATOM     10  H   UNL     1      50.881   7.030  12.382  0.00  0.00    +0.000 HD
ATOM     11  H   UNL     1      51.351   8.435  13.262  0.00  0.00    +0.000 HD
ENDBRANCH   3   7
BRANCH   1  13
ATOM     12  C   UNL     1      47.163   3.916  15.554  0.00  0.00    +0.000 C 
ATOM     13  O   UNL     1      46.714   3.980  14.203  0.00  0.00    +0.000 OA
ENDBRANCH   1  13
BRANCH   6  14
ATOM     14  O   UNL     1      45.040   4.611  12.196  0.00  0.00    +0.000 OA
BRANCH  14  15
ATOM     15  C   UNL     1      44.397   4.817  10.929  0.00  0.00    +0.000 C 
BRANCH  15  16
ATOM     16  C   UNL     1      45.028   4.042   9.806  0.00  0.00    +0.000 A 
ATOM     17  C   UNL     1      45.039   2.649   9.741  0.00  0.00    +0.000 A 
ATOM     18  C   UNL     1      45.608   2.020   8.637  0.00  0.00    +0.000 A 
ATOM     19  C   UNL     1      46.152   2.815   7.641  0.00  0.00    +0.000 A 
ATOM     20 CL   UNL     1      46.846   2.116   6.238  0.00  0.00    +0.000 Cl
ATOM     21  N   UNL     1      46.180   4.160   7.670  0.00  0.00    +0.000 NA
ATOM     22  C   UNL     1      45.618   4.741   8.752  0.00  0.00    +0.000 A 
ENDBRANCH  15  16
ENDBRANCH  14  15
ENDBRANCH   6  14
TORSDOF 5
ENDMDL
MODEL 9
REMARK VINA RESULT:    -5.979      4.327      7.311
REMARK INTER + INTRA:          -8.132
REMARK INTER:                  -7.599
REMARK INTRA:                  -0.533
REMARK UNBOUND:                -0.406
REMARK  Name = 
REMARK  6 active torsions:
REMARK  status: ('A' for Active; 'I' for Inactive)
REMARK    1  A    between atoms: C_1  and  O_2
REMARK    2  A    between atoms: O_2  and  C_3
REMARK    3  A    between atoms: C_5  and  C_6
REMARK    4  A    between atoms: C_11  and  O_12
REMARK    5  A    between atoms: O_12  and  C_13
REMARK    6  A    between atoms: C_13  and  C_14
REMARK                            x       y       z     vdW  Elec       q    Type
REMARK                         _______ _______ _______ _____ _____    ______ ____
ROOT
ATOM      1  C   UNL     1      46.438   6.074  12.966  0.00  0.00    +0.000 A 
ATOM      2  C   UNL     1      45.499   5.765  11.973  0.00  0.00    +0.000 A 
ATOM      3  C   UNL     1      45.051   4.446  11.785  0.00  0.00    +0.000 A 
ATOM      4  C   UNL     1      45.577   3.427  12.575  0.00  0.00    +0.000 A 
ATOM      5  C   UNL     1      46.516   3.723  13.559  0.00  0.00    +0.000 A 
ATOM      6  C   UNL     1      46.918   5.045  13.797  0.00  0.00    +0.000 A 
ENDROOT
BRANCH   3   7
ATOM      7  C   UNL     1      44.033   4.195  10.727  0.00  0.00    +0.000 C 
ATOM      8  N   UNL     1      44.230   4.733   9.484  0.00  0.00    +0.000 N 
ATOM      9  O   UNL     1      43.037   3.520  10.946  0.00  0.00    +0.000 OA
ATOM     10  H   UNL     1      45.012   5.303   9.206  0.00  0.00    +0.000 HD
ATOM     11  H   UNL     1      43.520   4.546   8.794  0.00  0.00    +0.000 HD
ENDBRANCH   3   7
BRANCH   1  13
ATOM     12  C   UNL     1      46.043   8.428  13.091  0.00  0.00    +0.000 C 
ATOM     13  O   UNL     1      46.950   7.333  13.177  0.00  0.00    +0.000 OA
ENDBRANCH   1  13
BRANCH   6  14
ATOM     14  O   UNL     1      47.759   5.378  14.837  0.00  0.00    +0.000 OA
BRANCH  14  15
ATOM     15  C   UNL     1      47.505   4.661  16.054  0.00  0.00    +0.000 C 
BRANCH  15  16
ATOM     16  C   UNL     1      48.702   3.912  16.567  0.00  0.00    +0.000 A 
ATOM     17  C   UNL     1      48.787   2.519  16.598  0.00  0.00    +0.000 A 
ATOM     18  C   UNL     1      49.957   1.916  17.050  0.00  0.00    +0.000 A 
ATOM     19  C   UNL     1      50.997   2.733  17.462  0.00  0.00    +0.000 A 
ATOM     20 CL   UNL     1      52.480   2.064  18.005  0.00  0.00    +0.000 Cl
ATOM     21  N   UNL     1      50.954   4.077  17.466  0.00  0.00    +0.000 NA
ATOM     22  C   UNL     1      49.808   4.634  17.020  0.00  0.00    +0.000 A 
ENDBRANCH  15  16
ENDBRANCH  14  15
ENDBRANCH   6  14
TORSDOF 5
ENDMDL
