MODEL 1
REMARK VINA RESULT:    -8.470      0.000      0.000
REMARK INTER + INTRA:         -11.822
REMARK INTER:                 -10.946
REMARK INTRA:                  -0.876
REMARK UNBOUND:                -0.876
REMARK  Name = 
REMARK  5 active torsions:
REMARK  status: ('A' for Active; 'I' for Inactive)
REMARK    1  A    between atoms: C_2  and  C_4
REMARK    2  A    between atoms: C_7  and  N_8
REMARK    3  A    between atoms: N_8  and  C_9
REMARK    4  A    between atoms: C_9  and  C_10
REMARK    5  A    between atoms: C_14  and  N_15
REMARK                            x       y       z     vdW  Elec       q    Type
REMARK                         _______ _______ _______ _____ _____    ______ ____
ROOT
ATOM      1  N   UNL     1      43.749   4.838   9.900  0.00  0.00    +0.000 N 
ATOM      2  H   UNL     1      42.972   5.242   9.388  0.00  0.00    +0.000 HD
ENDROOT
BRANCH   1   6
ATOM      3  C   UNL     1      46.346   2.264   7.802  0.00  0.00    +0.000 A 
ATOM      4  C   UNL     1      45.420   1.729   8.697  0.00  0.00    +0.000 A 
ATOM      5  C   UNL     1      44.533   2.572   9.373  0.00  0.00    +0.000 A 
ATOM      6  C   UNL     1      44.538   3.958   9.173  0.00  0.00    +0.000 A 
ATOM      7  C   UNL     1      45.496   4.480   8.288  0.00  0.00    +0.000 A 
ATOM      8  C   UNL     1      46.389   3.646   7.605  0.00  0.00    +0.000 A 
BRANCH   3  10
ATOM      9  N   UNL     1      48.429   2.003   6.567  0.00  0.00    +0.000 N 
ATOM     10  C   UNL     1      47.324   1.398   7.095  0.00  0.00    +0.000 C 
ATOM     11  O   UNL     1      47.164   0.186   7.010  0.00  0.00    +0.000 OA
ATOM     12  H   UNL     1      49.127   1.394   6.160  0.00  0.00    +0.000 HD
ATOM     13  H   UNL     1      48.705   2.943   6.805  0.00  0.00    +0.000 HD
ENDBRANCH   3  10
ENDBRANCH   1   6
BRANCH   1  14
ATOM     14  C   UNL     1      43.529   4.719  11.336  0.00  0.00    +0.000 C 
BRANCH  14  15
ATOM     15  C   UNL     1      44.778   4.822  12.172  0.00  0.00    +0.000 A 
ATOM     16  C   UNL     1      45.215   3.694  12.859  0.00  0.00    +0.000 A 
ATOM     17  N   UNL     1      46.346   3.643  13.589  0.00  0.00    +0.000 NA
ATOM     18  C   UNL     1      47.080   4.782  13.639  0.00  0.00    +0.000 A 
ATOM     19  C   UNL     1      46.763   5.991  13.012  0.00  0.00    +0.000 A 
ATOM     20  C   UNL     1      45.574   5.973  12.274  0.00  0.00    +0.000 A 
BRANCH  19  21
ATOM     21  N   UNL     1      47.555   7.113  13.105  0.00  0.00    +0.000 N 
ATOM     22  C   UNL     1      47.023   8.475  13.266  0.00  0.00    +0.000 C 
ATOM     23  C   UNL     1      47.515   9.369  12.118  0.00  0.00    +0.000 C 
ATOM     24  O   UNL     1      48.950   9.349  12.011  0.00  0.00    +0.000 OA
ATOM     25  C   UNL     1      49.415   8.008  11.777  0.00  0.00    +0.000 C 
ATOM     26  C   UNL     1      49.013   7.059  12.920  0.00  0.00    +0.000 C 
ENDBRANCH  19  21
ENDBRANCH  14  15
ENDBRANCH   1  14
TORSDOF 5
ENDMDL
MODEL 2
REMARK VINA RESULT:    -8.159      1.791      2.887
REMARK INTER + INTRA:         -11.420
REMARK INTER:                 -10.622
REMARK INTRA:                  -0.798
REMARK UNBOUND:                -0.876
REMARK  Name = 
REMARK  5 active torsions:
REMARK  status: ('A' for Active; 'I' for Inactive)
REMARK    1  A    between atoms: C_2  and  C_4
REMARK    2  A    between atoms: C_7  and  N_8
REMARK    3  A    between atoms: N_8  and  C_9
REMARK    4  A    between atoms: C_9  and  C_10
REMARK    5  A    between atoms: C_14  and  N_15
REMARK                            x       y       z     vdW  Elec       q    Type
REMARK                         _______ _______ _______ _____ _____    ______ ____
ROOT
ATOM      1  N   UNL     1      43.519   4.713   9.699  0.00  0.00    +0.000 N 
ATOM      2  H   UNL     1      42.643   4.723   9.187  0.00  0.00    +0.000 HD
ENDROOT
BRANCH   1   6
ATOM      3  C   UNL     1      46.404   2.271   7.834  0.00  0.00    +0.000 A 
ATOM      4  C   UNL     1      46.430   3.650   7.627  0.00  0.00    +0.000 A 
ATOM      5  C   UNL     1      45.497   4.472   8.267  0.00  0.00    +0.000 A 
ATOM      6  C   UNL     1      44.526   3.948   9.129  0.00  0.00    +0.000 A 
ATOM      7  C   UNL     1      44.499   2.555   9.304  0.00  0.00    +0.000 A 
ATOM      8  C   UNL     1      45.428   1.722   8.668  0.00  0.00    +0.000 A 
BRANCH   3  10
ATOM      9  N   UNL     1      48.462   1.944   6.572  0.00  0.00    +0.000 N 
ATOM     10  C   UNL     1      47.360   1.370   7.142  0.00  0.00    +0.000 C 
ATOM     11  O   UNL     1      47.188   0.157   7.104  0.00  0.00    +0.000 OA
ATOM     12  H   UNL     1      49.146   1.313   6.176  0.00  0.00    +0.000 HD
ATOM     13  H   UNL     1      48.750   2.890   6.770  0.00  0.00    +0.000 HD
ENDBRANCH   3  10
ENDBRANCH   1   6
BRANCH   1  14
ATOM     14  C   UNL     1      43.379   4.914  11.137  0.00  0.00    +0.000 C 
BRANCH  14  15
ATOM     15  C   UNL     1      44.464   5.751  11.762  0.00  0.00    +0.000 A 
ATOM     16  C   UNL     1      44.429   7.130  11.581  0.00  0.00    +0.000 A 
ATOM     17  N   UNL     1      45.304   7.989  12.137  0.00  0.00    +0.000 NA
ATOM     18  C   UNL     1      46.271   7.442  12.915  0.00  0.00    +0.000 A 
ATOM     19  C   UNL     1      46.439   6.078  13.178  0.00  0.00    +0.000 A 
ATOM     20  C   UNL     1      45.496   5.244  12.566  0.00  0.00    +0.000 A 
BRANCH  19  21
ATOM     21  N   UNL     1      47.447   5.589  13.978  0.00  0.00    +0.000 N 
ATOM     22  C   UNL     1      47.383   4.289  14.664  0.00  0.00    +0.000 C 
ATOM     23  C   UNL     1      47.552   4.486  16.177  0.00  0.00    +0.000 C 
ATOM     24  O   UNL     1      48.757   5.209  16.484  0.00  0.00    +0.000 OA
ATOM     25  C   UNL     1      48.737   6.503  15.855  0.00  0.00    +0.000 C 
ATOM     26  C   UNL     1      48.630   6.390  14.324  0.00  0.00    +0.000 C 
ENDBRANCH  19  21
ENDBRANCH  14  15
ENDBRANCH   1  14
TORSDOF 5
ENDMDL
MODEL 3
REMARK VINA RESULT:    -6.777      1.827      6.741
REMARK INTER + INTRA:          -9.634
REMARK INTER:                  -8.924
REMARK INTRA:                  -0.710
REMARK UNBOUND:                -0.876
REMARK  Name = 
REMARK  5 active torsions:
REMARK  status: ('A' for Active; 'I' for Inactive)
REMARK    1  A    between atoms: C_2  and  C_4
REMARK    2  A    between atoms: C_7  and  N_8
REMARK    3  A    between atoms: N_8  and  C_9
REMARK    4  A    between atoms: C_9  and  C_10
REMARK    5  A    between atoms: C_14  and  N_15
REMARK                            x       y       z     vdW  Elec       q    Type
REMARK                         _______ _______ _______ _____ _____    ______ ____
ROOT
ATOM      1  N   UNL     1      46.196   6.228  13.663  0.00  0.00    +0.000 N 
ATOM      2  H   UNL     1      45.997   6.328  14.653  0.00  0.00    +0.000 HD
ENDROOT
BRANCH   1   6
ATOM      3  C   UNL     1      49.891   7.822  12.408  0.00  0.00    +0.000 A 
ATOM      4  C   UNL     1      49.729   7.416  13.733  0.00  0.00    +0.000 A 
ATOM      5  C   UNL     1      48.518   6.856  14.150  0.00  0.00    +0.000 A 
ATOM      6  C   UNL     1      47.446   6.680  13.266  0.00  0.00    +0.000 A 
ATOM      7  C   UNL     1      47.619   7.120  11.944  0.00  0.00    +0.000 A 
ATOM      8  C   UNL     1      48.828   7.681  11.514  0.00  0.00    +0.000 A 
BRANCH   3  10
ATOM      9  N   UNL     1      52.300   8.122  12.613  0.00  0.00    +0.000 N 
ATOM     10  C   UNL     1      51.154   8.450  11.944  0.00  0.00    +0.000 C 
ATOM     11  O   UNL     1      51.178   9.210  10.983  0.00  0.00    +0.000 OA
ATOM     12  H   UNL     1      53.164   8.491  12.237  0.00  0.00    +0.000 HD
ATOM     13  H   UNL     1      52.357   7.345  13.252  0.00  0.00    +0.000 HD
ENDBRANCH   3  10
ENDBRANCH   1   6
BRANCH   1  14
ATOM     14  C   UNL     1      45.019   6.266  12.804  0.00  0.00    +0.000 C 
BRANCH  14  15
ATOM     15  C   UNL     1      44.630   4.936  12.214  0.00  0.00    +0.000 A 
ATOM     16  C   UNL     1      43.873   4.061  12.985  0.00  0.00    +0.000 A 
ATOM     17  N   UNL     1      43.413   2.872  12.551  0.00  0.00    +0.000 NA
ATOM     18  C   UNL     1      43.729   2.535  11.276  0.00  0.00    +0.000 A 
ATOM     19  C   UNL     1      44.489   3.305  10.388  0.00  0.00    +0.000 A 
ATOM     20  C   UNL     1      44.935   4.525  10.907  0.00  0.00    +0.000 A 
BRANCH  19  21
ATOM     21  N   UNL     1      44.774   2.902   9.103  0.00  0.00    +0.000 N 
ATOM     22  C   UNL     1      45.034   1.504   8.726  0.00  0.00    +0.000 C 
ATOM     23  C   UNL     1      46.417   1.387   8.069  0.00  0.00    +0.000 C 
ATOM     24  O   UNL     1      46.551   2.289   6.957  0.00  0.00    +0.000 OA
ATOM     25  C   UNL     1      46.365   3.648   7.390  0.00  0.00    +0.000 C 
ATOM     26  C   UNL     1      44.972   3.863   8.008  0.00  0.00    +0.000 C 
ENDBRANCH  19  21
ENDBRANCH  14  15
ENDBRANCH   1  14
TORSDOF 5
ENDMDL
MODEL 4
REMARK VINA RESULT:    -6.749      3.608      8.191
REMARK INTER + INTRA:          -9.598
REMARK INTER:                  -9.134
REMARK INTRA:                  -0.464
REMARK UNBOUND:                -0.876
REMARK  Name = 
REMARK  5 active torsions:
REMARK  status: ('A' for Active; 'I' for Inactive)
REMARK    1  A    between atoms: C_2  and  C_4
REMARK    2  A    between atoms: C_7  and  N_8
REMARK    3  A    between atoms: N_8  and  C_9
REMARK    4  A    between atoms: C_9  and  C_10
REMARK    5  A    between atoms: C_14  and  N_15
REMARK                            x       y       z     vdW  Elec       q    Type
REMARK                         _______ _______ _______ _____ _____    ______ ____
ROOT
ATOM      1  N   UNL     1      46.946   3.787  14.575  0.00  0.00    +0.000 N 
ATOM      2  H   UNL     1      46.411   2.932  14.464  0.00  0.00    +0.000 HD
ENDROOT
BRANCH   1   6
ATOM      3  C   UNL     1      48.750   4.301  18.349  0.00  0.00    +0.000 A 
ATOM      4  C   UNL     1      48.451   3.016  17.897  0.00  0.00    +0.000 A 
ATOM      5  C   UNL     1      47.882   2.833  16.633  0.00  0.00    +0.000 A 
ATOM      6  C   UNL     1      47.605   3.916  15.788  0.00  0.00    +0.000 A 
ATOM      7  C   UNL     1      47.888   5.203  16.272  0.00  0.00    +0.000 A 
ATOM      8  C   UNL     1      48.458   5.398  17.537  0.00  0.00    +0.000 A 
BRANCH   3  10
ATOM      9  N   UNL     1      48.584   4.116  20.772  0.00  0.00    +0.000 N 
ATOM     10  C   UNL     1      49.324   4.528  19.700  0.00  0.00    +0.000 C 
ATOM     11  O   UNL     1      50.427   5.039  19.852  0.00  0.00    +0.000 OA
ATOM     12  H   UNL     1      49.019   4.201  21.682  0.00  0.00    +0.000 HD
ATOM     13  H   UNL     1      47.789   3.501  20.685  0.00  0.00    +0.000 HD
ENDBRANCH   3  10
ENDBRANCH   1   6
BRANCH   1  14
ATOM     14  C   UNL     1      46.434   4.921  13.815  0.00  0.00    +0.000 C 
BRANCH  14  15
ATOM     15  C   UNL     1      45.326   4.582  12.852  0.00  0.00    +0.000 A 
ATOM     16  C   UNL     1      44.013   4.837  13.230  0.00  0.00    +0.000 A 
ATOM     17  N   UNL     1      42.943   4.635  12.437  0.00  0.00    +0.000 NA
ATOM     18  C   UNL     1      43.198   4.147  11.198  0.00  0.00    +0.000 A 
ATOM     19  C   UNL     1      44.460   3.833  10.683  0.00  0.00    +0.000 A 
ATOM     20  C   UNL     1      45.524   4.065  11.562  0.00  0.00    +0.000 A 
BRANCH  19  21
ATOM     21  N   UNL     1      44.648   3.339   9.412  0.00  0.00    +0.000 N 
ATOM     22  C   UNL     1      44.685   1.904   9.093  0.00  0.00    +0.000 C 
ATOM     23  C   UNL     1      46.017   1.551   8.416  0.00  0.00    +0.000 C 
ATOM     24  O   UNL     1      46.258   2.375   7.262  0.00  0.00    +0.000 OA
ATOM     25  C   UNL     1      46.291   3.763   7.638  0.00  0.00    +0.000 C 
ATOM     26  C   UNL     1      44.962   4.213   8.272  0.00  0.00    +0.000 C 
ENDBRANCH  19  21
ENDBRANCH  14  15
ENDBRANCH   1  14
TORSDOF 5
ENDMDL
MODEL 5
REMARK VINA RESULT:    -6.683      2.514      3.551
REMARK INTER + INTRA:          -9.513
REMARK INTER:                  -8.814
REMARK INTRA:                  -0.698
REMARK UNBOUND:                -0.876
REMARK  Name = 
REMARK  5 active torsions:
REMARK  status: ('A' for Active; 'I' for Inactive)
REMARK    1  A    between atoms: C_2  and  C_4
REMARK    2  A    between atoms: C_7  and  N_8
REMARK    3  A    between atoms: N_8  and  C_9
REMARK    4  A    between atoms: C_9  and  C_10
REMARK    5  A    between atoms: C_14  and  N_15
REMARK                            x       y       z     vdW  Elec       q    Type
REMARK                         _______ _______ _______ _____ _____    ______ ____
ROOT
ATOM      1  N   UNL     1      44.442   4.609  10.977  0.00  0.00    +0.000 N 
ATOM      2  H   UNL     1      44.145   3.974  11.711  0.00  0.00    +0.000 HD
ENDROOT
BRANCH   1   6
ATOM      3  C   UNL     1      46.270   2.830   7.622  0.00  0.00    +0.000 A 
ATOM      4  C   UNL     1      45.618   2.028   8.558  0.00  0.00    +0.000 A 
ATOM      5  C   UNL     1      44.981   2.611   9.657  0.00  0.00    +0.000 A 
ATOM      6  C   UNL     1      44.969   3.999   9.849  0.00  0.00    +0.000 A 
ATOM      7  C   UNL     1      45.654   4.787   8.910  0.00  0.00    +0.000 A 
ATOM      8  C   UNL     1      46.296   4.213   7.805  0.00  0.00    +0.000 A 
BRANCH   3  10
ATOM      9  N   UNL     1      47.164   3.029   5.365  0.00  0.00    +0.000 N 
ATOM     10  C   UNL     1      46.984   2.236   6.463  0.00  0.00    +0.000 C 
ATOM     11  O   UNL     1      47.422   1.092   6.495  0.00  0.00    +0.000 OA
ATOM     12  H   UNL     1      47.721   2.643   4.614  0.00  0.00    +0.000 HD
ATOM     13  H   UNL     1      47.021   4.028   5.382  0.00  0.00    +0.000 HD
ENDBRANCH   3  10
ENDBRANCH   1   6
BRANCH   1  14
ATOM     14  C   UNL     1      44.862   5.923  11.450  0.00  0.00    +0.000 C 
BRANCH  14  15
ATOM     15  C   UNL     1      46.049   5.905  12.377  0.00  0.00    +0.000 A 
ATOM     16  C   UNL     1      47.131   6.728  12.089  0.00  0.00    +0.000 A 
ATOM     17  N   UNL     1      48.222   6.847  12.871  0.00  0.00    +0.000 NA
ATOM     18  C   UNL     1      48.234   6.099  14.002  0.00  0.00    +0.000 A 
ATOM     19  C   UNL     1      47.227   5.221  14.416  0.00  0.00    +0.000 A 
ATOM     20  C   UNL     1      46.126   5.146  13.555  0.00  0.00    +0.000 A 
BRANCH  19  21
ATOM     21  N   UNL     1      47.304   4.490  15.580  0.00  0.00    +0.000 N 
ATOM     22  C   UNL     1      47.299   5.091  16.922  0.00  0.00    +0.000 C 
ATOM     23  C   UNL     1      48.566   4.681  17.686  0.00  0.00    +0.000 C 
ATOM     24  O   UNL     1      48.718   3.251  17.726  0.00  0.00    +0.000 OA
ATOM     25  C   UNL     1      48.796   2.718  16.392  0.00  0.00    +0.000 C 
ATOM     26  C   UNL     1      47.529   3.037  15.577  0.00  0.00    +0.000 C 
ENDBRANCH  19  21
ENDBRANCH  14  15
ENDBRANCH   1  14
TORSDOF 5
ENDMDL
MODEL 6
REMARK VINA RESULT:    -6.103      3.635      5.772
REMARK INTER + INTRA:          -8.763
REMARK INTER:                  -8.035
REMARK INTRA:                  -0.728
REMARK UNBOUND:                -0.876
REMARK  Name = 
REMARK  5 active torsions:
REMARK  status: ('A' for Active; 'I' for Inactive)
REMARK    1  A    between atoms: C_2  and  C_4
REMARK    2  A    between atoms: C_7  and  N_8
REMARK    3  A    between atoms: N_8  and  C_9
REMARK    4  A    between atoms: C_9  and  C_10
REMARK    5  A    between atoms: C_14  and  N_15
REMARK                            x       y       z     vdW  Elec       q    Type
REMARK                         _______ _______ _______ _____ _____    ______ ____
ROOT
ATOM      1  N   UNL     1      46.521   7.419  13.256  0.00  0.00    +0.000 N 
ATOM      2  H   UNL     1      46.155   7.628  14.179  0.00  0.00    +0.000 HD
ENDROOT
BRANCH   1   6
ATOM      3  C   UNL     1      44.668   4.052  11.525  0.00  0.00    +0.000 A 
ATOM      4  C   UNL     1      45.139   5.077  10.706  0.00  0.00    +0.000 A 
ATOM      5  C   UNL     1      45.784   6.183  11.268  0.00  0.00    +0.000 A 
ATOM      6  C   UNL     1      45.983   6.293  12.650  0.00  0.00    +0.000 A 
ATOM      7  C   UNL     1      45.478   5.264  13.461  0.00  0.00    +0.000 A 
ATOM      8  C   UNL     1      44.831   4.151  12.909  0.00  0.00    +0.000 A 
BRANCH   3  10
ATOM      9  N   UNL     1      44.496   2.284   9.859  0.00  0.00    +0.000 N 
ATOM     10  C   UNL     1      43.950   2.881  10.960  0.00  0.00    +0.000 C 
ATOM     11  O   UNL     1      42.925   2.447  11.473  0.00  0.00    +0.000 OA
ATOM     12  H   UNL     1      44.044   1.440   9.532  0.00  0.00    +0.000 HD
ATOM     13  H   UNL     1      45.437   2.467   9.547  0.00  0.00    +0.000 HD
ENDBRANCH   3  10
ENDBRANCH   1   6
BRANCH   1  14
ATOM     14  C   UNL     1      47.888   7.875  13.031  0.00  0.00    +0.000 C 
BRANCH  14  15
ATOM     15  C   UNL     1      48.874   7.445  14.086  0.00  0.00    +0.000 A 
ATOM     16  C   UNL     1      50.159   7.975  14.053  0.00  0.00    +0.000 A 
ATOM     17  N   UNL     1      51.109   7.716  14.972  0.00  0.00    +0.000 NA
ATOM     18  C   UNL     1      50.758   6.878  15.979  0.00  0.00    +0.000 A 
ATOM     19  C   UNL     1      49.512   6.262  16.138  0.00  0.00    +0.000 A 
ATOM     20  C   UNL     1      48.575   6.574  15.146  0.00  0.00    +0.000 A 
BRANCH  19  21
ATOM     21  N   UNL     1      49.221   5.419  17.187  0.00  0.00    +0.000 N 
ATOM     22  C   UNL     1      50.189   4.474  17.764  0.00  0.00    +0.000 C 
ATOM     23  C   UNL     1      49.634   3.044  17.687  0.00  0.00    +0.000 C 
ATOM     24  O   UNL     1      48.338   2.947  18.304  0.00  0.00    +0.000 OA
ATOM     25  C   UNL     1      47.408   3.832  17.654  0.00  0.00    +0.000 C 
ATOM     26  C   UNL     1      47.865   5.300  17.741  0.00  0.00    +0.000 C 
ENDBRANCH  19  21
ENDBRANCH  14  15
ENDBRANCH   1  14
TORSDOF 5
ENDMDL
MODEL 7
REMARK VINA RESULT:    -6.095      4.592      7.848
REMARK INTER + INTRA:          -8.753
REMARK INTER:                  -8.204
REMARK INTRA:                  -0.550
REMARK UNBOUND:                -0.876
REMARK  Name = 
REMARK  5 active torsions:
REMARK  status: ('A' for Active; 'I' for Inactive)
REMARK    1  A    between atoms: C_2  and  C_4
REMARK    2  A    between atoms: C_7  and  N_8
REMARK    3  A    between atoms: N_8  and  C_9
REMARK    4  A    between atoms: C_9  and  C_10
REMARK    5  A    between atoms: C_14  and  N_15
REMARK                            x       y       z     vdW  Elec       q    Type
REMARK                         _______ _______ _______ _____ _____    ______ ____
ROOT
ATOM      1  N   UNL     1      48.105   4.728  16.728  0.00  0.00    +0.000 N 
ATOM      2  H   UNL     1      48.267   5.725  16.819  0.00  0.00    +0.000 HD
ENDROOT
BRANCH   1   6
ATOM      3  C   UNL     1      51.401   2.226  17.532  0.00  0.00    +0.000 A 
ATOM      4  C   UNL     1      51.497   3.595  17.783  0.00  0.00    +0.000 A 
ATOM      5  C   UNL     1      50.398   4.428  17.550  0.00  0.00    +0.000 A 
ATOM      6  C   UNL     1      49.182   3.923  17.072  0.00  0.00    +0.000 A 
ATOM      7  C   UNL     1      49.114   2.548  16.800  0.00  0.00    +0.000 A 
ATOM      8  C   UNL     1      50.208   1.704  17.030  0.00  0.00    +0.000 A 
BRANCH   3  10
ATOM      9  N   UNL     1      52.314   0.108  18.314  0.00  0.00    +0.000 N 
ATOM     10  C   UNL     1      52.561   1.322  17.738  0.00  0.00    +0.000 C 
ATOM     11  O   UNL     1      53.691   1.635  17.381  0.00  0.00    +0.000 OA
ATOM     12  H   UNL     1      53.096  -0.531  18.374  0.00  0.00    +0.000 HD
ATOM     13  H   UNL     1      51.385  -0.272  18.413  0.00  0.00    +0.000 HD
ENDBRANCH   3  10
ENDBRANCH   1   6
BRANCH   1  14
ATOM     14  C   UNL     1      47.125   4.366  15.711  0.00  0.00    +0.000 C 
BRANCH  14  15
ATOM     15  C   UNL     1      47.127   5.255  14.495  0.00  0.00    +0.000 A 
ATOM     16  C   UNL     1      48.116   6.226  14.380  0.00  0.00    +0.000 A 
ATOM     17  N   UNL     1      48.260   7.039  13.316  0.00  0.00    +0.000 NA
ATOM     18  C   UNL     1      47.364   6.875  12.310  0.00  0.00    +0.000 A 
ATOM     19  C   UNL     1      46.313   5.952  12.289  0.00  0.00    +0.000 A 
ATOM     20  C   UNL     1      46.222   5.143  13.428  0.00  0.00    +0.000 A 
BRANCH  19  21
ATOM     21  N   UNL     1      45.437   5.840  11.233  0.00  0.00    +0.000 N 
ATOM     22  C   UNL     1      43.975   5.831  11.385  0.00  0.00    +0.000 C 
ATOM     23  C   UNL     1      43.393   4.542  10.788  0.00  0.00    +0.000 C 
ATOM     24  O   UNL     1      43.802   4.361   9.421  0.00  0.00    +0.000 OA
ATOM     25  C   UNL     1      45.237   4.297   9.334  0.00  0.00    +0.000 C 
ATOM     26  C   UNL     1      45.897   5.585   9.860  0.00  0.00    +0.000 C 
ENDBRANCH  19  21
ENDBRANCH  14  15
ENDBRANCH   1  14
TORSDOF 5
ENDMDL
MODEL 8
REMARK VINA RESULT:    -5.983      4.876      6.480
REMARK INTER + INTRA:          -8.608
REMARK INTER:                  -8.041
REMARK INTRA:                  -0.567
REMARK UNBOUND:                -0.876
REMARK  Name = 
REMARK  5 active torsions:
REMARK  status: ('A' for Active; 'I' for Inactive)
REMARK    1  A    between atoms: C_2  and  C_4
REMARK    2  A    between atoms: C_7  and  N_8
REMARK    3  A    between atoms: N_8  and  C_9
REMARK    4  A    between atoms: C_9  and  C_10
REMARK    5  A    between atoms: C_14  and  N_15
REMARK                            x       y       z     vdW  Elec       q    Type
REMARK                         _______ _______ _______ _____ _____    ______ ____
ROOT
ATOM      1  N   UNL     1      47.289   5.178  15.137  0.00  0.00    +0.000 N 
ATOM      2  H   UNL     1      47.488   6.156  15.321  0.00  0.00    +0.000 HD
ENDROOT
BRANCH   1   6
ATOM      3  C   UNL     1      44.975   4.298  11.725  0.00  0.00    +0.000 A 
ATOM      4  C   UNL     1      45.081   5.617  12.165  0.00  0.00    +0.000 A 
ATOM      5  C   UNL     1      45.872   5.923  13.276  0.00  0.00    +0.000 A 
ATOM      6  C   UNL     1      46.580   4.933  13.970  0.00  0.00    +0.000 A 
ATOM      7  C   UNL     1      46.439   3.608  13.529  0.00  0.00    +0.000 A 
ATOM      8  C   UNL     1      45.650   3.289  12.416  0.00  0.00    +0.000 A 
BRANCH   3  10
ATOM      9  N   UNL     1      44.097   4.801   9.510  0.00  0.00    +0.000 N 
ATOM     10  C   UNL     1      44.116   3.937  10.568  0.00  0.00    +0.000 C 
ATOM     11  O   UNL     1      43.472   2.895  10.546  0.00  0.00    +0.000 OA
ATOM     12  H   UNL     1      43.574   4.507   8.695  0.00  0.00    +0.000 HD
ATOM     13  H   UNL     1      44.771   5.542   9.395  0.00  0.00    +0.000 HD
ENDBRANCH   3  10
ENDBRANCH   1   6
BRANCH   1  14
ATOM     14  C   UNL     1      47.181   4.349  16.330  0.00  0.00    +0.000 C 
BRANCH  14  15
ATOM     15  C   UNL     1      48.439   3.603  16.691  0.00  0.00    +0.000 A 
ATOM     16  C   UNL     1      48.637   2.333  16.161  0.00  0.00    +0.000 A 
ATOM     17  N   UNL     1      49.744   1.592  16.360  0.00  0.00    +0.000 NA
ATOM     18  C   UNL     1      50.708   2.150  17.134  0.00  0.00    +0.000 A 
ATOM     19  C   UNL     1      50.647   3.408  17.742  0.00  0.00    +0.000 A 
ATOM     20  C   UNL     1      49.467   4.120  17.495  0.00  0.00    +0.000 A 
BRANCH  19  21
ATOM     21  N   UNL     1      51.665   3.915  18.518  0.00  0.00    +0.000 N 
ATOM     22  C   UNL     1      51.486   5.015  19.478  0.00  0.00    +0.000 C 
ATOM     23  C   UNL     1      52.437   6.171  19.134  0.00  0.00    +0.000 C 
ATOM     24  O   UNL     1      53.803   5.726  19.057  0.00  0.00    +0.000 OA
ATOM     25  C   UNL     1      53.941   4.707  18.051  0.00  0.00    +0.000 C 
ATOM     26  C   UNL     1      53.061   3.482  18.358  0.00  0.00    +0.000 C 
ENDBRANCH  19  21
ENDBRANCH  14  15
ENDBRANCH   1  14
TORSDOF 5
ENDMDL
MODEL 9
REMARK VINA RESULT:    -5.640      3.718      8.095
REMARK INTER + INTRA:          -8.165
REMARK INTER:                  -7.560
REMARK INTRA:                  -0.605
REMARK UNBOUND:                -0.876
REMARK  Name = 
REMARK  5 active torsions:
REMARK  status: ('A' for Active; 'I' for Inactive)
REMARK    1  A    between atoms: C_2  and  C_4
REMARK    2  A    between atoms: C_7  and  N_8
REMARK    3  A    between atoms: N_8  and  C_9
REMARK    4  A    between atoms: C_9  and  C_10
REMARK    5  A    between atoms: C_14  and  N_15
REMARK                            x       y       z     vdW  Elec       q    Type
REMARK                         _______ _______ _______ _____ _____    ______ ____
ROOT
ATOM      1  N   UNL     1      48.989   7.559  14.076  0.00  0.00    +0.000 N 
ATOM      2  H   UNL     1      49.466   8.442  13.931  0.00  0.00    +0.000 HD
ENDROOT
BRANCH   1   6
ATOM      3  C   UNL     1      49.977   5.327  17.513  0.00  0.00    +0.000 A 
ATOM      4  C   UNL     1      50.931   6.168  16.939  0.00  0.00    +0.000 A 
ATOM      5  C   UNL     1      50.602   6.936  15.818  0.00  0.00    +0.000 A 
ATOM      6  C   UNL     1      49.324   6.895  15.247  0.00  0.00    +0.000 A 
ATOM      7  C   UNL     1      48.386   6.023  15.823  0.00  0.00    +0.000 A 
ATOM      8  C   UNL     1      48.703   5.248  16.946  0.00  0.00    +0.000 A 
BRANCH   3  10
ATOM      9  N   UNL     1      51.191   3.452  18.484  0.00  0.00    +0.000 N 
ATOM     10  C   UNL     1      50.306   4.474  18.683  0.00  0.00    +0.000 C 
ATOM     11  O   UNL     1      49.829   4.691  19.791  0.00  0.00    +0.000 OA
ATOM     12  H   UNL     1      51.470   2.929  19.304  0.00  0.00    +0.000 HD
ATOM     13  H   UNL     1      51.767   3.380  17.659  0.00  0.00    +0.000 HD
ENDBRANCH   3  10
ENDBRANCH   1   6
BRANCH   1  14
ATOM     14  C   UNL     1      48.601   6.875  12.849  0.00  0.00    +0.000 C 
BRANCH  14  15
ATOM     15  C   UNL     1      47.168   7.088  12.438  0.00  0.00    +0.000 A 
ATOM     16  C   UNL     1      46.723   8.388  12.226  0.00  0.00    +0.000 A 
ATOM     17  N   UNL     1      45.485   8.705  11.799  0.00  0.00    +0.000 NA
ATOM     18  C   UNL     1      44.643   7.666  11.575  0.00  0.00    +0.000 A 
ATOM     19  C   UNL     1      44.945   6.312  11.754  0.00  0.00    +0.000 A 
ATOM     20  C   UNL     1      46.246   6.057  12.201  0.00  0.00    +0.000 A 
BRANCH  19  21
ATOM     21  N   UNL     1      44.040   5.304  11.508  0.00  0.00    +0.000 N 
ATOM     22  C   UNL     1      43.281   4.614  12.562  0.00  0.00    +0.000 C 
ATOM     23  C   UNL     1      43.557   3.105  12.505  0.00  0.00    +0.000 C 
ATOM     24  O   UNL     1      43.290   2.568  11.197  0.00  0.00    +0.000 OA
ATOM     25  C   UNL     1      44.111   3.220  10.212  0.00  0.00    +0.000 C 
ATOM     26  C   UNL     1      43.848   4.736  10.165  0.00  0.00    +0.000 C 
ENDBRANCH  19  21
ENDBRANCH  14  15
ENDBRANCH   1  14
TORSDOF 5
ENDMDL
