MODEL 1
REMARK VINA RESULT:    -9.016      0.000      0.000
REMARK INTER + INTRA:         -12.785
REMARK INTER:                 -12.178
REMARK INTRA:                  -0.607
REMARK UNBOUND:                -0.607
REMARK  Name = 
REMARK  8 active torsions:
REMARK  status: ('A' for Active; 'I' for Inactive)
REMARK    1  A    between atoms: C_1  and  C_2
REMARK    2  A    between atoms: C_2  and  C_3
REMARK    3  A    between atoms: C_5  and  N_6
REMARK    4  A    between atoms: N_6  and  C_7
REMARK    5  A    between atoms: C_11  and  C_12
REMARK    6  A    between atoms: C_12  and  C_13
REMARK    7  A    between atoms: C_13  and  N_14
REMARK    8  A    between atoms: C_18  and  C_19
REMARK                            x       y       z     vdW  Elec       q    Type
REMARK                         _______ _______ _______ _____ _____    ______ ____
ROOT
ATOM      1  C   UNL     1      43.184   5.313  12.286  0.00  0.00    +0.000 C 
ENDROOT
BRANCH   1   6
ATOM      2  C   UNL     1      46.559   4.773  14.080  0.00  0.00    +0.000 A 
ATOM      3  C   UNL     1      47.265   5.882  13.627  0.00  0.00    +0.000 A 
ATOM      4  C   UNL     1      46.640   6.842  12.829  0.00  0.00    +0.000 A 
ATOM      5  C   UNL     1      45.313   6.668  12.423  0.00  0.00    +0.000 A 
ATOM      6  C   UNL     1      44.594   5.532  12.814  0.00  0.00    +0.000 A 
ATOM      7  C   UNL     1      45.232   4.609  13.662  0.00  0.00    +0.000 A 
BRANCH   2   8
ATOM      8  N   UNL     1      47.154   3.733  14.814  0.00  0.00    +0.000 N 
ATOM      9  H   UNL     1      47.162   2.840  14.327  0.00  0.00    +0.000 HD
BRANCH   8  14
ATOM     10  C   UNL     1      48.533   3.680  18.998  0.00  0.00    +0.000 C 
ATOM     11  C   UNL     1      49.063   3.699  17.565  0.00  0.00    +0.000 C 
ATOM     12  C   UNL     1      50.587   3.724  17.528  0.00  0.00    +0.000 C 
ATOM     13  C   UNL     1      48.394   4.776  16.667  0.00  0.00    +0.000 C 
ATOM     14  C   UNL     1      47.375   3.698  16.217  0.00  0.00    +0.000 C 
ATOM     15  C   UNL     1      48.422   2.636  16.625  0.00  0.00    +0.000 C 
ENDBRANCH   8  14
ENDBRANCH   2   8
ENDBRANCH   1   6
BRANCH   1  16
ATOM     16  C   UNL     1      43.122   4.463  11.012  0.00  0.00    +0.000 C 
BRANCH  16  17
ATOM     17  N   UNL     1      43.907   5.016   9.903  0.00  0.00    +0.000 N 
ATOM     18  C   UNL     1      44.673   4.006   9.274  0.00  0.00    +0.000 A 
ATOM     19  C   UNL     1      45.476   4.342   8.190  0.00  0.00    +0.000 A 
ATOM     20  C   UNL     1      46.238   3.347   7.567  0.00  0.00    +0.000 A 
ATOM     21  C   UNL     1      46.191   2.034   8.040  0.00  0.00    +0.000 A 
ATOM     22  C   UNL     1      45.357   1.787   9.113  0.00  0.00    +0.000 A 
ATOM     23  N   UNL     1      44.605   2.734   9.723  0.00  0.00    +0.000 NA
ATOM     24  H   UNL     1      44.544   5.746  10.212  0.00  0.00    +0.000 HD
BRANCH  21  25
ATOM     25  C   UNL     1      47.018   0.987   7.396  0.00  0.00    +0.000 C 
ATOM     26  N   UNL     1      46.758  -0.328   7.659  0.00  0.00    +0.000 N 
ATOM     27  O   UNL     1      47.937   1.285   6.638  0.00  0.00    +0.000 OA
ATOM     28  H   UNL     1      46.040  -0.688   8.268  0.00  0.00    +0.000 HD
ATOM     29  H   UNL     1      47.361  -1.003   7.204  0.00  0.00    +0.000 HD
ENDBRANCH  21  25
ENDBRANCH  16  17
ENDBRANCH   1  16
TORSDOF 6
ENDMDL
MODEL 2
REMARK VINA RESULT:    -7.957      2.713      5.462
REMARK INTER + INTRA:         -11.354
REMARK INTER:                 -11.055
REMARK INTRA:                  -0.299
REMARK UNBOUND:                -0.607
REMARK  Name = 
REMARK  8 active torsions:
REMARK  status: ('A' for Active; 'I' for Inactive)
REMARK    1  A    between atoms: C_1  and  C_2
REMARK    2  A    between atoms: C_2  and  C_3
REMARK    3  A    between atoms: C_5  and  N_6
REMARK    4  A    between atoms: N_6  and  C_7
REMARK    5  A    between atoms: C_11  and  C_12
REMARK    6  A    between atoms: C_12  and  C_13
REMARK    7  A    between atoms: C_13  and  N_14
REMARK    8  A    between atoms: C_18  and  C_19
REMARK                            x       y       z     vdW  Elec       q    Type
REMARK                         _______ _______ _______ _____ _____    ______ ____
ROOT
ATOM      1  C   UNL     1      43.526   4.529  12.681  0.00  0.00    +0.000 C 
ENDROOT
BRANCH   1   6
ATOM      2  C   UNL     1      46.046   7.453  12.689  0.00  0.00    +0.000 A 
ATOM      3  C   UNL     1      47.185   6.803  13.155  0.00  0.00    +0.000 A 
ATOM      4  C   UNL     1      47.172   5.425  13.377  0.00  0.00    +0.000 A 
ATOM      5  C   UNL     1      45.995   4.690  13.194  0.00  0.00    +0.000 A 
ATOM      6  C   UNL     1      44.818   5.327  12.784  0.00  0.00    +0.000 A 
ATOM      7  C   UNL     1      44.875   6.706  12.516  0.00  0.00    +0.000 A 
BRANCH   2   8
ATOM      8  N   UNL     1      45.973   8.847  12.528  0.00  0.00    +0.000 N 
ATOM      9  H   UNL     1      46.786   9.345  12.883  0.00  0.00    +0.000 HD
BRANCH   8  14
ATOM     10  C   UNL     1      42.623  11.371  11.180  0.00  0.00    +0.000 C 
ATOM     11  C   UNL     1      43.999  10.875  10.738  0.00  0.00    +0.000 C 
ATOM     12  C   UNL     1      44.370  11.401   9.356  0.00  0.00    +0.000 C 
ATOM     13  C   UNL     1      44.192   9.342  10.902  0.00  0.00    +0.000 C 
ATOM     14  C   UNL     1      44.801   9.617  12.301  0.00  0.00    +0.000 C 
ATOM     15  C   UNL     1      45.120  11.047  11.806  0.00  0.00    +0.000 C 
ENDBRANCH   8  14
ENDBRANCH   2   8
ENDBRANCH   1   6
BRANCH   1  16
ATOM     16  C   UNL     1      43.073   4.261  11.241  0.00  0.00    +0.000 C 
BRANCH  16  17
ATOM     17  N   UNL     1      43.880   4.961  10.236  0.00  0.00    +0.000 N 
ATOM     18  C   UNL     1      44.669   4.048   9.498  0.00  0.00    +0.000 A 
ATOM     19  C   UNL     1      45.496   4.528   8.489  0.00  0.00    +0.000 A 
ATOM     20  C   UNL     1      46.281   3.629   7.759  0.00  0.00    +0.000 A 
ATOM     21  C   UNL     1      46.233   2.265   8.051  0.00  0.00    +0.000 A 
ATOM     22  C   UNL     1      45.375   1.873   9.061  0.00  0.00    +0.000 A 
ATOM     23  N   UNL     1      44.601   2.726   9.772  0.00  0.00    +0.000 NA
ATOM     24  H   UNL     1      44.503   5.646  10.656  0.00  0.00    +0.000 HD
BRANCH  21  25
ATOM     25  C   UNL     1      47.083   1.316   7.294  0.00  0.00    +0.000 C 
ATOM     26  N   UNL     1      48.119   1.796   6.544  0.00  0.00    +0.000 N 
ATOM     27  O   UNL     1      46.863   0.108   7.325  0.00  0.00    +0.000 OA
ATOM     28  H   UNL     1      48.385   2.762   6.438  0.00  0.00    +0.000 HD
ATOM     29  H   UNL     1      48.661   1.107   6.036  0.00  0.00    +0.000 HD
ENDBRANCH  21  25
ENDBRANCH  16  17
ENDBRANCH   1  16
TORSDOF 6
ENDMDL
MODEL 3
REMARK VINA RESULT:    -7.759      2.125      2.795
REMARK INTER + INTRA:         -11.088
REMARK INTER:                 -10.334
REMARK INTRA:                  -0.754
REMARK UNBOUND:                -0.607
REMARK  Name = 
REMARK  8 active torsions:
REMARK  status: ('A' for Active; 'I' for Inactive)
REMARK    1  A    between atoms: C_1  and  C_2
REMARK    2  A    between atoms: C_2  and  C_3
REMARK    3  A    between atoms: C_5  and  N_6
REMARK    4  A    between atoms: N_6  and  C_7
REMARK    5  A    between atoms: C_11  and  C_12
REMARK    6  A    between atoms: C_12  and  C_13
REMARK    7  A    between atoms: C_13  and  N_14
REMARK    8  A    between atoms: C_18  and  C_19
REMARK                            x       y       z     vdW  Elec       q    Type
REMARK                         _______ _______ _______ _____ _____    ______ ____
ROOT
ATOM      1  C   UNL     1      43.836   5.319  12.063  0.00  0.00    +0.000 C 
ENDROOT
BRANCH   1   6
ATOM      2  C   UNL     1      47.240   6.165  13.675  0.00  0.00    +0.000 A 
ATOM      3  C   UNL     1      47.917   6.685  12.576  0.00  0.00    +0.000 A 
ATOM      4  C   UNL     1      47.261   6.849  11.354  0.00  0.00    +0.000 A 
ATOM      5  C   UNL     1      45.935   6.433  11.202  0.00  0.00    +0.000 A 
ATOM      6  C   UNL     1      45.246   5.851  12.273  0.00  0.00    +0.000 A 
ATOM      7  C   UNL     1      45.914   5.748  13.507  0.00  0.00    +0.000 A 
BRANCH   2   8
ATOM      8  N   UNL     1      47.866   5.899  14.904  0.00  0.00    +0.000 N 
ATOM      9  H   UNL     1      47.351   5.252  15.496  0.00  0.00    +0.000 HD
BRANCH   8  14
ATOM     10  C   UNL     1      50.453   8.539  17.302  0.00  0.00    +0.000 C 
ATOM     11  C   UNL     1      48.994   8.112  17.150  0.00  0.00    +0.000 C 
ATOM     12  C   UNL     1      48.096   8.803  18.170  0.00  0.00    +0.000 C 
ATOM     13  C   UNL     1      48.799   6.572  17.080  0.00  0.00    +0.000 C 
ATOM     14  C   UNL     1      48.870   6.681  15.536  0.00  0.00    +0.000 C 
ATOM     15  C   UNL     1      48.455   8.163  15.689  0.00  0.00    +0.000 C 
ENDBRANCH   8  14
ENDBRANCH   2   8
ENDBRANCH   1   6
BRANCH   1  16
ATOM     16  C   UNL     1      43.574   4.794  10.646  0.00  0.00    +0.000 C 
BRANCH  16  17
ATOM     17  N   UNL     1      43.829   3.358  10.499  0.00  0.00    +0.000 N 
ATOM     18  C   UNL     1      44.755   3.114   9.458  0.00  0.00    +0.000 A 
ATOM     19  C   UNL     1      45.129   1.805   9.176  0.00  0.00    +0.000 A 
ATOM     20  C   UNL     1      46.042   1.559   8.145  0.00  0.00    +0.000 A 
ATOM     21  C   UNL     1      46.563   2.622   7.406  0.00  0.00    +0.000 A 
ATOM     22  C   UNL     1      46.147   3.891   7.761  0.00  0.00    +0.000 A 
ATOM     23  N   UNL     1      45.273   4.150   8.762  0.00  0.00    +0.000 NA
ATOM     24  H   UNL     1      42.980   2.838  10.292  0.00  0.00    +0.000 HD
BRANCH  21  25
ATOM     25  C   UNL     1      47.510   2.359   6.298  0.00  0.00    +0.000 C 
ATOM     26  N   UNL     1      47.472   3.145   5.182  0.00  0.00    +0.000 N 
ATOM     27  O   UNL     1      48.321   1.438   6.366  0.00  0.00    +0.000 OA
ATOM     28  H   UNL     1      46.847   3.918   5.014  0.00  0.00    +0.000 HD
ATOM     29  H   UNL     1      48.131   2.914   4.448  0.00  0.00    +0.000 HD
ENDBRANCH  21  25
ENDBRANCH  16  17
ENDBRANCH   1  16
TORSDOF 6
ENDMDL
MODEL 4
REMARK VINA RESULT:    -7.685      2.795      8.134
REMARK INTER + INTRA:         -10.988
REMARK INTER:                 -10.404
REMARK INTRA:                  -0.584
REMARK UNBOUND:                -0.607
REMARK  Name = 
REMARK  8 active torsions:
REMARK  status: ('A' for Active; 'I' for Inactive)
REMARK    1  A    between atoms: C_1  and  C_2
REMARK    2  A    between atoms: C_2  and  C_3
REMARK    3  A    between atoms: C_5  and  N_6
REMARK    4  A    between atoms: N_6  and  C_7
REMARK    5  A    between atoms: C_11  and  C_12
REMARK    6  A    between atoms: C_12  and  C_13
REMARK    7  A    between atoms: C_13  and  N_14
REMARK    8  A    between atoms: C_18  and  C_19
REMARK                            x       y       z     vdW  Elec       q    Type
REMARK                         _______ _______ _______ _____ _____    ______ ____
ROOT
ATOM      1  C   UNL     1      46.338   7.419  12.367  0.00  0.00    +0.000 C 
ENDROOT
BRANCH   1   6
ATOM      2  C   UNL     1      44.490   4.932  10.065  0.00  0.00    +0.000 A 
ATOM      3  C   UNL     1      43.508   4.466  10.934  0.00  0.00    +0.000 A 
ATOM      4  C   UNL     1      43.381   5.009  12.214  0.00  0.00    +0.000 A 
ATOM      5  C   UNL     1      44.279   5.983  12.662  0.00  0.00    +0.000 A 
ATOM      6  C   UNL     1      45.314   6.429  11.831  0.00  0.00    +0.000 A 
ATOM      7  C   UNL     1      45.385   5.904  10.528  0.00  0.00    +0.000 A 
BRANCH   2   8
ATOM      8  N   UNL     1      44.721   4.369   8.799  0.00  0.00    +0.000 N 
ATOM      9  H   UNL     1      43.938   4.469   8.156  0.00  0.00    +0.000 HD
BRANCH   8  14
ATOM     10  C   UNL     1      47.700   1.607   7.095  0.00  0.00    +0.000 C 
ATOM     11  C   UNL     1      46.709   2.696   6.687  0.00  0.00    +0.000 C 
ATOM     12  C   UNL     1      46.743   2.954   5.185  0.00  0.00    +0.000 C 
ATOM     13  C   UNL     1      46.807   3.984   7.550  0.00  0.00    +0.000 C 
ATOM     14  C   UNL     1      45.701   3.397   8.465  0.00  0.00    +0.000 C 
ATOM     15  C   UNL     1      45.275   2.514   7.269  0.00  0.00    +0.000 C 
ENDBRANCH   8  14
ENDBRANCH   2   8
ENDBRANCH   1   6
BRANCH   1  16
ATOM     16  C   UNL     1      47.771   6.877  12.396  0.00  0.00    +0.000 C 
BRANCH  16  17
ATOM     17  N   UNL     1      48.503   7.226  13.618  0.00  0.00    +0.000 N 
ATOM     18  C   UNL     1      48.256   6.281  14.642  0.00  0.00    +0.000 A 
ATOM     19  C   UNL     1      48.874   6.442  15.876  0.00  0.00    +0.000 A 
ATOM     20  C   UNL     1      48.631   5.511  16.892  0.00  0.00    +0.000 A 
ATOM     21  C   UNL     1      47.769   4.437  16.662  0.00  0.00    +0.000 A 
ATOM     22  C   UNL     1      47.208   4.347  15.403  0.00  0.00    +0.000 A 
ATOM     23  N   UNL     1      47.438   5.232  14.405  0.00  0.00    +0.000 NA
ATOM     24  H   UNL     1      48.242   8.144  13.971  0.00  0.00    +0.000 HD
BRANCH  21  25
ATOM     25  C   UNL     1      47.492   3.467  17.747  0.00  0.00    +0.000 C 
ATOM     26  N   UNL     1      48.191   3.551  18.917  0.00  0.00    +0.000 N 
ATOM     27  O   UNL     1      46.651   2.583  17.603  0.00  0.00    +0.000 OA
ATOM     28  H   UNL     1      48.907   4.224  19.141  0.00  0.00    +0.000 HD
ATOM     29  H   UNL     1      47.973   2.855  19.620  0.00  0.00    +0.000 HD
ENDBRANCH  21  25
ENDBRANCH  16  17
ENDBRANCH   1  16
TORSDOF 6
ENDMDL
MODEL 5
REMARK VINA RESULT:    -7.683      3.229      8.768
REMARK INTER + INTRA:         -10.985
REMARK INTER:                 -10.316
REMARK INTRA:                  -0.669
REMARK UNBOUND:                -0.607
REMARK  Name = 
REMARK  8 active torsions:
REMARK  status: ('A' for Active; 'I' for Inactive)
REMARK    1  A    between atoms: C_1  and  C_2
REMARK    2  A    between atoms: C_2  and  C_3
REMARK    3  A    between atoms: C_5  and  N_6
REMARK    4  A    between atoms: N_6  and  C_7
REMARK    5  A    between atoms: C_11  and  C_12
REMARK    6  A    between atoms: C_12  and  C_13
REMARK    7  A    between atoms: C_13  and  N_14
REMARK    8  A    between atoms: C_18  and  C_19
REMARK                            x       y       z     vdW  Elec       q    Type
REMARK                         _______ _______ _______ _____ _____    ______ ____
ROOT
ATOM      1  C   UNL     1      46.193   6.318  13.283  0.00  0.00    +0.000 C 
ENDROOT
BRANCH   1   6
ATOM      2  C   UNL     1      44.415   4.933  10.149  0.00  0.00    +0.000 A 
ATOM      3  C   UNL     1      43.166   4.630  10.681  0.00  0.00    +0.000 A 
ATOM      4  C   UNL     1      42.865   4.951  12.006  0.00  0.00    +0.000 A 
ATOM      5  C   UNL     1      43.836   5.522  12.834  0.00  0.00    +0.000 A 
ATOM      6  C   UNL     1      45.122   5.784  12.343  0.00  0.00    +0.000 A 
ATOM      7  C   UNL     1      45.380   5.501  10.990  0.00  0.00    +0.000 A 
BRANCH   2   8
ATOM      8  N   UNL     1      44.805   4.561   8.852  0.00  0.00    +0.000 N 
ATOM      9  H   UNL     1      44.156   4.858   8.127  0.00  0.00    +0.000 HD
BRANCH   8  14
ATOM     10  C   UNL     1      47.619   1.662   7.093  0.00  0.00    +0.000 C 
ATOM     11  C   UNL     1      46.664   2.790   6.702  0.00  0.00    +0.000 C 
ATOM     12  C   UNL     1      46.671   3.037   5.198  0.00  0.00    +0.000 C 
ATOM     13  C   UNL     1      46.840   4.078   7.553  0.00  0.00    +0.000 C 
ATOM     14  C   UNL     1      45.734   3.545   8.500  0.00  0.00    +0.000 C 
ATOM     15  C   UNL     1      45.240   2.674   7.322  0.00  0.00    +0.000 C 
ENDBRANCH   8  14
ENDBRANCH   2   8
ENDBRANCH   1   6
BRANCH   1  16
ATOM     16  C   UNL     1      47.295   5.303  13.610  0.00  0.00    +0.000 C 
BRANCH  16  17
ATOM     17  N   UNL     1      46.844   4.212  14.479  0.00  0.00    +0.000 N 
ATOM     18  C   UNL     1      47.460   4.292  15.750  0.00  0.00    +0.000 A 
ATOM     19  C   UNL     1      47.147   3.343  16.716  0.00  0.00    +0.000 A 
ATOM     20  C   UNL     1      47.756   3.418  17.974  0.00  0.00    +0.000 A 
ATOM     21  C   UNL     1      48.673   4.434  18.246  0.00  0.00    +0.000 A 
ATOM     22  C   UNL     1      48.917   5.342  17.232  0.00  0.00    +0.000 A 
ATOM     23  N   UNL     1      48.330   5.292  16.013  0.00  0.00    +0.000 NA
ATOM     24  H   UNL     1      47.055   3.297  14.086  0.00  0.00    +0.000 HD
BRANCH  21  25
ATOM     25  C   UNL     1      49.337   4.497  19.569  0.00  0.00    +0.000 C 
ATOM     26  N   UNL     1      48.704   3.977  20.662  0.00  0.00    +0.000 N 
ATOM     27  O   UNL     1      50.442   5.017  19.697  0.00  0.00    +0.000 OA
ATOM     28  H   UNL     1      47.796   3.538  20.677  0.00  0.00    +0.000 HD
ATOM     29  H   UNL     1      49.194   4.058  21.544  0.00  0.00    +0.000 HD
ENDBRANCH  21  25
ENDBRANCH  16  17
ENDBRANCH   1  16
TORSDOF 6
ENDMDL
MODEL 6
REMARK VINA RESULT:    -7.616      2.829      3.879
REMARK INTER + INTRA:         -10.894
REMARK INTER:                 -10.621
REMARK INTRA:                  -0.272
REMARK UNBOUND:                -0.607
REMARK  Name = 
REMARK  8 active torsions:
REMARK  status: ('A' for Active; 'I' for Inactive)
REMARK    1  A    between atoms: C_1  and  C_2
REMARK    2  A    between atoms: C_2  and  C_3
REMARK    3  A    between atoms: C_5  and  N_6
REMARK    4  A    between atoms: N_6  and  C_7
REMARK    5  A    between atoms: C_11  and  C_12
REMARK    6  A    between atoms: C_12  and  C_13
REMARK    7  A    between atoms: C_13  and  N_14
REMARK    8  A    between atoms: C_18  and  C_19
REMARK                            x       y       z     vdW  Elec       q    Type
REMARK                         _______ _______ _______ _____ _____    ______ ____
ROOT
ATOM      1  C   UNL     1      43.973   4.208  12.555  0.00  0.00    +0.000 C 
ENDROOT
BRANCH   1   6
ATOM      2  C   UNL     1      46.786   6.751  13.278  0.00  0.00    +0.000 A 
ATOM      3  C   UNL     1      46.165   7.932  12.882  0.00  0.00    +0.000 A 
ATOM      4  C   UNL     1      44.830   7.927  12.474  0.00  0.00    +0.000 A 
ATOM      5  C   UNL     1      44.117   6.726  12.398  0.00  0.00    +0.000 A 
ATOM      6  C   UNL     1      44.733   5.514  12.734  0.00  0.00    +0.000 A 
ATOM      7  C   UNL     1      46.062   5.555  13.192  0.00  0.00    +0.000 A 
BRANCH   2   8
ATOM      8  N   UNL     1      48.147   6.678  13.617  0.00  0.00    +0.000 N 
ATOM      9  H   UNL     1      48.329   6.788  14.612  0.00  0.00    +0.000 HD
BRANCH   8  14
ATOM     10  C   UNL     1      51.393   7.907  10.904  0.00  0.00    +0.000 C 
ATOM     11  C   UNL     1      50.170   8.462  11.633  0.00  0.00    +0.000 C 
ATOM     12  C   UNL     1      49.984   9.952  11.367  0.00  0.00    +0.000 C 
ATOM     13  C   UNL     1      50.114   8.078  13.138  0.00  0.00    +0.000 C 
ATOM     14  C   UNL     1      49.253   6.851  12.742  0.00  0.00    +0.000 C 
ATOM     15  C   UNL     1      48.874   7.617  11.454  0.00  0.00    +0.000 C 
ENDBRANCH   8  14
ENDBRANCH   2   8
ENDBRANCH   1   6
BRANCH   1  16
ATOM     16  C   UNL     1      43.375   4.023  11.155  0.00  0.00    +0.000 C 
BRANCH  16  17
ATOM     17  N   UNL     1      44.074   4.786  10.117  0.00  0.00    +0.000 N 
ATOM     18  C   UNL     1      44.864   3.934   9.309  0.00  0.00    +0.000 A 
ATOM     19  C   UNL     1      45.595   4.481   8.261  0.00  0.00    +0.000 A 
ATOM     20  C   UNL     1      46.380   3.642   7.461  0.00  0.00    +0.000 A 
ATOM     21  C   UNL     1      46.427   2.272   7.725  0.00  0.00    +0.000 A 
ATOM     22  C   UNL     1      45.660   1.812   8.778  0.00  0.00    +0.000 A 
ATOM     23  N   UNL     1      44.888   2.606   9.556  0.00  0.00    +0.000 NA
ATOM     24  H   UNL     1      44.685   5.498  10.511  0.00  0.00    +0.000 HD
BRANCH  21  25
ATOM     25  C   UNL     1      47.278   1.388   6.894  0.00  0.00    +0.000 C 
ATOM     26  N   UNL     1      48.315   1.928   6.186  0.00  0.00    +0.000 N 
ATOM     27  O   UNL     1      47.058   0.182   6.825  0.00  0.00    +0.000 OA
ATOM     28  H   UNL     1      48.581   2.899   6.159  0.00  0.00    +0.000 HD
ATOM     29  H   UNL     1      48.857   1.283   5.624  0.00  0.00    +0.000 HD
ENDBRANCH  21  25
ENDBRANCH  16  17
ENDBRANCH   1  16
TORSDOF 6
ENDMDL
MODEL 7
REMARK VINA RESULT:    -6.725      3.556      7.798
REMARK INTER + INTRA:          -9.691
REMARK INTER:                  -8.730
REMARK INTRA:                  -0.962
REMARK UNBOUND:                -0.607
REMARK  Name = 
REMARK  8 active torsions:
REMARK  status: ('A' for Active; 'I' for Inactive)
REMARK    1  A    between atoms: C_1  and  C_2
REMARK    2  A    between atoms: C_2  and  C_3
REMARK    3  A    between atoms: C_5  and  N_6
REMARK    4  A    between atoms: N_6  and  C_7
REMARK    5  A    between atoms: C_11  and  C_12
REMARK    6  A    between atoms: C_12  and  C_13
REMARK    7  A    between atoms: C_13  and  N_14
REMARK    8  A    between atoms: C_18  and  C_19
REMARK                            x       y       z     vdW  Elec       q    Type
REMARK                         _______ _______ _______ _____ _____    ______ ____
ROOT
ATOM      1  C   UNL     1      48.998   9.275  12.434  0.00  0.00    +0.000 C 
ENDROOT
BRANCH   1   6
ATOM      2  C   UNL     1      45.304   8.276  11.924  0.00  0.00    +0.000 A 
ATOM      3  C   UNL     1      44.716   9.532  11.812  0.00  0.00    +0.000 A 
ATOM      4  C   UNL     1      45.505  10.684  11.807  0.00  0.00    +0.000 A 
ATOM      5  C   UNL     1      46.890  10.594  11.979  0.00  0.00    +0.000 A 
ATOM      6  C   UNL     1      47.503   9.347  12.154  0.00  0.00    +0.000 A 
ATOM      7  C   UNL     1      46.691   8.201  12.100  0.00  0.00    +0.000 A 
BRANCH   2   8
ATOM      8  N   UNL     1      44.559   7.089  12.019  0.00  0.00    +0.000 N 
ATOM      9  H   UNL     1      44.202   6.902  12.953  0.00  0.00    +0.000 HD
BRANCH   8  14
ATOM     10  C   UNL     1      44.312   3.328   9.737  0.00  0.00    +0.000 C 
ATOM     11  C   UNL     1      44.027   3.907  11.122  0.00  0.00    +0.000 C 
ATOM     12  C   UNL     1      43.440   2.858  12.060  0.00  0.00    +0.000 C 
ATOM     13  C   UNL     1      43.228   5.239  11.088  0.00  0.00    +0.000 C 
ATOM     14  C   UNL     1      44.581   5.995  11.113  0.00  0.00    +0.000 C 
ATOM     15  C   UNL     1      45.203   4.723  11.736  0.00  0.00    +0.000 C 
ENDBRANCH   8  14
ENDBRANCH   2   8
ENDBRANCH   1   6
BRANCH   1  16
ATOM     16  C   UNL     1      49.499   7.866  12.773  0.00  0.00    +0.000 C 
BRANCH  16  17
ATOM     17  N   UNL     1      50.142   7.777  14.087  0.00  0.00    +0.000 N 
ATOM     18  C   UNL     1      49.454   6.867  14.925  0.00  0.00    +0.000 A 
ATOM     19  C   UNL     1      49.925   6.643  16.213  0.00  0.00    +0.000 A 
ATOM     20  C   UNL     1      49.246   5.747  17.046  0.00  0.00    +0.000 A 
ATOM     21  C   UNL     1      48.103   5.093  16.582  0.00  0.00    +0.000 A 
ATOM     22  C   UNL     1      47.712   5.366  15.285  0.00  0.00    +0.000 A 
ATOM     23  N   UNL     1      48.361   6.222  14.462  0.00  0.00    +0.000 NA
ATOM     24  H   UNL     1      50.173   8.677  14.561  0.00  0.00    +0.000 HD
BRANCH  21  25
ATOM     25  C   UNL     1      47.370   4.164  17.473  0.00  0.00    +0.000 C 
ATOM     26  N   UNL     1      47.485   4.302  18.827  0.00  0.00    +0.000 N 
ATOM     27  O   UNL     1      46.670   3.267  17.011  0.00  0.00    +0.000 OA
ATOM     28  H   UNL     1      48.036   4.991  19.315  0.00  0.00    +0.000 HD
ATOM     29  H   UNL     1      46.975   3.633  19.391  0.00  0.00    +0.000 HD
ENDBRANCH  21  25
ENDBRANCH  16  17
ENDBRANCH   1  16
TORSDOF 6
ENDMDL
MODEL 8
REMARK VINA RESULT:    -6.334      2.750      5.725
REMARK INTER + INTRA:          -9.163
REMARK INTER:                  -8.632
REMARK INTRA:                  -0.531
REMARK UNBOUND:                -0.607
REMARK  Name = 
REMARK  8 active torsions:
REMARK  status: ('A' for Active; 'I' for Inactive)
REMARK    1  A    between atoms: C_1  and  C_2
REMARK    2  A    between atoms: C_2  and  C_3
REMARK    3  A    between atoms: C_5  and  N_6
REMARK    4  A    between atoms: N_6  and  C_7
REMARK    5  A    between atoms: C_11  and  C_12
REMARK    6  A    between atoms: C_12  and  C_13
REMARK    7  A    between atoms: C_13  and  N_14
REMARK    8  A    between atoms: C_18  and  C_19
REMARK                            x       y       z     vdW  Elec       q    Type
REMARK                         _______ _______ _______ _____ _____    ______ ____
ROOT
ATOM      1  C   UNL     1      47.030   3.755  17.340  0.00  0.00    +0.000 C 
ENDROOT
BRANCH   1   6
ATOM      2  C   UNL     1      49.964   4.796  19.623  0.00  0.00    +0.000 A 
ATOM      3  C   UNL     1      49.606   6.109  19.911  0.00  0.00    +0.000 A 
ATOM      4  C   UNL     1      48.392   6.628  19.455  0.00  0.00    +0.000 A 
ATOM      5  C   UNL     1      47.550   5.854  18.649  0.00  0.00    +0.000 A 
ATOM      6  C   UNL     1      47.912   4.549  18.294  0.00  0.00    +0.000 A 
ATOM      7  C   UNL     1      49.114   4.034  18.812  0.00  0.00    +0.000 A 
BRANCH   2   8
ATOM      8  N   UNL     1      51.206   4.246  19.981  0.00  0.00    +0.000 N 
ATOM      9  H   UNL     1      51.293   4.042  20.974  0.00  0.00    +0.000 HD
BRANCH   8  14
ATOM     10  C   UNL     1      54.821   3.738  17.516  0.00  0.00    +0.000 C 
ATOM     11  C   UNL     1      53.647   2.948  18.092  0.00  0.00    +0.000 C 
ATOM     12  C   UNL     1      53.701   1.480  17.684  0.00  0.00    +0.000 C 
ATOM     13  C   UNL     1      52.266   3.619  17.850  0.00  0.00    +0.000 C 
ATOM     14  C   UNL     1      52.412   4.305  19.233  0.00  0.00    +0.000 C 
ATOM     15  C   UNL     1      53.399   3.177  19.613  0.00  0.00    +0.000 C 
ENDBRANCH   8  14
ENDBRANCH   2   8
ENDBRANCH   1   6
BRANCH   1  16
ATOM     16  C   UNL     1      47.482   3.819  15.877  0.00  0.00    +0.000 C 
BRANCH  16  17
ATOM     17  N   UNL     1      47.114   5.070  15.206  0.00  0.00    +0.000 N 
ATOM     18  C   UNL     1      46.432   4.811  13.994  0.00  0.00    +0.000 A 
ATOM     19  C   UNL     1      45.993   5.880  13.221  0.00  0.00    +0.000 A 
ATOM     20  C   UNL     1      45.321   5.628  12.020  0.00  0.00    +0.000 A 
ATOM     21  C   UNL     1      45.102   4.314  11.606  0.00  0.00    +0.000 A 
ATOM     22  C   UNL     1      45.560   3.312  12.441  0.00  0.00    +0.000 A 
ATOM     23  N   UNL     1      46.204   3.536  13.610  0.00  0.00    +0.000 NA
ATOM     24  H   UNL     1      47.926   5.643  14.992  0.00  0.00    +0.000 HD
BRANCH  21  25
ATOM     25  C   UNL     1      44.413   4.048  10.322  0.00  0.00    +0.000 C 
ATOM     26  N   UNL     1      44.669   4.849   9.245  0.00  0.00    +0.000 N 
ATOM     27  O   UNL     1      43.608   3.126  10.216  0.00  0.00    +0.000 OA
ATOM     28  H   UNL     1      45.299   5.635   9.219  0.00  0.00    +0.000 HD
ATOM     29  H   UNL     1      44.162   4.633   8.395  0.00  0.00    +0.000 HD
ENDBRANCH  21  25
ENDBRANCH  16  17
ENDBRANCH   1  16
TORSDOF 6
ENDMDL
MODEL 9
REMARK VINA RESULT:    -6.294      2.947      5.691
REMARK INTER + INTRA:          -9.109
REMARK INTER:                  -8.265
REMARK INTRA:                  -0.845
REMARK UNBOUND:                -0.607
REMARK  Name = 
REMARK  8 active torsions:
REMARK  status: ('A' for Active; 'I' for Inactive)
REMARK    1  A    between atoms: C_1  and  C_2
REMARK    2  A    between atoms: C_2  and  C_3
REMARK    3  A    between atoms: C_5  and  N_6
REMARK    4  A    between atoms: N_6  and  C_7
REMARK    5  A    between atoms: C_11  and  C_12
REMARK    6  A    between atoms: C_12  and  C_13
REMARK    7  A    between atoms: C_13  and  N_14
REMARK    8  A    between atoms: C_18  and  C_19
REMARK                            x       y       z     vdW  Elec       q    Type
REMARK                         _______ _______ _______ _____ _____    ______ ____
ROOT
ATOM      1  C   UNL     1      47.374   3.851  17.388  0.00  0.00    +0.000 C 
ENDROOT
BRANCH   1   6
ATOM      2  C   UNL     1      49.323   7.128  17.997  0.00  0.00    +0.000 A 
ATOM      3  C   UNL     1      48.482   7.754  18.912  0.00  0.00    +0.000 A 
ATOM      4  C   UNL     1      47.351   7.096  19.400  0.00  0.00    +0.000 A 
ATOM      5  C   UNL     1      47.014   5.824  18.926  0.00  0.00    +0.000 A 
ATOM      6  C   UNL     1      47.808   5.193  17.961  0.00  0.00    +0.000 A 
ATOM      7  C   UNL     1      48.970   5.856  17.528  0.00  0.00    +0.000 A 
BRANCH   2   8
ATOM      8  N   UNL     1      50.426   7.768  17.408  0.00  0.00    +0.000 N 
ATOM      9  H   UNL     1      51.194   7.938  18.054  0.00  0.00    +0.000 HD
BRANCH   8  14
ATOM     10  C   UNL     1      50.118   9.495  13.367  0.00  0.00    +0.000 C 
ATOM     11  C   UNL     1      49.824   8.213  14.145  0.00  0.00    +0.000 C 
ATOM     12  C   UNL     1      49.193   7.148  13.255  0.00  0.00    +0.000 C 
ATOM     13  C   UNL     1      49.062   8.453  15.477  0.00  0.00    +0.000 C 
ATOM     14  C   UNL     1      50.434   8.508  16.196  0.00  0.00    +0.000 C 
ATOM     15  C   UNL     1      51.010   7.697  15.012  0.00  0.00    +0.000 C 
ENDBRANCH   8  14
ENDBRANCH   2   8
ENDBRANCH   1   6
BRANCH   1  16
ATOM     16  C   UNL     1      47.411   3.788  15.857  0.00  0.00    +0.000 C 
BRANCH  16  17
ATOM     17  N   UNL     1      46.945   5.019  15.211  0.00  0.00    +0.000 N 
ATOM     18  C   UNL     1      46.303   4.733  13.983  0.00  0.00    +0.000 A 
ATOM     19  C   UNL     1      45.784   5.779  13.229  0.00  0.00    +0.000 A 
ATOM     20  C   UNL     1      45.150   5.500  12.013  0.00  0.00    +0.000 A 
ATOM     21  C   UNL     1      45.050   4.182  11.565  0.00  0.00    +0.000 A 
ATOM     22  C   UNL     1      45.582   3.203  12.383  0.00  0.00    +0.000 A 
ATOM     23  N   UNL     1      46.190   3.452  13.566  0.00  0.00    +0.000 NA
ATOM     24  H   UNL     1      47.708   5.664  15.021  0.00  0.00    +0.000 HD
BRANCH  21  25
ATOM     25  C   UNL     1      44.402   3.891  10.265  0.00  0.00    +0.000 C 
ATOM     26  N   UNL     1      44.523   4.785   9.240  0.00  0.00    +0.000 N 
ATOM     27  O   UNL     1      43.750   2.863  10.101  0.00  0.00    +0.000 OA
ATOM     28  H   UNL     1      45.022   5.661   9.264  0.00  0.00    +0.000 HD
ATOM     29  H   UNL     1      44.049   4.544   8.377  0.00  0.00    +0.000 HD
ENDBRANCH  21  25
ENDBRANCH  16  17
ENDBRANCH   1  16
TORSDOF 6
ENDMDL
