MODEL 1
REMARK VINA RESULT:    -7.592      0.000      0.000
REMARK INTER + INTRA:         -10.933
REMARK INTER:                 -10.255
REMARK INTRA:                  -0.678
REMARK UNBOUND:                -0.678
REMARK  Name = 
REMARK  7 active torsions:
REMARK  status: ('A' for Active; 'I' for Inactive)
REMARK    1  A    between atoms: C_1  and  O_2
REMARK    2  A    between atoms: O_2  and  C_3
REMARK    3  A    between atoms: N_9  and  C_10
REMARK    4  A    between atoms: C_10  and  C_11
REMARK    5  A    between atoms: C_14  and  C_15
REMARK    6  A    between atoms: C_15  and  C_16
REMARK    7  A    between atoms: C_16  and  N_17
REMARK                            x       y       z     vdW  Elec       q    Type
REMARK                         _______ _______ _______ _____ _____    ______ ____
ROOT
ATOM      1  C   UNL     1      45.337   6.825  12.055  0.00  0.00    +0.000 A 
ATOM      2  C   UNL     1      46.290   5.872  12.419  0.00  0.00    +0.000 A 
ATOM      3  C   UNL     1      47.372   6.229  13.220  0.00  0.00    +0.000 A 
ATOM      4  C   UNL     1      47.534   7.547  13.672  0.00  0.00    +0.000 A 
ATOM      5  C   UNL     1      46.639   8.521  13.213  0.00  0.00    +0.000 A 
ATOM      6  C   UNL     1      45.554   8.165  12.406  0.00  0.00    +0.000 A 
ENDROOT
BRANCH   1   7
ATOM      7  C   UNL     1      44.052   6.383  11.408  0.00  0.00    +0.000 C 
BRANCH   7  14
ATOM      8  C   UNL     1      45.680   3.736   8.033  0.00  0.00    +0.000 A 
ATOM      9  C   UNL     1      45.307   2.398   8.169  0.00  0.00    +0.000 A 
ATOM     10  C   UNL     1      44.583   1.974   9.285  0.00  0.00    +0.000 A 
ATOM     11  C   UNL     1      44.210   2.910  10.270  0.00  0.00    +0.000 A 
ATOM     12  C   UNL     1      43.492   2.799  11.487  0.00  0.00    +0.000 A 
ATOM     13  C   UNL     1      43.404   4.051  12.037  0.00  0.00    +0.000 A 
ATOM     14  N   UNL     1      44.046   4.934  11.198  0.00  0.00    +0.000 N 
ATOM     15  C   UNL     1      44.588   4.247  10.124  0.00  0.00    +0.000 A 
ATOM     16  C   UNL     1      45.355   4.670   9.024  0.00  0.00    +0.000 A 
BRANCH   8  18
ATOM     17  C   UNL     1      46.845   3.238   6.044  0.00  0.00    +0.000 C 
ATOM     18  O   UNL     1      46.406   4.226   6.976  0.00  0.00    +0.000 OA
ENDBRANCH   8  18
ENDBRANCH   7  14
ENDBRANCH   1   7
BRANCH   4  19
ATOM     19  C   UNL     1      48.549   7.916  14.735  0.00  0.00    +0.000 C 
BRANCH  19  20
ATOM     20  C   UNL     1      49.127   6.723  15.501  0.00  0.00    +0.000 C 
BRANCH  20  21
ATOM     21  N   UNL     1      48.299   6.331  16.625  0.00  0.00    +0.000 N 
ATOM     22  C   UNL     1      47.933   5.039  16.806  0.00  0.00    +0.000 C 
ATOM     23  N   UNL     1      48.368   3.994  16.208  0.00  0.00    +0.000 NA
ATOM     24  N   UNL     1      46.998   4.909  17.763  0.00  0.00    +0.000 N 
ATOM     25  H   UNL     1      47.506   6.953  16.777  0.00  0.00    +0.000 HD
ATOM     26  H   UNL     1      49.070   4.253  15.514  0.00  0.00    +0.000 HD
ATOM     27  H   UNL     1      47.241   5.412  18.606  0.00  0.00    +0.000 HD
ATOM     28  H   UNL     1      46.877   3.920  17.963  0.00  0.00    +0.000 HD
ENDBRANCH  20  21
ENDBRANCH  19  20
ENDBRANCH   4  19
TORSDOF 6
ENDMDL
MODEL 2
REMARK VINA RESULT:    -6.993      3.525      7.378
REMARK INTER + INTRA:         -10.125
REMARK INTER:                  -9.579
REMARK INTRA:                  -0.546
REMARK UNBOUND:                -0.678
REMARK  Name = 
REMARK  7 active torsions:
REMARK  status: ('A' for Active; 'I' for Inactive)
REMARK    1  A    between atoms: C_1  and  O_2
REMARK    2  A    between atoms: O_2  and  C_3
REMARK    3  A    between atoms: N_9  and  C_10
REMARK    4  A    between atoms: C_10  and  C_11
REMARK    5  A    between atoms: C_14  and  C_15
REMARK    6  A    between atoms: C_15  and  C_16
REMARK    7  A    between atoms: C_16  and  N_17
REMARK                            x       y       z     vdW  Elec       q    Type
REMARK                         _______ _______ _______ _____ _____    ______ ____
ROOT
ATOM      1  C   UNL     1      45.926   5.499  12.192  0.00  0.00    +0.000 A 
ATOM      2  C   UNL     1      45.417   4.271  12.614  0.00  0.00    +0.000 A 
ATOM      3  C   UNL     1      44.897   3.369  11.688  0.00  0.00    +0.000 A 
ATOM      4  C   UNL     1      44.865   3.674  10.319  0.00  0.00    +0.000 A 
ATOM      5  C   UNL     1      45.273   4.951   9.915  0.00  0.00    +0.000 A 
ATOM      6  C   UNL     1      45.792   5.859  10.843  0.00  0.00    +0.000 A 
ENDROOT
BRANCH   1   7
ATOM      7  C   UNL     1      46.707   6.351  13.156  0.00  0.00    +0.000 C 
BRANCH   7  14
ATOM      8  C   UNL     1      50.379   8.600  11.571  0.00  0.00    +0.000 A 
ATOM      9  C   UNL     1      50.117   9.947  11.314  0.00  0.00    +0.000 A 
ATOM     10  C   UNL     1      48.830  10.461  11.472  0.00  0.00    +0.000 A 
ATOM     11  C   UNL     1      47.791   9.616  11.912  0.00  0.00    +0.000 A 
ATOM     12  C   UNL     1      46.412   9.829  12.165  0.00  0.00    +0.000 A 
ATOM     13  C   UNL     1      45.879   8.645  12.603  0.00  0.00    +0.000 A 
ATOM     14  N   UNL     1      46.885   7.705  12.628  0.00  0.00    +0.000 N 
ATOM     15  C   UNL     1      48.063   8.270  12.166  0.00  0.00    +0.000 A 
ATOM     16  C   UNL     1      49.349   7.737  11.966  0.00  0.00    +0.000 A 
BRANCH   8  18
ATOM     17  C   UNL     1      51.791   7.302  10.200  0.00  0.00    +0.000 C 
ATOM     18  O   UNL     1      51.612   8.016  11.422  0.00  0.00    +0.000 OA
ENDBRANCH   8  18
ENDBRANCH   7  14
ENDBRANCH   1   7
BRANCH   4  19
ATOM     19  C   UNL     1      44.540   2.633   9.267  0.00  0.00    +0.000 C 
BRANCH  19  20
ATOM     20  C   UNL     1      45.766   2.013   8.591  0.00  0.00    +0.000 C 
BRANCH  20  21
ATOM     21  N   UNL     1      46.089   2.656   7.331  0.00  0.00    +0.000 N 
ATOM     22  C   UNL     1      47.230   2.354   6.666  0.00  0.00    +0.000 C 
ATOM     23  N   UNL     1      48.053   1.398   6.885  0.00  0.00    +0.000 NA
ATOM     24  N   UNL     1      47.458   3.200   5.647  0.00  0.00    +0.000 N 
ATOM     25  H   UNL     1      45.937   3.664   7.343  0.00  0.00    +0.000 HD
ATOM     26  H   UNL     1      47.746   0.846   7.685  0.00  0.00    +0.000 HD
ATOM     27  H   UNL     1      46.640   3.329   5.066  0.00  0.00    +0.000 HD
ATOM     28  H   UNL     1      48.230   2.838   5.094  0.00  0.00    +0.000 HD
ENDBRANCH  20  21
ENDBRANCH  19  20
ENDBRANCH   4  19
TORSDOF 6
ENDMDL
MODEL 3
REMARK VINA RESULT:    -6.638      3.273      7.886
REMARK INTER + INTRA:          -9.645
REMARK INTER:                  -8.848
REMARK INTRA:                  -0.797
REMARK UNBOUND:                -0.678
REMARK  Name = 
REMARK  7 active torsions:
REMARK  status: ('A' for Active; 'I' for Inactive)
REMARK    1  A    between atoms: C_1  and  O_2
REMARK    2  A    between atoms: O_2  and  C_3
REMARK    3  A    between atoms: N_9  and  C_10
REMARK    4  A    between atoms: C_10  and  C_11
REMARK    5  A    between atoms: C_14  and  C_15
REMARK    6  A    between atoms: C_15  and  C_16
REMARK    7  A    between atoms: C_16  and  N_17
REMARK                            x       y       z     vdW  Elec       q    Type
REMARK                         _______ _______ _______ _____ _____    ______ ____
ROOT
ATOM      1  C   UNL     1      47.519   6.621  13.362  0.00  0.00    +0.000 A 
ATOM      2  C   UNL     1      46.567   7.521  12.884  0.00  0.00    +0.000 A 
ATOM      3  C   UNL     1      45.252   7.109  12.675  0.00  0.00    +0.000 A 
ATOM      4  C   UNL     1      44.858   5.788  12.930  0.00  0.00    +0.000 A 
ATOM      5  C   UNL     1      45.842   4.862  13.302  0.00  0.00    +0.000 A 
ATOM      6  C   UNL     1      47.162   5.273  13.509  0.00  0.00    +0.000 A 
ENDROOT
BRANCH   1   7
ATOM      7  C   UNL     1      48.860   7.130  13.821  0.00  0.00    +0.000 C 
BRANCH   7  14
ATOM      8  C   UNL     1      48.623   5.173  17.964  0.00  0.00    +0.000 A 
ATOM      9  C   UNL     1      48.389   6.097  18.984  0.00  0.00    +0.000 A 
ATOM     10  C   UNL     1      48.326   7.462  18.702  0.00  0.00    +0.000 A 
ATOM     11  C   UNL     1      48.481   7.909  17.375  0.00  0.00    +0.000 A 
ATOM     12  C   UNL     1      48.469   9.194  16.779  0.00  0.00    +0.000 A 
ATOM     13  C   UNL     1      48.649   9.032  15.430  0.00  0.00    +0.000 A 
ATOM     14  N   UNL     1      48.772   7.686  15.172  0.00  0.00    +0.000 N 
ATOM     15  C   UNL     1      48.715   6.976  16.361  0.00  0.00    +0.000 A 
ATOM     16  C   UNL     1      48.822   5.603  16.646  0.00  0.00    +0.000 A 
BRANCH   8  18
ATOM     17  C   UNL     1      47.653   3.057  17.591  0.00  0.00    +0.000 C 
ATOM     18  O   UNL     1      48.716   3.819  18.162  0.00  0.00    +0.000 OA
ENDBRANCH   8  18
ENDBRANCH   7  14
ENDBRANCH   1   7
BRANCH   4  19
ATOM     19  C   UNL     1      43.402   5.369  12.951  0.00  0.00    +0.000 C 
BRANCH  19  20
ATOM     20  C   UNL     1      42.786   5.150  11.566  0.00  0.00    +0.000 C 
BRANCH  20  21
ATOM     21  N   UNL     1      43.619   4.323  10.714  0.00  0.00    +0.000 N 
ATOM     22  C   UNL     1      43.719   2.988  10.922  0.00  0.00    +0.000 C 
ATOM     23  N   UNL     1      43.018   2.243  11.691  0.00  0.00    +0.000 NA
ATOM     24  N   UNL     1      44.694   2.435  10.179  0.00  0.00    +0.000 N 
ATOM     25  H   UNL     1      44.536   4.727  10.532  0.00  0.00    +0.000 HD
ATOM     26  H   UNL     1      42.323   2.804  12.184  0.00  0.00    +0.000 HD
ATOM     27  H   UNL     1      44.646   2.719   9.210  0.00  0.00    +0.000 HD
ATOM     28  H   UNL     1      44.623   1.424  10.255  0.00  0.00    +0.000 HD
ENDBRANCH  20  21
ENDBRANCH  19  20
ENDBRANCH   4  19
TORSDOF 6
ENDMDL
MODEL 4
REMARK VINA RESULT:    -6.463      2.650      4.584
REMARK INTER + INTRA:          -9.408
REMARK INTER:                  -8.530
REMARK INTRA:                  -0.878
REMARK UNBOUND:                -0.678
REMARK  Name = 
REMARK  7 active torsions:
REMARK  status: ('A' for Active; 'I' for Inactive)
REMARK    1  A    between atoms: C_1  and  O_2
REMARK    2  A    between atoms: O_2  and  C_3
REMARK    3  A    between atoms: N_9  and  C_10
REMARK    4  A    between atoms: C_10  and  C_11
REMARK    5  A    between atoms: C_14  and  C_15
REMARK    6  A    between atoms: C_15  and  C_16
REMARK    7  A    between atoms: C_16  and  N_17
REMARK                            x       y       z     vdW  Elec       q    Type
REMARK                         _______ _______ _______ _____ _____    ______ ____
ROOT
ATOM      1  C   UNL     1      48.232   6.341  14.467  0.00  0.00    +0.000 A 
ATOM      2  C   UNL     1      49.064   7.073  15.313  0.00  0.00    +0.000 A 
ATOM      3  C   UNL     1      49.321   6.626  16.607  0.00  0.00    +0.000 A 
ATOM      4  C   UNL     1      48.748   5.441  17.091  0.00  0.00    +0.000 A 
ATOM      5  C   UNL     1      47.826   4.770  16.278  0.00  0.00    +0.000 A 
ATOM      6  C   UNL     1      47.564   5.220  14.980  0.00  0.00    +0.000 A 
ENDROOT
BRANCH   1   7
ATOM      7  C   UNL     1      48.162   6.693  13.005  0.00  0.00    +0.000 C 
BRANCH   7  14
ATOM      8  C   UNL     1      44.459   4.599  11.286  0.00  0.00    +0.000 A 
ATOM      9  C   UNL     1      43.441   5.492  10.950  0.00  0.00    +0.000 A 
ATOM     10  C   UNL     1      43.580   6.856  11.215  0.00  0.00    +0.000 A 
ATOM     11  C   UNL     1      44.765   7.334  11.808  0.00  0.00    +0.000 A 
ATOM     12  C   UNL     1      45.201   8.626  12.193  0.00  0.00    +0.000 A 
ATOM     13  C   UNL     1      46.467   8.506  12.705  0.00  0.00    +0.000 A 
ATOM     14  N   UNL     1      46.827   7.179  12.649  0.00  0.00    +0.000 N 
ATOM     15  C   UNL     1      45.778   6.431  12.140  0.00  0.00    +0.000 A 
ATOM     16  C   UNL     1      45.625   5.051  11.915  0.00  0.00    +0.000 A 
BRANCH   8  18
ATOM     17  C   UNL     1      43.328   2.586  11.763  0.00  0.00    +0.000 C 
ATOM     18  O   UNL     1      44.391   3.244  11.075  0.00  0.00    +0.000 OA
ENDBRANCH   8  18
ENDBRANCH   7  14
ENDBRANCH   1   7
BRANCH   4  19
ATOM     19  C   UNL     1      49.193   4.800  18.390  0.00  0.00    +0.000 C 
BRANCH  19  20
ATOM     20  C   UNL     1      49.001   3.281  18.444  0.00  0.00    +0.000 C 
BRANCH  20  21
ATOM     21  N   UNL     1      50.232   2.558  18.186  0.00  0.00    +0.000 N 
ATOM     22  C   UNL     1      50.374   1.797  17.074  0.00  0.00    +0.000 C 
ATOM     23  N   UNL     1      49.616   1.738  16.043  0.00  0.00    +0.000 NA
ATOM     24  N   UNL     1      51.484   1.041  17.119  0.00  0.00    +0.000 N 
ATOM     25  H   UNL     1      50.590   2.068  19.004  0.00  0.00    +0.000 HD
ATOM     26  H   UNL     1      48.821   2.366  16.156  0.00  0.00    +0.000 HD
ATOM     27  H   UNL     1      52.301   1.575  17.385  0.00  0.00    +0.000 HD
ATOM     28  H   UNL     1      51.622   0.615  16.207  0.00  0.00    +0.000 HD
ENDBRANCH  20  21
ENDBRANCH  19  20
ENDBRANCH   4  19
TORSDOF 6
ENDMDL
MODEL 5
REMARK VINA RESULT:    -6.358      2.249      2.616
REMARK INTER + INTRA:          -9.266
REMARK INTER:                  -8.629
REMARK INTRA:                  -0.637
REMARK UNBOUND:                -0.678
REMARK  Name = 
REMARK  7 active torsions:
REMARK  status: ('A' for Active; 'I' for Inactive)
REMARK    1  A    between atoms: C_1  and  O_2
REMARK    2  A    between atoms: O_2  and  C_3
REMARK    3  A    between atoms: N_9  and  C_10
REMARK    4  A    between atoms: C_10  and  C_11
REMARK    5  A    between atoms: C_14  and  C_15
REMARK    6  A    between atoms: C_15  and  C_16
REMARK    7  A    between atoms: C_16  and  N_17
REMARK                            x       y       z     vdW  Elec       q    Type
REMARK                         _______ _______ _______ _____ _____    ______ ____
ROOT
ATOM      1  C   UNL     1      45.833   6.586  12.184  0.00  0.00    +0.000 A 
ATOM      2  C   UNL     1      46.481   5.612  12.943  0.00  0.00    +0.000 A 
ATOM      3  C   UNL     1      47.660   5.916  13.621  0.00  0.00    +0.000 A 
ATOM      4  C   UNL     1      48.225   7.198  13.550  0.00  0.00    +0.000 A 
ATOM      5  C   UNL     1      47.633   8.138  12.698  0.00  0.00    +0.000 A 
ATOM      6  C   UNL     1      46.451   7.833  12.015  0.00  0.00    +0.000 A 
ENDROOT
BRANCH   1   7
ATOM      7  C   UNL     1      44.443   6.324  11.668  0.00  0.00    +0.000 C 
BRANCH   7  14
ATOM      8  C   UNL     1      45.754   3.742   8.110  0.00  0.00    +0.000 A 
ATOM      9  C   UNL     1      45.220   2.453   8.153  0.00  0.00    +0.000 A 
ATOM     10  C   UNL     1      44.445   2.044   9.238  0.00  0.00    +0.000 A 
ATOM     11  C   UNL     1      44.183   2.946  10.288  0.00  0.00    +0.000 A 
ATOM     12  C   UNL     1      43.450   2.839  11.497  0.00  0.00    +0.000 A 
ATOM     13  C   UNL     1      43.513   4.051  12.134  0.00  0.00    +0.000 A 
ATOM     14  N   UNL     1      44.261   4.905  11.357  0.00  0.00    +0.000 N 
ATOM     15  C   UNL     1      44.722   4.234  10.235  0.00  0.00    +0.000 A 
ATOM     16  C   UNL     1      45.540   4.637   9.165  0.00  0.00    +0.000 A 
BRANCH   8  18
ATOM     17  C   UNL     1      46.713   3.304   6.001  0.00  0.00    +0.000 C 
ATOM     18  O   UNL     1      46.540   4.212   7.087  0.00  0.00    +0.000 OA
ENDBRANCH   8  18
ENDBRANCH   7  14
ENDBRANCH   1   7
BRANCH   4  19
ATOM     19  C   UNL     1      49.356   7.633  14.459  0.00  0.00    +0.000 C 
BRANCH  19  20
ATOM     20  C   UNL     1      50.418   8.501  13.777  0.00  0.00    +0.000 C 
BRANCH  20  21
ATOM     21  N   UNL     1      51.354   9.078  14.724  0.00  0.00    +0.000 N 
ATOM     22  C   UNL     1      52.518   8.453  15.022  0.00  0.00    +0.000 C 
ATOM     23  N   UNL     1      53.060   7.450  14.439  0.00  0.00    +0.000 NA
ATOM     24  N   UNL     1      53.142   9.022  16.068  0.00  0.00    +0.000 N 
ATOM     25  H   UNL     1      50.907   9.427  15.570  0.00  0.00    +0.000 HD
ATOM     26  H   UNL     1      52.472   7.133  13.669  0.00  0.00    +0.000 HD
ATOM     27  H   UNL     1      53.201  10.028  15.978  0.00  0.00    +0.000 HD
ATOM     28  H   UNL     1      54.071   8.619  16.148  0.00  0.00    +0.000 HD
ENDBRANCH  20  21
ENDBRANCH  19  20
ENDBRANCH   4  19
TORSDOF 6
ENDMDL
MODEL 6
REMARK VINA RESULT:    -6.227      3.494      8.043
REMARK INTER + INTRA:          -9.089
REMARK INTER:                  -9.020
REMARK INTRA:                  -0.070
REMARK UNBOUND:                -0.678
REMARK  Name = 
REMARK  7 active torsions:
REMARK  status: ('A' for Active; 'I' for Inactive)
REMARK    1  A    between atoms: C_1  and  O_2
REMARK    2  A    between atoms: O_2  and  C_3
REMARK    3  A    between atoms: N_9  and  C_10
REMARK    4  A    between atoms: C_10  and  C_11
REMARK    5  A    between atoms: C_14  and  C_15
REMARK    6  A    between atoms: C_15  and  C_16
REMARK    7  A    between atoms: C_16  and  N_17
REMARK                            x       y       z     vdW  Elec       q    Type
REMARK                         _______ _______ _______ _____ _____    ______ ____
ROOT
ATOM      1  C   UNL     1      45.696   5.041  12.210  0.00  0.00    +0.000 A 
ATOM      2  C   UNL     1      45.922   5.917  11.148  0.00  0.00    +0.000 A 
ATOM      3  C   UNL     1      45.649   5.523   9.840  0.00  0.00    +0.000 A 
ATOM      4  C   UNL     1      45.151   4.242   9.559  0.00  0.00    +0.000 A 
ATOM      5  C   UNL     1      45.033   3.330  10.615  0.00  0.00    +0.000 A 
ATOM      6  C   UNL     1      45.310   3.723  11.928  0.00  0.00    +0.000 A 
ENDROOT
BRANCH   1   7
ATOM      7  C   UNL     1      45.753   5.555  13.623  0.00  0.00    +0.000 C 
BRANCH   7  14
ATOM      8  C   UNL     1      48.683   4.838  17.080  0.00  0.00    +0.000 A 
ATOM      9  C   UNL     1      49.778   5.703  17.048  0.00  0.00    +0.000 A 
ATOM     10  C   UNL     1      49.934   6.609  15.998  0.00  0.00    +0.000 A 
ATOM     11  C   UNL     1      48.968   6.662  14.974  0.00  0.00    +0.000 A 
ATOM     12  C   UNL     1      48.842   7.450  13.802  0.00  0.00    +0.000 A 
ATOM     13  C   UNL     1      47.677   7.089  13.177  0.00  0.00    +0.000 A 
ATOM     14  N   UNL     1      47.078   6.102  13.926  0.00  0.00    +0.000 N 
ATOM     15  C   UNL     1      47.876   5.791  15.015  0.00  0.00    +0.000 A 
ATOM     16  C   UNL     1      47.737   4.847  16.048  0.00  0.00    +0.000 A 
BRANCH   8  18
ATOM     17  C   UNL     1      47.608   2.832  17.697  0.00  0.00    +0.000 C 
ATOM     18  O   UNL     1      48.470   3.908  18.067  0.00  0.00    +0.000 OA
ENDBRANCH   8  18
ENDBRANCH   7  14
ENDBRANCH   1   7
BRANCH   4  19
ATOM     19  C   UNL     1      44.614   3.866   8.193  0.00  0.00    +0.000 C 
BRANCH  19  20
ATOM     20  C   UNL     1      45.278   2.635   7.569  0.00  0.00    +0.000 C 
BRANCH  20  21
ATOM     21  N   UNL     1      46.527   2.957   6.904  0.00  0.00    +0.000 N 
ATOM     22  C   UNL     1      47.522   2.042   6.809  0.00  0.00    +0.000 C 
ATOM     23  N   UNL     1      47.485   0.790   7.072  0.00  0.00    +0.000 NA
ATOM     24  N   UNL     1      48.665   2.587   6.360  0.00  0.00    +0.000 N 
ATOM     25  H   UNL     1      46.900   3.867   7.166  0.00  0.00    +0.000 HD
ATOM     26  H   UNL     1      46.555   0.527   7.400  0.00  0.00    +0.000 HD
ATOM     27  H   UNL     1      48.521   3.156   5.536  0.00  0.00    +0.000 HD
ATOM     28  H   UNL     1      49.323   1.839   6.161  0.00  0.00    +0.000 HD
ENDBRANCH  20  21
ENDBRANCH  19  20
ENDBRANCH   4  19
TORSDOF 6
ENDMDL
MODEL 7
REMARK VINA RESULT:    -6.020      3.628      7.701
REMARK INTER + INTRA:          -8.810
REMARK INTER:                  -7.796
REMARK INTRA:                  -1.014
REMARK UNBOUND:                -0.678
REMARK  Name = 
REMARK  7 active torsions:
REMARK  status: ('A' for Active; 'I' for Inactive)
REMARK    1  A    between atoms: C_1  and  O_2
REMARK    2  A    between atoms: O_2  and  C_3
REMARK    3  A    between atoms: N_9  and  C_10
REMARK    4  A    between atoms: C_10  and  C_11
REMARK    5  A    between atoms: C_14  and  C_15
REMARK    6  A    between atoms: C_15  and  C_16
REMARK    7  A    between atoms: C_16  and  N_17
REMARK                            x       y       z     vdW  Elec       q    Type
REMARK                         _______ _______ _______ _____ _____    ______ ____
ROOT
ATOM      1  C   UNL     1      48.973   8.283  14.537  0.00  0.00    +0.000 A 
ATOM      2  C   UNL     1      47.736   8.863  14.255  0.00  0.00    +0.000 A 
ATOM      3  C   UNL     1      46.947   8.370  13.218  0.00  0.00    +0.000 A 
ATOM      4  C   UNL     1      47.377   7.291  12.432  0.00  0.00    +0.000 A 
ATOM      5  C   UNL     1      48.666   6.786  12.646  0.00  0.00    +0.000 A 
ATOM      6  C   UNL     1      49.460   7.283  13.684  0.00  0.00    +0.000 A 
ENDROOT
BRANCH   1   7
ATOM      7  C   UNL     1      49.697   8.654  15.804  0.00  0.00    +0.000 C 
BRANCH   7  14
ATOM      8  C   UNL     1      49.067   4.466  17.569  0.00  0.00    +0.000 A 
ATOM      9  C   UNL     1      48.156   4.458  18.626  0.00  0.00    +0.000 A 
ATOM     10  C   UNL     1      47.600   5.650  19.091  0.00  0.00    +0.000 A 
ATOM     11  C   UNL     1      47.946   6.869  18.474  0.00  0.00    +0.000 A 
ATOM     12  C   UNL     1      47.564   8.214  18.706  0.00  0.00    +0.000 A 
ATOM     13  C   UNL     1      48.201   8.996  17.778  0.00  0.00    +0.000 A 
ATOM     14  N   UNL     1      48.966   8.177  16.979  0.00  0.00    +0.000 N 
ATOM     15  C   UNL     1      48.859   6.866  17.417  0.00  0.00    +0.000 A 
ATOM     16  C   UNL     1      49.456   5.672  16.973  0.00  0.00    +0.000 A 
BRANCH   8  18
ATOM     17  C   UNL     1      51.012   3.136  17.507  0.00  0.00    +0.000 C 
ATOM     18  O   UNL     1      49.670   3.340  17.067  0.00  0.00    +0.000 OA
ENDBRANCH   8  18
ENDBRANCH   7  14
ENDBRANCH   1   7
BRANCH   4  19
ATOM     19  C   UNL     1      46.453   6.575  11.468  0.00  0.00    +0.000 C 
BRANCH  19  20
ATOM     20  C   UNL     1      45.022   6.391  11.982  0.00  0.00    +0.000 C 
BRANCH  20  21
ATOM     21  N   UNL     1      44.698   4.999  12.233  0.00  0.00    +0.000 N 
ATOM     22  C   UNL     1      43.603   4.657  12.954  0.00  0.00    +0.000 C 
ATOM     23  N   UNL     1      42.633   5.400  13.336  0.00  0.00    +0.000 NA
ATOM     24  N   UNL     1      43.592   3.349  13.262  0.00  0.00    +0.000 N 
ATOM     25  H   UNL     1      45.503   4.444  12.518  0.00  0.00    +0.000 HD
ATOM     26  H   UNL     1      42.784   6.361  13.027  0.00  0.00    +0.000 HD
ATOM     27  H   UNL     1      43.780   2.765  12.459  0.00  0.00    +0.000 HD
ATOM     28  H   UNL     1      42.686   3.120  13.662  0.00  0.00    +0.000 HD
ENDBRANCH  20  21
ENDBRANCH  19  20
ENDBRANCH   4  19
TORSDOF 6
ENDMDL
MODEL 8
REMARK VINA RESULT:    -5.958      3.434      7.392
REMARK INTER + INTRA:          -8.726
REMARK INTER:                  -7.765
REMARK INTRA:                  -0.961
REMARK UNBOUND:                -0.678
REMARK  Name = 
REMARK  7 active torsions:
REMARK  status: ('A' for Active; 'I' for Inactive)
REMARK    1  A    between atoms: C_1  and  O_2
REMARK    2  A    between atoms: O_2  and  C_3
REMARK    3  A    between atoms: N_9  and  C_10
REMARK    4  A    between atoms: C_10  and  C_11
REMARK    5  A    between atoms: C_14  and  C_15
REMARK    6  A    between atoms: C_15  and  C_16
REMARK    7  A    between atoms: C_16  and  N_17
REMARK                            x       y       z     vdW  Elec       q    Type
REMARK                         _______ _______ _______ _____ _____    ______ ____
ROOT
ATOM      1  C   UNL     1      46.065   7.439  12.754  0.00  0.00    +0.000 A 
ATOM      2  C   UNL     1      44.994   7.292  11.873  0.00  0.00    +0.000 A 
ATOM      3  C   UNL     1      44.570   6.022  11.486  0.00  0.00    +0.000 A 
ATOM      4  C   UNL     1      45.209   4.869  11.963  0.00  0.00    +0.000 A 
ATOM      5  C   UNL     1      46.353   5.024  12.756  0.00  0.00    +0.000 A 
ATOM      6  C   UNL     1      46.782   6.298  13.143  0.00  0.00    +0.000 A 
ENDROOT
BRANCH   1   7
ATOM      7  C   UNL     1      46.353   8.787  13.357  0.00  0.00    +0.000 C 
BRANCH   7  14
ATOM      8  C   UNL     1      50.614   9.177  11.704  0.00  0.00    +0.000 A 
ATOM      9  C   UNL     1      50.772  10.291  10.878  0.00  0.00    +0.000 A 
ATOM     10  C   UNL     1      49.682  11.106  10.571  0.00  0.00    +0.000 A 
ATOM     11  C   UNL     1      48.416  10.812  11.116  0.00  0.00    +0.000 A 
ATOM     12  C   UNL     1      47.145  11.429  11.000  0.00  0.00    +0.000 A 
ATOM     13  C   UNL     1      46.264  10.721  11.775  0.00  0.00    +0.000 A 
ATOM     14  N   UNL     1      46.950   9.685  12.367  0.00  0.00    +0.000 N 
ATOM     15  C   UNL     1      48.269   9.695  11.942  0.00  0.00    +0.000 A 
ATOM     16  C   UNL     1      49.355   8.846  12.218  0.00  0.00    +0.000 A 
BRANCH   8  18
ATOM     17  C   UNL     1      52.737   8.932  12.699  0.00  0.00    +0.000 C 
ATOM     18  O   UNL     1      51.632   8.319  12.037  0.00  0.00    +0.000 OA
ENDBRANCH   8  18
ENDBRANCH   7  14
ENDBRANCH   1   7
BRANCH   4  19
ATOM     19  C   UNL     1      44.629   3.483  11.765  0.00  0.00    +0.000 C 
BRANCH  19  20
ATOM     20  C   UNL     1      44.021   3.244  10.379  0.00  0.00    +0.000 C 
BRANCH  20  21
ATOM     21  N   UNL     1      44.980   2.692   9.441  0.00  0.00    +0.000 N 
ATOM     22  C   UNL     1      45.509   3.456   8.455  0.00  0.00    +0.000 C 
ATOM     23  N   UNL     1      45.438   4.725   8.301  0.00  0.00    +0.000 NA
ATOM     24  N   UNL     1      46.200   2.722   7.566  0.00  0.00    +0.000 N 
ATOM     25  H   UNL     1      44.711   1.778   9.081  0.00  0.00    +0.000 HD
ATOM     26  H   UNL     1      44.885   5.139   9.052  0.00  0.00    +0.000 HD
ATOM     27  H   UNL     1      46.845   2.085   8.013  0.00  0.00    +0.000 HD
ATOM     28  H   UNL     1      46.699   3.354   6.946  0.00  0.00    +0.000 HD
ENDBRANCH  20  21
ENDBRANCH  19  20
ENDBRANCH   4  19
TORSDOF 6
ENDMDL
MODEL 9
REMARK VINA RESULT:    -5.895      3.296      7.988
REMARK INTER + INTRA:          -8.641
REMARK INTER:                  -7.749
REMARK INTRA:                  -0.892
REMARK UNBOUND:                -0.678
REMARK  Name = 
REMARK  7 active torsions:
REMARK  status: ('A' for Active; 'I' for Inactive)
REMARK    1  A    between atoms: C_1  and  O_2
REMARK    2  A    between atoms: O_2  and  C_3
REMARK    3  A    between atoms: N_9  and  C_10
REMARK    4  A    between atoms: C_10  and  C_11
REMARK    5  A    between atoms: C_14  and  C_15
REMARK    6  A    between atoms: C_15  and  C_16
REMARK    7  A    between atoms: C_16  and  N_17
REMARK                            x       y       z     vdW  Elec       q    Type
REMARK                         _______ _______ _______ _____ _____    ______ ____
ROOT
ATOM      1  C   UNL     1      47.202   6.421  12.912  0.00  0.00    +0.000 A 
ATOM      2  C   UNL     1      47.087   5.192  13.562  0.00  0.00    +0.000 A 
ATOM      3  C   UNL     1      45.853   4.551  13.643  0.00  0.00    +0.000 A 
ATOM      4  C   UNL     1      44.701   5.125  13.084  0.00  0.00    +0.000 A 
ATOM      5  C   UNL     1      44.800   6.409  12.533  0.00  0.00    +0.000 A 
ATOM      6  C   UNL     1      46.038   7.055  12.454  0.00  0.00    +0.000 A 
ENDROOT
BRANCH   1   7
ATOM      7  C   UNL     1      48.568   6.979  12.611  0.00  0.00    +0.000 C 
BRANCH   7  14
ATOM      8  C   UNL     1      49.738   7.174  17.043  0.00  0.00    +0.000 A 
ATOM      9  C   UNL     1      49.792   8.481  17.530  0.00  0.00    +0.000 A 
ATOM     10  C   UNL     1      49.578   9.564  16.676  0.00  0.00    +0.000 A 
ATOM     11  C   UNL     1      49.286   9.334  15.317  0.00  0.00    +0.000 A 
ATOM     12  C   UNL     1      49.025  10.197  14.223  0.00  0.00    +0.000 A 
ATOM     13  C   UNL     1      48.780   9.417  13.123  0.00  0.00    +0.000 A 
ATOM     14  N   UNL     1      48.881   8.098  13.502  0.00  0.00    +0.000 N 
ATOM     15  C   UNL     1      49.235   8.021  14.840  0.00  0.00    +0.000 A 
ATOM     16  C   UNL     1      49.493   6.929  15.687  0.00  0.00    +0.000 A 
BRANCH   8  18
ATOM     17  C   UNL     1      50.980   5.191  17.333  0.00  0.00    +0.000 C 
ATOM     18  O   UNL     1      49.955   6.059  17.814  0.00  0.00    +0.000 OA
ENDBRANCH   8  18
ENDBRANCH   7  14
ENDBRANCH   1   7
BRANCH   4  19
ATOM     19  C   UNL     1      43.405   4.355  12.936  0.00  0.00    +0.000 C 
BRANCH  19  20
ATOM     20  C   UNL     1      43.023   4.031  11.489  0.00  0.00    +0.000 C 
BRANCH  20  21
ATOM     21  N   UNL     1      43.964   3.126  10.857  0.00  0.00    +0.000 N 
ATOM     22  C   UNL     1      44.347   3.305   9.569  0.00  0.00    +0.000 C 
ATOM     23  N   UNL     1      44.140   4.312   8.807  0.00  0.00    +0.000 NA
ATOM     24  N   UNL     1      45.043   2.256   9.101  0.00  0.00    +0.000 N 
ATOM     25  H   UNL     1      43.763   2.144  11.038  0.00  0.00    +0.000 HD
ATOM     26  H   UNL     1      43.602   5.023   9.302  0.00  0.00    +0.000 HD
ATOM     27  H   UNL     1      45.778   1.969   9.734  0.00  0.00    +0.000 HD
ATOM     28  H   UNL     1      45.434   2.506   8.197  0.00  0.00    +0.000 HD
ENDBRANCH  20  21
ENDBRANCH  19  20
ENDBRANCH   4  19
TORSDOF 6
ENDMDL
