MODEL 1
REMARK VINA RESULT:    -8.889      0.000      0.000
REMARK INTER + INTRA:         -12.327
REMARK INTER:                 -11.487
REMARK INTRA:                  -0.840
REMARK UNBOUND:                -0.840
REMARK  Name = 
REMARK  6 active torsions:
REMARK  status: ('A' for Active; 'I' for Inactive)
REMARK    1  A    between atoms: C_1  and  C_2
REMARK    2  A    between atoms: C_4  and  O_5
REMARK    3  A    between atoms: O_5  and  C_6
REMARK    4  A    between atoms: C_6  and  C_7
REMARK    5  A    between atoms: C_11  and  C_12
REMARK    6  A    between atoms: C_22  and  C_23
REMARK                            x       y       z     vdW  Elec       q    Type
REMARK                         _______ _______ _______ _____ _____    ______ ____
ROOT
ATOM      1  C   UNL     1      43.987   2.909  11.589  0.00  0.00    +0.000 C 
ENDROOT
BRANCH   1   2
ATOM      2  C   UNL     1      44.954   3.929  12.162  0.00  0.00    +0.000 A 
ATOM      3  C   UNL     1      45.943   3.472  13.045  0.00  0.00    +0.000 A 
ATOM      4  C   UNL     1      46.917   4.339  13.529  0.00  0.00    +0.000 A 
ATOM      5  C   UNL     1      46.882   5.687  13.177  0.00  0.00    +0.000 A 
ATOM      6  C   UNL     1      45.839   6.215  12.396  0.00  0.00    +0.000 A 
ATOM      7  C   UNL     1      44.891   5.305  11.876  0.00  0.00    +0.000 A 
BRANCH   6   8
ATOM      8  C   UNL     1      45.706   7.676  12.203  0.00  0.00    +0.000 A 
ATOM      9  C   UNL     1      46.655   8.598  12.659  0.00  0.00    +0.000 A 
ATOM     10  N   UNL     1      46.618   9.938  12.430  0.00  0.00    +0.000 NA
ATOM     11  C   UNL     1      45.572  10.398  11.708  0.00  0.00    +0.000 A 
ATOM     12  C   UNL     1      44.563   9.584  11.235  0.00  0.00    +0.000 A 
ATOM     13  F   UNL     1      43.547  10.093  10.528  0.00  0.00    +0.000 F 
ATOM     14  C   UNL     1      44.626   8.219  11.484  0.00  0.00    +0.000 A 
ENDBRANCH   6   8
ENDBRANCH   1   2
BRANCH   1  15
ATOM     15  O   UNL     1      43.626   3.171  10.230  0.00  0.00    +0.000 OA
BRANCH  15  19
ATOM     16  C   UNL     1      46.727   0.250   7.664  0.00  0.00    +0.000 C 
ATOM     17  C   UNL     1      46.169   1.617   7.960  0.00  0.00    +0.000 A 
ATOM     18  C   UNL     1      45.217   1.737   9.001  0.00  0.00    +0.000 A 
ATOM     19  C   UNL     1      44.607   2.961   9.292  0.00  0.00    +0.000 A 
ATOM     20  C   UNL     1      44.995   4.089   8.571  0.00  0.00    +0.000 A 
ATOM     21  C   UNL     1      45.948   3.993   7.549  0.00  0.00    +0.000 A 
ATOM     22  C   UNL     1      46.536   2.760   7.227  0.00  0.00    +0.000 A 
BRANCH  22  23
ATOM     23  C   UNL     1      47.492   2.670   6.078  0.00  0.00    +0.000 C 
ATOM     24  N   UNL     1      48.818   2.492   6.372  0.00  0.00    +0.000 N 
ATOM     25  O   UNL     1      47.135   2.737   4.908  0.00  0.00    +0.000 OA
ATOM     26  H   UNL     1      49.155   2.236   7.288  0.00  0.00    +0.000 HD
ATOM     27  H   UNL     1      49.435   2.363   5.585  0.00  0.00    +0.000 HD
ENDBRANCH  22  23
ENDBRANCH  15  19
ENDBRANCH   1  15
TORSDOF 5
ENDMDL
MODEL 2
REMARK VINA RESULT:    -8.793      1.810      2.125
REMARK INTER + INTRA:         -12.203
REMARK INTER:                 -11.717
REMARK INTRA:                  -0.486
REMARK UNBOUND:                -0.840
REMARK  Name = 
REMARK  6 active torsions:
REMARK  status: ('A' for Active; 'I' for Inactive)
REMARK    1  A    between atoms: C_1  and  C_2
REMARK    2  A    between atoms: C_4  and  O_5
REMARK    3  A    between atoms: O_5  and  C_6
REMARK    4  A    between atoms: C_6  and  C_7
REMARK    5  A    between atoms: C_11  and  C_12
REMARK    6  A    between atoms: C_22  and  C_23
REMARK                            x       y       z     vdW  Elec       q    Type
REMARK                         _______ _______ _______ _____ _____    ______ ____
ROOT
ATOM      1  C   UNL     1      43.565   4.406  10.933  0.00  0.00    +0.000 C 
ENDROOT
BRANCH   1   2
ATOM      2  C   UNL     1      44.789   4.825  11.725  0.00  0.00    +0.000 A 
ATOM      3  C   UNL     1      45.206   3.996  12.777  0.00  0.00    +0.000 A 
ATOM      4  C   UNL     1      46.374   4.275  13.478  0.00  0.00    +0.000 A 
ATOM      5  C   UNL     1      47.113   5.415  13.172  0.00  0.00    +0.000 A 
ATOM      6  C   UNL     1      46.668   6.341  12.210  0.00  0.00    +0.000 A 
ATOM      7  C   UNL     1      45.506   6.010  11.477  0.00  0.00    +0.000 A 
BRANCH   6   8
ATOM      8  C   UNL     1      47.353   7.642  12.042  0.00  0.00    +0.000 A 
ATOM      9  C   UNL     1      46.739   8.870  12.312  0.00  0.00    +0.000 A 
ATOM     10  N   UNL     1      47.354  10.082  12.256  0.00  0.00    +0.000 NA
ATOM     11  C   UNL     1      48.659  10.080  11.904  0.00  0.00    +0.000 A 
ATOM     12  C   UNL     1      49.355   8.932  11.587  0.00  0.00    +0.000 A 
ATOM     13  F   UNL     1      50.648   8.988  11.242  0.00  0.00    +0.000 F 
ATOM     14  C   UNL     1      48.702   7.708  11.653  0.00  0.00    +0.000 A 
ENDBRANCH   6   8
ENDBRANCH   1   2
BRANCH   1  15
ATOM     15  O   UNL     1      43.671   3.092  10.377  0.00  0.00    +0.000 OA
BRANCH  15  19
ATOM     16  C   UNL     1      46.744   0.284   7.657  0.00  0.00    +0.000 C 
ATOM     17  C   UNL     1      46.170   1.634   7.999  0.00  0.00    +0.000 A 
ATOM     18  C   UNL     1      45.249   1.714   9.070  0.00  0.00    +0.000 A 
ATOM     19  C   UNL     1      44.626   2.920   9.405  0.00  0.00    +0.000 A 
ATOM     20  C   UNL     1      44.971   4.070   8.698  0.00  0.00    +0.000 A 
ATOM     21  C   UNL     1      45.894   4.014   7.645  0.00  0.00    +0.000 A 
ATOM     22  C   UNL     1      46.495   2.799   7.279  0.00  0.00    +0.000 A 
BRANCH  22  23
ATOM     23  C   UNL     1      47.416   2.750   6.101  0.00  0.00    +0.000 C 
ATOM     24  N   UNL     1      48.748   2.551   6.348  0.00  0.00    +0.000 N 
ATOM     25  O   UNL     1      47.026   2.869   4.945  0.00  0.00    +0.000 OA
ATOM     26  H   UNL     1      49.109   2.256   7.242  0.00  0.00    +0.000 HD
ATOM     27  H   UNL     1      49.341   2.452   5.539  0.00  0.00    +0.000 HD
ENDBRANCH  22  23
ENDBRANCH  15  19
ENDBRANCH   1  15
TORSDOF 5
ENDMDL
MODEL 3
REMARK VINA RESULT:    -8.630      2.041      2.788
REMARK INTER + INTRA:         -11.992
REMARK INTER:                 -11.309
REMARK INTRA:                  -0.683
REMARK UNBOUND:                -0.840
REMARK  Name = 
REMARK  6 active torsions:
REMARK  status: ('A' for Active; 'I' for Inactive)
REMARK    1  A    between atoms: C_1  and  C_2
REMARK    2  A    between atoms: C_4  and  O_5
REMARK    3  A    between atoms: O_5  and  C_6
REMARK    4  A    between atoms: C_6  and  C_7
REMARK    5  A    between atoms: C_11  and  C_12
REMARK    6  A    between atoms: C_22  and  C_23
REMARK                            x       y       z     vdW  Elec       q    Type
REMARK                         _______ _______ _______ _____ _____    ______ ____
ROOT
ATOM      1  C   UNL     1      43.953   3.272  11.576  0.00  0.00    +0.000 C 
ENDROOT
BRANCH   1   2
ATOM      2  C   UNL     1      44.381   4.722  11.705  0.00  0.00    +0.000 A 
ATOM      3  C   UNL     1      43.463   5.714  11.332  0.00  0.00    +0.000 A 
ATOM      4  C   UNL     1      43.759   7.060  11.517  0.00  0.00    +0.000 A 
ATOM      5  C   UNL     1      45.001   7.434  12.028  0.00  0.00    +0.000 A 
ATOM      6  C   UNL     1      45.999   6.481  12.299  0.00  0.00    +0.000 A 
ATOM      7  C   UNL     1      45.655   5.118  12.151  0.00  0.00    +0.000 A 
BRANCH   6   8
ATOM      8  C   UNL     1      47.374   6.906  12.645  0.00  0.00    +0.000 A 
ATOM      9  C   UNL     1      47.993   6.584  13.857  0.00  0.00    +0.000 A 
ATOM     10  N   UNL     1      49.281   6.877  14.182  0.00  0.00    +0.000 NA
ATOM     11  C   UNL     1      50.001   7.539  13.250  0.00  0.00    +0.000 A 
ATOM     12  C   UNL     1      49.484   7.934  12.034  0.00  0.00    +0.000 A 
ATOM     13  F   UNL     1      50.242   8.591  11.147  0.00  0.00    +0.000 F 
ATOM     14  C   UNL     1      48.166   7.620  11.728  0.00  0.00    +0.000 A 
ENDBRANCH   6   8
ENDBRANCH   1   2
BRANCH   1  15
ATOM     15  O   UNL     1      43.533   2.921  10.254  0.00  0.00    +0.000 OA
BRANCH  15  19
ATOM     16  C   UNL     1      46.794   0.219   7.647  0.00  0.00    +0.000 C 
ATOM     17  C   UNL     1      46.166   1.549   7.970  0.00  0.00    +0.000 A 
ATOM     18  C   UNL     1      45.202   1.597   9.006  0.00  0.00    +0.000 A 
ATOM     19  C   UNL     1      44.530   2.782   9.319  0.00  0.00    +0.000 A 
ATOM     20  C   UNL     1      44.865   3.944   8.627  0.00  0.00    +0.000 A 
ATOM     21  C   UNL     1      45.829   3.920   7.611  0.00  0.00    +0.000 A 
ATOM     22  C   UNL     1      46.481   2.725   7.265  0.00  0.00    +0.000 A 
BRANCH  22  23
ATOM     23  C   UNL     1      47.447   2.710   6.123  0.00  0.00    +0.000 C 
ATOM     24  N   UNL     1      48.779   2.591   6.422  0.00  0.00    +0.000 N 
ATOM     25  O   UNL     1      47.095   2.787   4.952  0.00  0.00    +0.000 OA
ATOM     26  H   UNL     1      49.121   2.331   7.335  0.00  0.00    +0.000 HD
ATOM     27  H   UNL     1      49.406   2.512   5.638  0.00  0.00    +0.000 HD
ENDBRANCH  22  23
ENDBRANCH  15  19
ENDBRANCH   1  15
TORSDOF 5
ENDMDL
MODEL 4
REMARK VINA RESULT:    -8.371      2.990      4.292
REMARK INTER + INTRA:         -11.658
REMARK INTER:                 -11.090
REMARK INTRA:                  -0.567
REMARK UNBOUND:                -0.840
REMARK  Name = 
REMARK  6 active torsions:
REMARK  status: ('A' for Active; 'I' for Inactive)
REMARK    1  A    between atoms: C_1  and  C_2
REMARK    2  A    between atoms: C_4  and  O_5
REMARK    3  A    between atoms: O_5  and  C_6
REMARK    4  A    between atoms: C_6  and  C_7
REMARK    5  A    between atoms: C_11  and  C_12
REMARK    6  A    between atoms: C_22  and  C_23
REMARK                            x       y       z     vdW  Elec       q    Type
REMARK                         _______ _______ _______ _____ _____    ______ ____
ROOT
ATOM      1  C   UNL     1      43.871   4.927  10.878  0.00  0.00    +0.000 C 
ENDROOT
BRANCH   1   2
ATOM      2  C   UNL     1      45.017   5.438  11.730  0.00  0.00    +0.000 A 
ATOM      3  C   UNL     1      45.648   6.627  11.338  0.00  0.00    +0.000 A 
ATOM      4  C   UNL     1      46.640   7.197  12.129  0.00  0.00    +0.000 A 
ATOM      5  C   UNL     1      47.051   6.557  13.296  0.00  0.00    +0.000 A 
ATOM      6  C   UNL     1      46.535   5.302  13.665  0.00  0.00    +0.000 A 
ATOM      7  C   UNL     1      45.493   4.769  12.873  0.00  0.00    +0.000 A 
BRANCH   6   8
ATOM      8  C   UNL     1      47.125   4.545  14.791  0.00  0.00    +0.000 A 
ATOM      9  C   UNL     1      47.481   3.195  14.702  0.00  0.00    +0.000 A 
ATOM     10  N   UNL     1      48.105   2.483  15.679  0.00  0.00    +0.000 NA
ATOM     11  C   UNL     1      48.389   3.148  16.821  0.00  0.00    +0.000 A 
ATOM     12  C   UNL     1      48.057   4.470  17.029  0.00  0.00    +0.000 A 
ATOM     13  F   UNL     1      48.359   5.080  18.182  0.00  0.00    +0.000 F 
ATOM     14  C   UNL     1      47.421   5.173  16.014  0.00  0.00    +0.000 A 
ENDBRANCH   6   8
ENDBRANCH   1   2
BRANCH   1  15
ATOM     15  O   UNL     1      43.992   3.544  10.534  0.00  0.00    +0.000 OA
BRANCH  15  19
ATOM     16  C   UNL     1      46.593   0.358   7.738  0.00  0.00    +0.000 C 
ATOM     17  C   UNL     1      46.179   1.769   8.065  0.00  0.00    +0.000 A 
ATOM     18  C   UNL     1      45.340   1.975   9.186  0.00  0.00    +0.000 A 
ATOM     19  C   UNL     1      44.863   3.247   9.514  0.00  0.00    +0.000 A 
ATOM     20  C   UNL     1      45.276   4.334   8.746  0.00  0.00    +0.000 A 
ATOM     21  C   UNL     1      46.120   4.153   7.644  0.00  0.00    +0.000 A 
ATOM     22  C   UNL     1      46.573   2.873   7.286  0.00  0.00    +0.000 A 
BRANCH  22  23
ATOM     23  C   UNL     1      47.408   2.696   6.057  0.00  0.00    +0.000 C 
ATOM     24  N   UNL     1      48.756   2.520   6.229  0.00  0.00    +0.000 N 
ATOM     25  O   UNL     1      46.938   2.693   4.926  0.00  0.00    +0.000 OA
ATOM     26  H   UNL     1      49.180   2.320   7.123  0.00  0.00    +0.000 HD
ATOM     27  H   UNL     1      49.291   2.333   5.396  0.00  0.00    +0.000 HD
ENDBRANCH  22  23
ENDBRANCH  15  19
ENDBRANCH   1  15
TORSDOF 5
ENDMDL
MODEL 5
REMARK VINA RESULT:    -7.790      3.208      7.118
REMARK INTER + INTRA:         -10.907
REMARK INTER:                  -9.976
REMARK INTRA:                  -0.931
REMARK UNBOUND:                -0.840
REMARK  Name = 
REMARK  6 active torsions:
REMARK  status: ('A' for Active; 'I' for Inactive)
REMARK    1  A    between atoms: C_1  and  C_2
REMARK    2  A    between atoms: C_4  and  O_5
REMARK    3  A    between atoms: O_5  and  C_6
REMARK    4  A    between atoms: C_6  and  C_7
REMARK    5  A    between atoms: C_11  and  C_12
REMARK    6  A    between atoms: C_22  and  C_23
REMARK                            x       y       z     vdW  Elec       q    Type
REMARK                         _______ _______ _______ _____ _____    ______ ____
ROOT
ATOM      1  C   UNL     1      43.863   6.281  11.380  0.00  0.00    +0.000 C 
ENDROOT
BRANCH   1   2
ATOM      2  C   UNL     1      44.022   4.836  10.948  0.00  0.00    +0.000 A 
ATOM      3  C   UNL     1      43.418   3.844  11.734  0.00  0.00    +0.000 A 
ATOM      4  C   UNL     1      43.446   2.511  11.339  0.00  0.00    +0.000 A 
ATOM      5  C   UNL     1      44.126   2.145  10.180  0.00  0.00    +0.000 A 
ATOM      6  C   UNL     1      44.852   3.085   9.427  0.00  0.00    +0.000 A 
ATOM      7  C   UNL     1      44.765   4.440   9.820  0.00  0.00    +0.000 A 
BRANCH   6   8
ATOM      8  C   UNL     1      45.732   2.649   8.320  0.00  0.00    +0.000 A 
ATOM      9  C   UNL     1      46.327   1.383   8.269  0.00  0.00    +0.000 A 
ATOM     10  N   UNL     1      47.071   0.907   7.234  0.00  0.00    +0.000 NA
ATOM     11  C   UNL     1      47.242   1.740   6.184  0.00  0.00    +0.000 A 
ATOM     12  C   UNL     1      46.727   3.019   6.140  0.00  0.00    +0.000 A 
ATOM     13  F   UNL     1      46.931   3.804   5.074  0.00  0.00    +0.000 F 
ATOM     14  C   UNL     1      45.972   3.478   7.211  0.00  0.00    +0.000 A 
ENDBRANCH   6   8
ENDBRANCH   1   2
BRANCH   1  15
ATOM     15  O   UNL     1      44.532   6.583  12.608  0.00  0.00    +0.000 OA
BRANCH  15  19
ATOM     16  C   UNL     1      48.098   9.935  11.723  0.00  0.00    +0.000 C 
ATOM     17  C   UNL     1      47.688   8.536  12.099  0.00  0.00    +0.000 A 
ATOM     18  C   UNL     1      46.308   8.223  12.102  0.00  0.00    +0.000 A 
ATOM     19  C   UNL     1      45.848   6.965  12.502  0.00  0.00    +0.000 A 
ATOM     20  C   UNL     1      46.782   5.990  12.846  0.00  0.00    +0.000 A 
ATOM     21  C   UNL     1      48.153   6.275  12.832  0.00  0.00    +0.000 A 
ATOM     22  C   UNL     1      48.620   7.548  12.468  0.00  0.00    +0.000 A 
BRANCH  22  23
ATOM     23  C   UNL     1      50.084   7.850  12.538  0.00  0.00    +0.000 C 
ATOM     24  N   UNL     1      50.868   7.424  11.499  0.00  0.00    +0.000 N 
ATOM     25  O   UNL     1      50.594   8.464  13.468  0.00  0.00    +0.000 OA
ATOM     26  H   UNL     1      50.495   7.090  10.622  0.00  0.00    +0.000 HD
ATOM     27  H   UNL     1      51.837   7.698  11.530  0.00  0.00    +0.000 HD
ENDBRANCH  22  23
ENDBRANCH  15  19
ENDBRANCH   1  15
TORSDOF 5
ENDMDL
MODEL 6
REMARK VINA RESULT:    -7.569      3.807      7.827
REMARK INTER + INTRA:         -10.622
REMARK INTER:                  -9.871
REMARK INTRA:                  -0.751
REMARK UNBOUND:                -0.840
REMARK  Name = 
REMARK  6 active torsions:
REMARK  status: ('A' for Active; 'I' for Inactive)
REMARK    1  A    between atoms: C_1  and  C_2
REMARK    2  A    between atoms: C_4  and  O_5
REMARK    3  A    between atoms: O_5  and  C_6
REMARK    4  A    between atoms: C_6  and  C_7
REMARK    5  A    between atoms: C_11  and  C_12
REMARK    6  A    between atoms: C_22  and  C_23
REMARK                            x       y       z     vdW  Elec       q    Type
REMARK                         _______ _______ _______ _____ _____    ______ ____
ROOT
ATOM      1  C   UNL     1      45.466   7.087  11.545  0.00  0.00    +0.000 C 
ENDROOT
BRANCH   1   2
ATOM      2  C   UNL     1      44.984   5.745  11.027  0.00  0.00    +0.000 A 
ATOM      3  C   UNL     1      43.904   5.137  11.684  0.00  0.00    +0.000 A 
ATOM      4  C   UNL     1      43.354   3.954  11.199  0.00  0.00    +0.000 A 
ATOM      5  C   UNL     1      43.912   3.336  10.082  0.00  0.00    +0.000 A 
ATOM      6  C   UNL     1      45.071   3.842   9.466  0.00  0.00    +0.000 A 
ATOM      7  C   UNL     1      45.579   5.070   9.945  0.00  0.00    +0.000 A 
BRANCH   6   8
ATOM      8  C   UNL     1      45.766   3.066   8.414  0.00  0.00    +0.000 A 
ATOM      9  C   UNL     1      46.348   3.656   7.287  0.00  0.00    +0.000 A 
ATOM     10  N   UNL     1      47.069   2.996   6.341  0.00  0.00    +0.000 NA
ATOM     11  C   UNL     1      47.221   1.665   6.520  0.00  0.00    +0.000 A 
ATOM     12  C   UNL     1      46.665   0.975   7.577  0.00  0.00    +0.000 A 
ATOM     13  F   UNL     1      46.844  -0.346   7.704  0.00  0.00    +0.000 F 
ATOM     14  C   UNL     1      45.933   1.675   8.528  0.00  0.00    +0.000 A 
ENDBRANCH   6   8
ENDBRANCH   1   2
BRANCH   1  15
ATOM     15  O   UNL     1      46.885   7.152  11.717  0.00  0.00    +0.000 OA
BRANCH  15  19
ATOM     16  C   UNL     1      47.180   4.094  15.628  0.00  0.00    +0.000 C 
ATOM     17  C   UNL     1      47.593   5.364  14.931  0.00  0.00    +0.000 A 
ATOM     18  C   UNL     1      46.984   5.673  13.692  0.00  0.00    +0.000 A 
ATOM     19  C   UNL     1      47.361   6.800  12.957  0.00  0.00    +0.000 A 
ATOM     20  C   UNL     1      48.318   7.660  13.494  0.00  0.00    +0.000 A 
ATOM     21  C   UNL     1      48.919   7.380  14.728  0.00  0.00    +0.000 A 
ATOM     22  C   UNL     1      48.572   6.229  15.453  0.00  0.00    +0.000 A 
BRANCH  22  23
ATOM     23  C   UNL     1      49.286   5.912  16.730  0.00  0.00    +0.000 C 
ATOM     24  N   UNL     1      48.759   6.413  17.891  0.00  0.00    +0.000 N 
ATOM     25  O   UNL     1      50.299   5.224  16.773  0.00  0.00    +0.000 OA
ATOM     26  H   UNL     1      47.836   6.816  17.953  0.00  0.00    +0.000 HD
ATOM     27  H   UNL     1      49.214   6.130  18.744  0.00  0.00    +0.000 HD
ENDBRANCH  22  23
ENDBRANCH  15  19
ENDBRANCH   1  15
TORSDOF 5
ENDMDL
MODEL 7
REMARK VINA RESULT:    -7.481      3.746      7.487
REMARK INTER + INTRA:         -10.508
REMARK INTER:                  -9.736
REMARK INTRA:                  -0.772
REMARK UNBOUND:                -0.840
REMARK  Name = 
REMARK  6 active torsions:
REMARK  status: ('A' for Active; 'I' for Inactive)
REMARK    1  A    between atoms: C_1  and  C_2
REMARK    2  A    between atoms: C_4  and  O_5
REMARK    3  A    between atoms: O_5  and  C_6
REMARK    4  A    between atoms: C_6  and  C_7
REMARK    5  A    between atoms: C_11  and  C_12
REMARK    6  A    between atoms: C_22  and  C_23
REMARK                            x       y       z     vdW  Elec       q    Type
REMARK                         _______ _______ _______ _____ _____    ______ ____
ROOT
ATOM      1  C   UNL     1      44.771   6.913  11.612  0.00  0.00    +0.000 C 
ENDROOT
BRANCH   1   2
ATOM      2  C   UNL     1      44.537   5.487  11.153  0.00  0.00    +0.000 A 
ATOM      3  C   UNL     1      43.669   4.687  11.911  0.00  0.00    +0.000 A 
ATOM      4  C   UNL     1      43.338   3.403  11.490  0.00  0.00    +0.000 A 
ATOM      5  C   UNL     1      43.914   2.883  10.333  0.00  0.00    +0.000 A 
ATOM      6  C   UNL     1      44.883   3.599   9.609  0.00  0.00    +0.000 A 
ATOM      7  C   UNL     1      45.164   4.920  10.028  0.00  0.00    +0.000 A 
BRANCH   6   8
ATOM      8  C   UNL     1      45.631   2.955   8.506  0.00  0.00    +0.000 A 
ATOM      9  C   UNL     1      46.140   3.662   7.411  0.00  0.00    +0.000 A 
ATOM     10  N   UNL     1      46.905   3.128   6.421  0.00  0.00    +0.000 NA
ATOM     11  C   UNL     1      47.179   1.809   6.517  0.00  0.00    +0.000 A 
ATOM     12  C   UNL     1      46.704   1.009   7.536  0.00  0.00    +0.000 A 
ATOM     13  F   UNL     1      47.004  -0.295   7.581  0.00  0.00    +0.000 F 
ATOM     14  C   UNL     1      45.925   1.581   8.533  0.00  0.00    +0.000 A 
ENDBRANCH   6   8
ENDBRANCH   1   2
BRANCH   1  15
ATOM     15  O   UNL     1      45.749   7.022  12.651  0.00  0.00    +0.000 OA
BRANCH  15  19
ATOM     16  C   UNL     1      50.465   7.753  11.252  0.00  0.00    +0.000 C 
ATOM     17  C   UNL     1      49.137   8.305  11.697  0.00  0.00    +0.000 A 
ATOM     18  C   UNL     1      48.109   7.388  12.024  0.00  0.00    +0.000 A 
ATOM     19  C   UNL     1      46.831   7.825  12.383  0.00  0.00    +0.000 A 
ATOM     20  C   UNL     1      46.594   9.196  12.472  0.00  0.00    +0.000 A 
ATOM     21  C   UNL     1      47.602  10.118  12.170  0.00  0.00    +0.000 A 
ATOM     22  C   UNL     1      48.878   9.686  11.771  0.00  0.00    +0.000 A 
BRANCH  22  23
ATOM     23  C   UNL     1      49.913  10.692  11.377  0.00  0.00    +0.000 C 
ATOM     24  N   UNL     1      50.755  11.150  12.356  0.00  0.00    +0.000 N 
ATOM     25  O   UNL     1      50.040  11.103  10.229  0.00  0.00    +0.000 OA
ATOM     26  H   UNL     1      50.836  10.719  13.265  0.00  0.00    +0.000 HD
ATOM     27  H   UNL     1      51.489  11.772  12.057  0.00  0.00    +0.000 HD
ENDBRANCH  22  23
ENDBRANCH  15  19
ENDBRANCH   1  15
TORSDOF 5
ENDMDL
MODEL 8
REMARK VINA RESULT:    -7.462      3.323      7.683
REMARK INTER + INTRA:         -10.483
REMARK INTER:                  -9.920
REMARK INTRA:                  -0.562
REMARK UNBOUND:                -0.840
REMARK  Name = 
REMARK  6 active torsions:
REMARK  status: ('A' for Active; 'I' for Inactive)
REMARK    1  A    between atoms: C_1  and  C_2
REMARK    2  A    between atoms: C_4  and  O_5
REMARK    3  A    between atoms: O_5  and  C_6
REMARK    4  A    between atoms: C_6  and  C_7
REMARK    5  A    between atoms: C_11  and  C_12
REMARK    6  A    between atoms: C_22  and  C_23
REMARK                            x       y       z     vdW  Elec       q    Type
REMARK                         _______ _______ _______ _____ _____    ______ ____
ROOT
ATOM      1  C   UNL     1      44.369   6.589  11.425  0.00  0.00    +0.000 C 
ENDROOT
BRANCH   1   2
ATOM      2  C   UNL     1      44.327   5.136  10.991  0.00  0.00    +0.000 A 
ATOM      3  C   UNL     1      43.586   4.238  11.773  0.00  0.00    +0.000 A 
ATOM      4  C   UNL     1      43.429   2.914  11.375  0.00  0.00    +0.000 A 
ATOM      5  C   UNL     1      44.056   2.458  10.218  0.00  0.00    +0.000 A 
ATOM      6  C   UNL     1      44.909   3.289   9.469  0.00  0.00    +0.000 A 
ATOM      7  C   UNL     1      45.011   4.642   9.865  0.00  0.00    +0.000 A 
BRANCH   6   8
ATOM      8  C   UNL     1      45.723   2.735   8.365  0.00  0.00    +0.000 A 
ATOM      9  C   UNL     1      46.199   1.419   8.351  0.00  0.00    +0.000 A 
ATOM     10  N   UNL     1      46.875   0.841   7.321  0.00  0.00    +0.000 NA
ATOM     11  C   UNL     1      47.101   1.617   6.238  0.00  0.00    +0.000 A 
ATOM     12  C   UNL     1      46.704   2.936   6.156  0.00  0.00    +0.000 A 
ATOM     13  F   UNL     1      46.957   3.661   5.060  0.00  0.00    +0.000 F 
ATOM     14  C   UNL     1      46.016   3.500   7.222  0.00  0.00    +0.000 A 
ENDBRANCH   6   8
ENDBRANCH   1   2
BRANCH   1  15
ATOM     15  O   UNL     1      45.647   7.202  11.229  0.00  0.00    +0.000 OA
BRANCH  15  19
ATOM     16  C   UNL     1      48.595   9.313  14.633  0.00  0.00    +0.000 C 
ATOM     17  C   UNL     1      47.985   8.079  14.020  0.00  0.00    +0.000 A 
ATOM     18  C   UNL     1      47.166   8.237  12.878  0.00  0.00    +0.000 A 
ATOM     19  C   UNL     1      46.514   7.148  12.293  0.00  0.00    +0.000 A 
ATOM     20  C   UNL     1      46.731   5.877  12.822  0.00  0.00    +0.000 A 
ATOM     21  C   UNL     1      47.553   5.698  13.942  0.00  0.00    +0.000 A 
ATOM     22  C   UNL     1      48.180   6.793  14.557  0.00  0.00    +0.000 A 
BRANCH  22  23
ATOM     23  C   UNL     1      48.988   6.586  15.800  0.00  0.00    +0.000 C 
ATOM     24  N   UNL     1      48.320   6.586  16.996  0.00  0.00    +0.000 N 
ATOM     25  O   UNL     1      50.200   6.408  15.784  0.00  0.00    +0.000 OA
ATOM     26  H   UNL     1      47.315   6.532  17.071  0.00  0.00    +0.000 HD
ATOM     27  H   UNL     1      48.871   6.375  17.813  0.00  0.00    +0.000 HD
ENDBRANCH  22  23
ENDBRANCH  15  19
ENDBRANCH   1  15
TORSDOF 5
ENDMDL
MODEL 9
REMARK VINA RESULT:    -7.427      3.671      7.559
REMARK INTER + INTRA:         -10.438
REMARK INTER:                  -9.568
REMARK INTRA:                  -0.870
REMARK UNBOUND:                -0.840
REMARK  Name = 
REMARK  6 active torsions:
REMARK  status: ('A' for Active; 'I' for Inactive)
REMARK    1  A    between atoms: C_1  and  C_2
REMARK    2  A    between atoms: C_4  and  O_5
REMARK    3  A    between atoms: O_5  and  C_6
REMARK    4  A    between atoms: C_6  and  C_7
REMARK    5  A    between atoms: C_11  and  C_12
REMARK    6  A    between atoms: C_22  and  C_23
REMARK                            x       y       z     vdW  Elec       q    Type
REMARK                         _______ _______ _______ _____ _____    ______ ____
ROOT
ATOM      1  C   UNL     1      44.468   6.787  12.410  0.00  0.00    +0.000 C 
ENDROOT
BRANCH   1   2
ATOM      2  C   UNL     1      44.345   5.382  11.850  0.00  0.00    +0.000 A 
ATOM      3  C   UNL     1      43.650   4.431  12.610  0.00  0.00    +0.000 A 
ATOM      4  C   UNL     1      43.420   3.154  12.109  0.00  0.00    +0.000 A 
ATOM      5  C   UNL     1      43.929   2.795  10.863  0.00  0.00    +0.000 A 
ATOM      6  C   UNL     1      44.737   3.674  10.120  0.00  0.00    +0.000 A 
ATOM      7  C   UNL     1      44.913   4.981  10.627  0.00  0.00    +0.000 A 
BRANCH   6   8
ATOM      8  C   UNL     1      45.435   3.208   8.901  0.00  0.00    +0.000 A 
ATOM      9  C   UNL     1      45.843   4.070   7.877  0.00  0.00    +0.000 A 
ATOM     10  N   UNL     1      46.562   3.701   6.782  0.00  0.00    +0.000 NA
ATOM     11  C   UNL     1      46.893   2.394   6.692  0.00  0.00    +0.000 A 
ATOM     12  C   UNL     1      46.517   1.452   7.626  0.00  0.00    +0.000 A 
ATOM     13  F   UNL     1      46.869   0.167   7.486  0.00  0.00    +0.000 F 
ATOM     14  C   UNL     1      45.783   1.857   8.734  0.00  0.00    +0.000 A 
ENDBRANCH   6   8
ENDBRANCH   1   2
BRANCH   1  15
ATOM     15  O   UNL     1      45.531   7.542  11.819  0.00  0.00    +0.000 OA
BRANCH  15  19
ATOM     16  C   UNL     1      48.275   9.228  15.608  0.00  0.00    +0.000 C 
ATOM     17  C   UNL     1      48.138   8.372  14.377  0.00  0.00    +0.000 A 
ATOM     18  C   UNL     1      46.920   8.428  13.658  0.00  0.00    +0.000 A 
ATOM     19  C   UNL     1      46.696   7.615  12.542  0.00  0.00    +0.000 A 
ATOM     20  C   UNL     1      47.723   6.780  12.107  0.00  0.00    +0.000 A 
ATOM     21  C   UNL     1      48.942   6.724  12.794  0.00  0.00    +0.000 A 
ATOM     22  C   UNL     1      49.160   7.509  13.938  0.00  0.00    +0.000 A 
BRANCH  22  23
ATOM     23  C   UNL     1      50.440   7.373  14.700  0.00  0.00    +0.000 C 
ATOM     24  N   UNL     1      51.518   8.094  14.260  0.00  0.00    +0.000 N 
ATOM     25  O   UNL     1      50.552   6.662  15.692  0.00  0.00    +0.000 OA
ATOM     26  H   UNL     1      51.450   8.836  13.580  0.00  0.00    +0.000 HD
ATOM     27  H   UNL     1      52.350   8.042  14.827  0.00  0.00    +0.000 HD
ENDBRANCH  22  23
ENDBRANCH  15  19
ENDBRANCH   1  15
TORSDOF 5
ENDMDL
