MODEL 1
REMARK VINA RESULT:    -7.262      0.000      0.000
REMARK INTER + INTRA:          -9.782
REMARK INTER:                  -9.385
REMARK INTRA:                  -0.398
REMARK UNBOUND:                -0.398
REMARK  Name = 
REMARK  6 active torsions:
REMARK  status: ('A' for Active; 'I' for Inactive)
REMARK    1  A    between atoms: N_1  and  C_2
REMARK    2  A    between atoms: C_2  and  C_3
REMARK    3  A    between atoms: C_3  and  C_4
REMARK    4  A    between atoms: C_7  and  O_8
REMARK    5  A    between atoms: O_8  and  C_9
REMARK    6  A    between atoms: C_14  and  N_15
REMARK                            x       y       z     vdW  Elec       q    Type
REMARK                         _______ _______ _______ _____ _____    ______ ____
ROOT
ATOM      1  O   UNL     1      44.279   4.850  11.209  0.00  0.00    +0.000 OA
ENDROOT
BRANCH   1   2
ATOM      2  C   UNL     1      45.080   5.622  11.953  0.00  0.00    +0.000 A 
ATOM      3  C   UNL     1      46.104   5.368  12.847  0.00  0.00    +0.000 A 
ATOM      4  N   UNL     1      46.605   6.522  13.392  0.00  0.00    +0.000 NA
ATOM      5  C   UNL     1      45.934   7.489  12.804  0.00  0.00    +0.000 A 
ATOM      6  C   UNL     1      46.039   8.892  12.945  0.00  0.00    +0.000 A 
ATOM      7  C   UNL     1      45.273   9.707  12.206  0.00  0.00    +0.000 A 
ATOM      8  C   UNL     1      44.312   9.013  11.278  0.00  0.00    +0.000 A 
ATOM      9  N   UNL     1      44.154   7.736  11.120  0.00  0.00    +0.000 NA
ATOM     10  N   UNL     1      45.001   6.999  11.902  0.00  0.00    +0.000 N 
BRANCH   7  11
ATOM     11  N   UNL     1      45.301  11.084  12.228  0.00  0.00    +0.000 N 
ATOM     12  H   UNL     1      44.757  11.500  12.981  0.00  0.00    +0.000 HD
ATOM     13  H   UNL     1      45.136  11.529  11.329  0.00  0.00    +0.000 HD
ENDBRANCH   7  11
ENDBRANCH   1   2
BRANCH   1  17
ATOM     14  C   UNL     1      45.816   2.847   7.872  0.00  0.00    +0.000 A 
ATOM     15  C   UNL     1      45.070   2.141   8.825  0.00  0.00    +0.000 A 
ATOM     16  C   UNL     1      44.540   2.796   9.937  0.00  0.00    +0.000 A 
ATOM     17  C   UNL     1      44.774   4.161  10.126  0.00  0.00    +0.000 A 
ATOM     18  C   UNL     1      45.475   4.882   9.161  0.00  0.00    +0.000 A 
ATOM     19  C   UNL     1      45.995   4.227   8.038  0.00  0.00    +0.000 A 
BRANCH  14  20
ATOM     20  C   UNL     1      46.401   2.125   6.682  0.00  0.00    +0.000 C 
BRANCH  20  21
ATOM     21  C   UNL     1      47.878   1.772   6.880  0.00  0.00    +0.000 C 
BRANCH  21  22
ATOM     22  N   UNL     1      48.598   1.794   5.606  0.00  0.00    +0.000 NA
ATOM     23  H   UNL     1      49.596   1.694   5.782  0.00  0.00    +0.000 HD
ATOM     24  H   UNL     1      48.478   2.704   5.162  0.00  0.00    +0.000 HD
ENDBRANCH  21  22
ENDBRANCH  20  21
ENDBRANCH  14  20
ENDBRANCH   1  17
TORSDOF 6
ENDMDL
MODEL 2
REMARK VINA RESULT:    -6.900      1.145      1.443
REMARK INTER + INTRA:          -9.315
REMARK INTER:                  -8.903
REMARK INTRA:                  -0.412
REMARK UNBOUND:                -0.398
REMARK  Name = 
REMARK  6 active torsions:
REMARK  status: ('A' for Active; 'I' for Inactive)
REMARK    1  A    between atoms: N_1  and  C_2
REMARK    2  A    between atoms: C_2  and  C_3
REMARK    3  A    between atoms: C_3  and  C_4
REMARK    4  A    between atoms: C_7  and  O_8
REMARK    5  A    between atoms: O_8  and  C_9
REMARK    6  A    between atoms: C_14  and  N_15
REMARK                            x       y       z     vdW  Elec       q    Type
REMARK                         _______ _______ _______ _____ _____    ______ ____
ROOT
ATOM      1  O   UNL     1      44.764   4.634  11.458  0.00  0.00    +0.000 OA
ENDROOT
BRANCH   1   2
ATOM      2  C   UNL     1      45.693   4.950  12.368  0.00  0.00    +0.000 A 
ATOM      3  C   UNL     1      46.463   4.219  13.253  0.00  0.00    +0.000 A 
ATOM      4  N   UNL     1      47.264   5.024  14.021  0.00  0.00    +0.000 NA
ATOM      5  C   UNL     1      47.033   6.242  13.583  0.00  0.00    +0.000 A 
ATOM      6  C   UNL     1      47.594   7.478  13.977  0.00  0.00    +0.000 A 
ATOM      7  C   UNL     1      47.239   8.613  13.359  0.00  0.00    +0.000 A 
ATOM      8  C   UNL     1      46.208   8.454  12.273  0.00  0.00    +0.000 A 
ATOM      9  N   UNL     1      45.643   7.355  11.881  0.00  0.00    +0.000 NA
ATOM     10  N   UNL     1      46.095   6.257  12.561  0.00  0.00    +0.000 N 
BRANCH   7  11
ATOM     11  N   UNL     1      47.732   9.870  13.628  0.00  0.00    +0.000 N 
ATOM     12  H   UNL     1      48.726   9.979  13.434  0.00  0.00    +0.000 HD
ATOM     13  H   UNL     1      47.463  10.251  14.532  0.00  0.00    +0.000 HD
ENDBRANCH   7  11
ENDBRANCH   1   2
BRANCH   1  17
ATOM     14  C   UNL     1      45.876   3.031   7.756  0.00  0.00    +0.000 A 
ATOM     15  C   UNL     1      45.295   2.204   8.725  0.00  0.00    +0.000 A 
ATOM     16  C   UNL     1      44.907   2.726   9.960  0.00  0.00    +0.000 A 
ATOM     17  C   UNL     1      45.123   4.075  10.252  0.00  0.00    +0.000 A 
ATOM     18  C   UNL     1      45.659   4.916   9.278  0.00  0.00    +0.000 A 
ATOM     19  C   UNL     1      46.034   4.395   8.034  0.00  0.00    +0.000 A 
BRANCH  14  20
ATOM     20  C   UNL     1      46.310   2.454   6.429  0.00  0.00    +0.000 C 
BRANCH  20  21
ATOM     21  C   UNL     1      47.482   1.478   6.571  0.00  0.00    +0.000 C 
BRANCH  21  22
ATOM     22  N   UNL     1      48.612   1.892   5.738  0.00  0.00    +0.000 NA
ATOM     23  H   UNL     1      48.975   2.780   6.082  0.00  0.00    +0.000 HD
ATOM     24  H   UNL     1      48.289   2.066   4.787  0.00  0.00    +0.000 HD
ENDBRANCH  21  22
ENDBRANCH  20  21
ENDBRANCH  14  20
ENDBRANCH   1  17
TORSDOF 6
ENDMDL
MODEL 3
REMARK VINA RESULT:    -6.886      1.181      2.678
REMARK INTER + INTRA:          -9.296
REMARK INTER:                  -8.977
REMARK INTRA:                  -0.319
REMARK UNBOUND:                -0.398
REMARK  Name = 
REMARK  6 active torsions:
REMARK  status: ('A' for Active; 'I' for Inactive)
REMARK    1  A    between atoms: N_1  and  C_2
REMARK    2  A    between atoms: C_2  and  C_3
REMARK    3  A    between atoms: C_3  and  C_4
REMARK    4  A    between atoms: C_7  and  O_8
REMARK    5  A    between atoms: O_8  and  C_9
REMARK    6  A    between atoms: C_14  and  N_15
REMARK                            x       y       z     vdW  Elec       q    Type
REMARK                         _______ _______ _______ _____ _____    ______ ____
ROOT
ATOM      1  O   UNL     1      44.251   5.038  11.155  0.00  0.00    +0.000 OA
ENDROOT
BRANCH   1   2
ATOM      2  C   UNL     1      44.749   6.206  11.578  0.00  0.00    +0.000 A 
ATOM      3  C   UNL     1      44.403   7.530  11.381  0.00  0.00    +0.000 A 
ATOM      4  N   UNL     1      45.267   8.384  12.016  0.00  0.00    +0.000 NA
ATOM      5  C   UNL     1      46.113   7.598  12.646  0.00  0.00    +0.000 A 
ATOM      6  C   UNL     1      47.203   7.916  13.488  0.00  0.00    +0.000 A 
ATOM      7  C   UNL     1      47.919   6.943  14.068  0.00  0.00    +0.000 A 
ATOM      8  C   UNL     1      47.487   5.541  13.726  0.00  0.00    +0.000 A 
ATOM      9  N   UNL     1      46.512   5.187  12.948  0.00  0.00    +0.000 NA
ATOM     10  N   UNL     1      45.835   6.256  12.429  0.00  0.00    +0.000 N 
BRANCH   7  11
ATOM     11  N   UNL     1      48.980   7.121  14.927  0.00  0.00    +0.000 N 
ATOM     12  H   UNL     1      49.139   8.089  15.199  0.00  0.00    +0.000 HD
ATOM     13  H   UNL     1      49.835   6.642  14.655  0.00  0.00    +0.000 HD
ENDBRANCH   7  11
ENDBRANCH   1   2
BRANCH   1  17
ATOM     14  C   UNL     1      45.853   3.000   7.870  0.00  0.00    +0.000 A 
ATOM     15  C   UNL     1      46.116   4.365   8.037  0.00  0.00    +0.000 A 
ATOM     16  C   UNL     1      45.600   5.057   9.133  0.00  0.00    +0.000 A 
ATOM     17  C   UNL     1      44.790   4.398  10.061  0.00  0.00    +0.000 A 
ATOM     18  C   UNL     1      44.559   3.030   9.929  0.00  0.00    +0.000 A 
ATOM     19  C   UNL     1      45.089   2.333   8.837  0.00  0.00    +0.000 A 
BRANCH  14  20
ATOM     20  C   UNL     1      46.401   2.264   6.670  0.00  0.00    +0.000 C 
BRANCH  20  21
ATOM     21  C   UNL     1      47.843   1.791   6.882  0.00  0.00    +0.000 C 
BRANCH  21  22
ATOM     22  N   UNL     1      48.590   1.808   5.624  0.00  0.00    +0.000 NA
ATOM     23  H   UNL     1      49.487   2.266   5.772  0.00  0.00    +0.000 HD
ATOM     24  H   UNL     1      48.092   2.374   4.938  0.00  0.00    +0.000 HD
ENDBRANCH  21  22
ENDBRANCH  20  21
ENDBRANCH  14  20
ENDBRANCH   1  17
TORSDOF 6
ENDMDL
MODEL 4
REMARK VINA RESULT:    -6.791      2.358      7.048
REMARK INTER + INTRA:          -9.173
REMARK INTER:                  -8.791
REMARK INTRA:                  -0.383
REMARK UNBOUND:                -0.398
REMARK  Name = 
REMARK  6 active torsions:
REMARK  status: ('A' for Active; 'I' for Inactive)
REMARK    1  A    between atoms: N_1  and  C_2
REMARK    2  A    between atoms: C_2  and  C_3
REMARK    3  A    between atoms: C_3  and  C_4
REMARK    4  A    between atoms: C_7  and  O_8
REMARK    5  A    between atoms: O_8  and  C_9
REMARK    6  A    between atoms: C_14  and  N_15
REMARK                            x       y       z     vdW  Elec       q    Type
REMARK                         _______ _______ _______ _____ _____    ______ ____
ROOT
ATOM      1  O   UNL     1      44.522   4.552  10.071  0.00  0.00    +0.000 OA
ENDROOT
BRANCH   1   2
ATOM      2  C   UNL     1      44.850   3.382   9.511  0.00  0.00    +0.000 A 
ATOM      3  C   UNL     1      44.444   2.074   9.701  0.00  0.00    +0.000 A 
ATOM      4  N   UNL     1      45.119   1.204   8.884  0.00  0.00    +0.000 NA
ATOM      5  C   UNL     1      45.902   1.969   8.155  0.00  0.00    +0.000 A 
ATOM      6  C   UNL     1      46.806   1.631   7.122  0.00  0.00    +0.000 A 
ATOM      7  C   UNL     1      47.484   2.589   6.473  0.00  0.00    +0.000 A 
ATOM      8  C   UNL     1      47.224   3.992   6.953  0.00  0.00    +0.000 A 
ATOM      9  N   UNL     1      46.426   4.363   7.905  0.00  0.00    +0.000 NA
ATOM     10  N   UNL     1      45.768   3.311   8.482  0.00  0.00    +0.000 N 
BRANCH   7  11
ATOM     11  N   UNL     1      48.366   2.394   5.435  0.00  0.00    +0.000 N 
ATOM     12  H   UNL     1      47.991   2.630   4.518  0.00  0.00    +0.000 HD
ATOM     13  H   UNL     1      48.848   1.498   5.445  0.00  0.00    +0.000 HD
ENDBRANCH   7  11
ENDBRANCH   1   2
BRANCH   1  17
ATOM     14  C   UNL     1      46.904   6.185  13.099  0.00  0.00    +0.000 A 
ATOM     15  C   UNL     1      46.777   6.856  11.876  0.00  0.00    +0.000 A 
ATOM     16  C   UNL     1      45.976   6.332  10.861  0.00  0.00    +0.000 A 
ATOM     17  C   UNL     1      45.316   5.114  11.045  0.00  0.00    +0.000 A 
ATOM     18  C   UNL     1      45.400   4.461  12.274  0.00  0.00    +0.000 A 
ATOM     19  C   UNL     1      46.191   4.995  13.297  0.00  0.00    +0.000 A 
BRANCH  14  20
ATOM     20  C   UNL     1      47.788   6.751  14.185  0.00  0.00    +0.000 C 
BRANCH  20  21
ATOM     21  C   UNL     1      48.074   8.243  13.987  0.00  0.00    +0.000 C 
BRANCH  21  22
ATOM     22  N   UNL     1      47.285   9.056  14.914  0.00  0.00    +0.000 NA
ATOM     23  H   UNL     1      46.889   8.453  15.634  0.00  0.00    +0.000 HD
ATOM     24  H   UNL     1      46.494   9.466  14.420  0.00  0.00    +0.000 HD
ENDBRANCH  21  22
ENDBRANCH  20  21
ENDBRANCH  14  20
ENDBRANCH   1  17
TORSDOF 6
ENDMDL
MODEL 5
REMARK VINA RESULT:    -6.327      2.409      6.695
REMARK INTER + INTRA:          -8.575
REMARK INTER:                  -8.286
REMARK INTRA:                  -0.288
REMARK UNBOUND:                -0.398
REMARK  Name = 
REMARK  6 active torsions:
REMARK  status: ('A' for Active; 'I' for Inactive)
REMARK    1  A    between atoms: N_1  and  C_2
REMARK    2  A    between atoms: C_2  and  C_3
REMARK    3  A    between atoms: C_3  and  C_4
REMARK    4  A    between atoms: C_7  and  O_8
REMARK    5  A    between atoms: O_8  and  C_9
REMARK    6  A    between atoms: C_14  and  N_15
REMARK                            x       y       z     vdW  Elec       q    Type
REMARK                         _______ _______ _______ _____ _____    ______ ____
ROOT
ATOM      1  O   UNL     1      44.207   6.091  10.948  0.00  0.00    +0.000 OA
ENDROOT
BRANCH   1   2
ATOM      2  C   UNL     1      44.146   4.781  10.678  0.00  0.00    +0.000 A 
ATOM      3  C   UNL     1      43.440   3.719  11.213  0.00  0.00    +0.000 A 
ATOM      4  N   UNL     1      43.756   2.534  10.599  0.00  0.00    +0.000 NA
ATOM      5  C   UNL     1      44.613   2.864   9.656  0.00  0.00    +0.000 A 
ATOM      6  C   UNL     1      45.258   2.062   8.687  0.00  0.00    +0.000 A 
ATOM      7  C   UNL     1      46.074   2.619   7.781  0.00  0.00    +0.000 A 
ATOM      8  C   UNL     1      46.252   4.109   7.910  0.00  0.00    +0.000 A 
ATOM      9  N   UNL     1      45.706   4.892   8.787  0.00  0.00    +0.000 NA
ATOM     10  N   UNL     1      44.875   4.226   9.646  0.00  0.00    +0.000 N 
BRANCH   7  11
ATOM     11  N   UNL     1      46.737   1.955   6.772  0.00  0.00    +0.000 N 
ATOM     12  H   UNL     1      47.728   2.179   6.706  0.00  0.00    +0.000 HD
ATOM     13  H   UNL     1      46.268   1.971   5.870  0.00  0.00    +0.000 HD
ENDBRANCH   7  11
ENDBRANCH   1   2
BRANCH   1  17
ATOM     14  C   UNL     1      47.179   7.727  13.397  0.00  0.00    +0.000 A 
ATOM     15  C   UNL     1      47.219   6.366  13.070  0.00  0.00    +0.000 A 
ATOM     16  C   UNL     1      46.243   5.807  12.244  0.00  0.00    +0.000 A 
ATOM     17  C   UNL     1      45.197   6.597  11.759  0.00  0.00    +0.000 A 
ATOM     18  C   UNL     1      45.173   7.961  12.042  0.00  0.00    +0.000 A 
ATOM     19  C   UNL     1      46.160   8.524  12.859  0.00  0.00    +0.000 A 
BRANCH  14  20
ATOM     20  C   UNL     1      48.229   8.319  14.307  0.00  0.00    +0.000 C 
BRANCH  20  21
ATOM     21  C   UNL     1      48.944   7.254  15.145  0.00  0.00    +0.000 C 
BRANCH  21  22
ATOM     22  N   UNL     1      50.328   7.081  14.702  0.00  0.00    +0.000 NA
ATOM     23  H   UNL     1      50.761   7.996  14.590  0.00  0.00    +0.000 HD
ATOM     24  H   UNL     1      50.340   6.646  13.781  0.00  0.00    +0.000 HD
ENDBRANCH  21  22
ENDBRANCH  20  21
ENDBRANCH  14  20
ENDBRANCH   1  17
TORSDOF 6
ENDMDL
MODEL 6
REMARK VINA RESULT:    -5.897      4.198      6.440
REMARK INTER + INTRA:          -8.019
REMARK INTER:                  -7.632
REMARK INTRA:                  -0.387
REMARK UNBOUND:                -0.398
REMARK  Name = 
REMARK  6 active torsions:
REMARK  status: ('A' for Active; 'I' for Inactive)
REMARK    1  A    between atoms: N_1  and  C_2
REMARK    2  A    between atoms: C_2  and  C_3
REMARK    3  A    between atoms: C_3  and  C_4
REMARK    4  A    between atoms: C_7  and  O_8
REMARK    5  A    between atoms: O_8  and  C_9
REMARK    6  A    between atoms: C_14  and  N_15
REMARK                            x       y       z     vdW  Elec       q    Type
REMARK                         _______ _______ _______ _____ _____    ______ ____
ROOT
ATOM      1  O   UNL     1      48.682   5.983  14.149  0.00  0.00    +0.000 OA
ENDROOT
BRANCH   1   2
ATOM      2  C   UNL     1      48.704   6.477  15.392  0.00  0.00    +0.000 A 
ATOM      3  C   UNL     1      48.723   7.753  15.922  0.00  0.00    +0.000 A 
ATOM      4  N   UNL     1      48.778   7.738  17.292  0.00  0.00    +0.000 NA
ATOM      5  C   UNL     1      48.741   6.463  17.614  0.00  0.00    +0.000 A 
ATOM      6  C   UNL     1      48.739   5.841  18.883  0.00  0.00    +0.000 A 
ATOM      7  C   UNL     1      48.653   4.507  18.985  0.00  0.00    +0.000 A 
ATOM      8  C   UNL     1      48.594   3.769  17.674  0.00  0.00    +0.000 A 
ATOM      9  N   UNL     1      48.612   4.279  16.482  0.00  0.00    +0.000 NA
ATOM     10  N   UNL     1      48.677   5.646  16.495  0.00  0.00    +0.000 N 
BRANCH   7  11
ATOM     11  N   UNL     1      48.612   3.785  20.157  0.00  0.00    +0.000 N 
ATOM     12  H   UNL     1      49.311   3.047  20.217  0.00  0.00    +0.000 HD
ATOM     13  H   UNL     1      47.685   3.473  20.435  0.00  0.00    +0.000 HD
ENDBRANCH   7  11
ENDBRANCH   1   2
BRANCH   1  17
ATOM     14  C   UNL     1      45.129   5.834  11.942  0.00  0.00    +0.000 A 
ATOM     15  C   UNL     1      45.286   5.011  13.065  0.00  0.00    +0.000 A 
ATOM     16  C   UNL     1      46.459   5.058  13.819  0.00  0.00    +0.000 A 
ATOM     17  C   UNL     1      47.503   5.907  13.442  0.00  0.00    +0.000 A 
ATOM     18  C   UNL     1      47.340   6.762  12.353  0.00  0.00    +0.000 A 
ATOM     19  C   UNL     1      46.157   6.725  11.606  0.00  0.00    +0.000 A 
BRANCH  14  20
ATOM     20  C   UNL     1      43.863   5.763  11.122  0.00  0.00    +0.000 C 
BRANCH  20  21
ATOM     21  C   UNL     1      43.687   4.404  10.435  0.00  0.00    +0.000 C 
BRANCH  21  22
ATOM     22  N   UNL     1      43.836   4.528   8.984  0.00  0.00    +0.000 NA
ATOM     23  H   UNL     1      44.342   3.718   8.629  0.00  0.00    +0.000 HD
ATOM     24  H   UNL     1      44.412   5.340   8.768  0.00  0.00    +0.000 HD
ENDBRANCH  21  22
ENDBRANCH  20  21
ENDBRANCH  14  20
ENDBRANCH   1  17
TORSDOF 6
ENDMDL
MODEL 7
REMARK VINA RESULT:    -5.870      4.569      8.013
REMARK INTER + INTRA:          -7.984
REMARK INTER:                  -8.075
REMARK INTRA:                   0.091
REMARK UNBOUND:                -0.398
REMARK  Name = 
REMARK  6 active torsions:
REMARK  status: ('A' for Active; 'I' for Inactive)
REMARK    1  A    between atoms: N_1  and  C_2
REMARK    2  A    between atoms: C_2  and  C_3
REMARK    3  A    between atoms: C_3  and  C_4
REMARK    4  A    between atoms: C_7  and  O_8
REMARK    5  A    between atoms: O_8  and  C_9
REMARK    6  A    between atoms: C_14  and  N_15
REMARK                            x       y       z     vdW  Elec       q    Type
REMARK                         _______ _______ _______ _____ _____    ______ ____
ROOT
ATOM      1  O   UNL     1      46.566   3.828  14.937  0.00  0.00    +0.000 OA
ENDROOT
BRANCH   1   2
ATOM      2  C   UNL     1      46.610   4.665  13.894  0.00  0.00    +0.000 A 
ATOM      3  C   UNL     1      47.307   5.828  13.621  0.00  0.00    +0.000 A 
ATOM      4  N   UNL     1      46.974   6.349  12.397  0.00  0.00    +0.000 NA
ATOM      5  C   UNL     1      46.115   5.490  11.891  0.00  0.00    +0.000 A 
ATOM      6  C   UNL     1      45.455   5.488  10.641  0.00  0.00    +0.000 A 
ATOM      7  C   UNL     1      44.639   4.477  10.306  0.00  0.00    +0.000 A 
ATOM      8  C   UNL     1      44.479   3.411  11.358  0.00  0.00    +0.000 A 
ATOM      9  N   UNL     1      45.040   3.367  12.526  0.00  0.00    +0.000 NA
ATOM     10  N   UNL     1      45.868   4.432  12.753  0.00  0.00    +0.000 N 
BRANCH   7  11
ATOM     11  N   UNL     1      43.964   4.343   9.115  0.00  0.00    +0.000 N 
ATOM     12  H   UNL     1      44.131   3.460   8.637  0.00  0.00    +0.000 HD
ATOM     13  H   UNL     1      44.029   5.146   8.493  0.00  0.00    +0.000 HD
ENDBRANCH   7  11
ENDBRANCH   1   2
BRANCH   1  17
ATOM     14  C   UNL     1      49.286   4.278  18.084  0.00  0.00    +0.000 A 
ATOM     15  C   UNL     1      49.197   3.052  17.413  0.00  0.00    +0.000 A 
ATOM     16  C   UNL     1      48.304   2.889  16.353  0.00  0.00    +0.000 A 
ATOM     17  C   UNL     1      47.468   3.941  15.970  0.00  0.00    +0.000 A 
ATOM     18  C   UNL     1      47.581   5.179  16.602  0.00  0.00    +0.000 A 
ATOM     19  C   UNL     1      48.487   5.347  17.655  0.00  0.00    +0.000 A 
BRANCH  14  20
ATOM     20  C   UNL     1      50.243   4.439  19.242  0.00  0.00    +0.000 C 
BRANCH  20  21
ATOM     21  C   UNL     1      49.538   4.899  20.523  0.00  0.00    +0.000 C 
BRANCH  21  22
ATOM     22  N   UNL     1      48.481   3.961  20.905  0.00  0.00    +0.000 NA
ATOM     23  H   UNL     1      48.620   3.080  20.411  0.00  0.00    +0.000 HD
ATOM     24  H   UNL     1      47.578   4.320  20.597  0.00  0.00    +0.000 HD
ENDBRANCH  21  22
ENDBRANCH  20  21
ENDBRANCH  14  20
ENDBRANCH   1  17
TORSDOF 6
ENDMDL
MODEL 8
REMARK VINA RESULT:    -5.644      4.916      7.455
REMARK INTER + INTRA:          -7.692
REMARK INTER:                  -7.454
REMARK INTRA:                  -0.238
REMARK UNBOUND:                -0.398
REMARK  Name = 
REMARK  6 active torsions:
REMARK  status: ('A' for Active; 'I' for Inactive)
REMARK    1  A    between atoms: N_1  and  C_2
REMARK    2  A    between atoms: C_2  and  C_3
REMARK    3  A    between atoms: C_3  and  C_4
REMARK    4  A    between atoms: C_7  and  O_8
REMARK    5  A    between atoms: O_8  and  C_9
REMARK    6  A    between atoms: C_14  and  N_15
REMARK                            x       y       z     vdW  Elec       q    Type
REMARK                         _______ _______ _______ _____ _____    ______ ____
ROOT
ATOM      1  O   UNL     1      46.726   4.364  15.582  0.00  0.00    +0.000 OA
ENDROOT
BRANCH   1   2
ATOM      2  C   UNL     1      46.804   5.034  14.426  0.00  0.00    +0.000 A 
ATOM      3  C   UNL     1      47.657   6.002  13.929  0.00  0.00    +0.000 A 
ATOM      4  N   UNL     1      47.292   6.409  12.672  0.00  0.00    +0.000 NA
ATOM      5  C   UNL     1      46.252   5.663  12.367  0.00  0.00    +0.000 A 
ATOM      6  C   UNL     1      45.475   5.616  11.187  0.00  0.00    +0.000 A 
ATOM      7  C   UNL     1      44.470   4.737  11.071  0.00  0.00    +0.000 A 
ATOM      8  C   UNL     1      44.240   3.866  12.279  0.00  0.00    +0.000 A 
ATOM      9  N   UNL     1      44.903   3.876  13.393  0.00  0.00    +0.000 NA
ATOM     10  N   UNL     1      45.920   4.791  13.394  0.00  0.00    +0.000 N 
BRANCH   7  11
ATOM     11  N   UNL     1      43.661   4.572   9.969  0.00  0.00    +0.000 N 
ATOM     12  H   UNL     1      43.275   5.439   9.602  0.00  0.00    +0.000 HD
ATOM     13  H   UNL     1      42.965   3.836  10.055  0.00  0.00    +0.000 HD
ENDBRANCH   7  11
ENDBRANCH   1   2
BRANCH   1  17
ATOM     14  C   UNL     1      50.181   2.837  17.382  0.00  0.00    +0.000 A 
ATOM     15  C   UNL     1      49.373   1.997  16.604  0.00  0.00    +0.000 A 
ATOM     16  C   UNL     1      48.224   2.494  15.987  0.00  0.00    +0.000 A 
ATOM     17  C   UNL     1      47.853   3.829  16.163  0.00  0.00    +0.000 A 
ATOM     18  C   UNL     1      48.675   4.684  16.897  0.00  0.00    +0.000 A 
ATOM     19  C   UNL     1      49.834   4.189  17.504  0.00  0.00    +0.000 A 
BRANCH  14  20
ATOM     20  C   UNL     1      51.412   2.286  18.061  0.00  0.00    +0.000 C 
BRANCH  20  21
ATOM     21  C   UNL     1      51.967   1.047  17.351  0.00  0.00    +0.000 C 
BRANCH  21  22
ATOM     22  N   UNL     1      52.748   0.221  18.273  0.00  0.00    +0.000 NA
ATOM     23  H   UNL     1      53.737   0.441  18.164  0.00  0.00    +0.000 HD
ATOM     24  H   UNL     1      52.646  -0.762  18.022  0.00  0.00    +0.000 HD
ENDBRANCH  21  22
ENDBRANCH  20  21
ENDBRANCH  14  20
ENDBRANCH   1  17
TORSDOF 6
ENDMDL
MODEL 9
REMARK VINA RESULT:    -5.318      4.169      6.384
REMARK INTER + INTRA:          -7.270
REMARK INTER:                  -6.961
REMARK INTRA:                  -0.309
REMARK UNBOUND:                -0.398
REMARK  Name = 
REMARK  6 active torsions:
REMARK  status: ('A' for Active; 'I' for Inactive)
REMARK    1  A    between atoms: N_1  and  C_2
REMARK    2  A    between atoms: C_2  and  C_3
REMARK    3  A    between atoms: C_3  and  C_4
REMARK    4  A    between atoms: C_7  and  O_8
REMARK    5  A    between atoms: O_8  and  C_9
REMARK    6  A    between atoms: C_14  and  N_15
REMARK                            x       y       z     vdW  Elec       q    Type
REMARK                         _______ _______ _______ _____ _____    ______ ____
ROOT
ATOM      1  O   UNL     1      47.971   4.693  14.741  0.00  0.00    +0.000 OA
ENDROOT
BRANCH   1   2
ATOM      2  C   UNL     1      47.720   4.692  16.055  0.00  0.00    +0.000 A 
ATOM      3  C   UNL     1      47.060   3.828  16.910  0.00  0.00    +0.000 A 
ATOM      4  N   UNL     1      47.043   4.297  18.198  0.00  0.00    +0.000 NA
ATOM      5  C   UNL     1      47.730   5.418  18.156  0.00  0.00    +0.000 A 
ATOM      6  C   UNL     1      48.070   6.322  19.188  0.00  0.00    +0.000 A 
ATOM      7  C   UNL     1      48.826   7.398  18.927  0.00  0.00    +0.000 A 
ATOM      8  C   UNL     1      49.233   7.558  17.486  0.00  0.00    +0.000 A 
ATOM      9  N   UNL     1      48.937   6.777  16.494  0.00  0.00    +0.000 NA
ATOM     10  N   UNL     1      48.185   5.701  16.876  0.00  0.00    +0.000 N 
BRANCH   7  11
ATOM     11  N   UNL     1      49.248   8.333  19.845  0.00  0.00    +0.000 N 
ATOM     12  H   UNL     1      49.955   7.991  20.494  0.00  0.00    +0.000 HD
ATOM     13  H   UNL     1      48.502   8.844  20.309  0.00  0.00    +0.000 HD
ENDBRANCH   7  11
ENDBRANCH   1   2
BRANCH   1  17
ATOM     14  C   UNL     1      44.853   4.911  11.959  0.00  0.00    +0.000 A 
ATOM     15  C   UNL     1      45.457   6.088  12.419  0.00  0.00    +0.000 A 
ATOM     16  C   UNL     1      46.507   6.032  13.337  0.00  0.00    +0.000 A 
ATOM     17  C   UNL     1      46.945   4.800  13.829  0.00  0.00    +0.000 A 
ATOM     18  C   UNL     1      46.381   3.621  13.343  0.00  0.00    +0.000 A 
ATOM     19  C   UNL     1      45.338   3.677  12.411  0.00  0.00    +0.000 A 
BRANCH  14  20
ATOM     20  C   UNL     1      43.705   4.983  10.979  0.00  0.00    +0.000 C 
BRANCH  20  21
ATOM     21  C   UNL     1      42.491   5.718  11.554  0.00  0.00    +0.000 C 
BRANCH  21  22
ATOM     22  N   UNL     1      42.505   7.131  11.173  0.00  0.00    +0.000 NA
ATOM     23  H   UNL     1      41.715   7.604  11.610  0.00  0.00    +0.000 HD
ATOM     24  H   UNL     1      42.367   7.215  10.167  0.00  0.00    +0.000 HD
ENDBRANCH  21  22
ENDBRANCH  20  21
ENDBRANCH  14  20
ENDBRANCH   1  17
TORSDOF 6
ENDMDL
