MODEL 1
REMARK VINA RESULT:    -8.668      0.000      0.000
REMARK INTER + INTRA:         -13.234
REMARK INTER:                 -12.215
REMARK INTRA:                  -1.018
REMARK UNBOUND:                -1.018
REMARK  Name = 
REMARK  8 active torsions:
REMARK  status: ('A' for Active; 'I' for Inactive)
REMARK    1  A    between atoms: C_1  and  C_2
REMARK    2  A    between atoms: C_5  and  C_6
REMARK    3  A    between atoms: C_6  and  O_7
REMARK    4  A    between atoms: O_7  and  C_8
REMARK    5  A    between atoms: C_8  and  C_9
REMARK    6  A    between atoms: C_12  and  C_13
REMARK    7  A    between atoms: C_13  and  N_14
REMARK    8  A    between atoms: C_15  and  C_17
REMARK                            x       y       z     vdW  Elec       q    Type
REMARK                         _______ _______ _______ _____ _____    ______ ____
ROOT
ATOM      1  C   UNL     1      44.539   4.780  11.831  0.00  0.00    +0.000 A 
ATOM      2  C   UNL     1      45.046   4.429  13.091  0.00  0.00    +0.000 A 
ATOM      3  C   UNL     1      46.162   5.085  13.621  0.00  0.00    +0.000 A 
ATOM      4  C   UNL     1      46.788   6.113  12.906  0.00  0.00    +0.000 A 
ATOM      5  C   UNL     1      46.303   6.440  11.633  0.00  0.00    +0.000 A 
ATOM      6  C   UNL     1      45.187   5.785  11.102  0.00  0.00    +0.000 A 
ENDROOT
BRANCH   1   7
ATOM      7  C   UNL     1      43.320   4.084  11.281  0.00  0.00    +0.000 C 
BRANCH   7   8
ATOM      8  O   UNL     1      43.629   3.622   9.971  0.00  0.00    +0.000 OA
BRANCH   8   9
ATOM      9  C   UNL     1      44.499   2.490   9.991  0.00  0.00    +0.000 C 
BRANCH   9  14
ATOM     10  C   UNL     1      47.963   2.299   5.381  0.00  0.00    +0.000 C 
ATOM     11  C   UNL     1      47.064   2.403   6.571  0.00  0.00    +0.000 A 
ATOM     12  C   UNL     1      46.424   3.594   6.906  0.00  0.00    +0.000 A 
ATOM     13  C   UNL     1      45.587   3.638   8.017  0.00  0.00    +0.000 A 
ATOM     14  C   UNL     1      45.394   2.480   8.770  0.00  0.00    +0.000 A 
ATOM     15  N   UNL     1      46.027   1.316   8.476  0.00  0.00    +0.000 NA
ATOM     16  C   UNL     1      46.835   1.304   7.391  0.00  0.00    +0.000 A 
ENDBRANCH   9  14
ENDBRANCH   8   9
ENDBRANCH   7   8
ENDBRANCH   1   7
BRANCH   4  17
ATOM     17  C   UNL     1      47.984   6.833  13.473  0.00  0.00    +0.000 C 
BRANCH  17  18
ATOM     18  N   UNL     1      47.920   6.891  14.910  0.00  0.00    +0.000 N 
ATOM     19  C   UNL     1      49.050   6.806  15.681  0.00  0.00    +0.000 C 
ATOM     20  O   UNL     1      50.171   6.715  15.186  0.00  0.00    +0.000 OA
ATOM     21  H   UNL     1      47.011   6.735  15.335  0.00  0.00    +0.000 HD
BRANCH  19  22
ATOM     22  C   UNL     1      48.857   6.893  17.134  0.00  0.00    +0.000 A 
ATOM     23  C   UNL     1      48.641   8.129  17.726  0.00  0.00    +0.000 A 
ATOM     24  S   UNL     1      48.384   8.045  19.411  0.00  0.00    +0.000 S 
ATOM     25  C   UNL     1      48.612   6.358  19.412  0.00  0.00    +0.000 A 
ATOM     26  N   UNL     1      48.546   5.648  20.569  0.00  0.00    +0.000 NA
ATOM     27  C   UNL     1      48.767   4.382  20.435  0.00  0.00    +0.000 A 
ATOM     28  N   UNL     1      49.036   3.763  19.240  0.00  0.00    +0.000 N 
ATOM     29  C   UNL     1      49.079   4.435  18.044  0.00  0.00    +0.000 A 
ATOM     30  O   UNL     1      49.280   3.841  16.989  0.00  0.00    +0.000 OA
ATOM     31  C   UNL     1      48.854   5.864  18.145  0.00  0.00    +0.000 A 
ATOM     32  H   UNL     1      49.192   2.765  19.198  0.00  0.00    +0.000 HD
ENDBRANCH  19  22
ENDBRANCH  17  18
ENDBRANCH   4  17
TORSDOF 7
ENDMDL
MODEL 2
REMARK VINA RESULT:    -8.258      1.412      2.251
REMARK INTER + INTRA:         -12.656
REMARK INTER:                 -11.605
REMARK INTRA:                  -1.052
REMARK UNBOUND:                -1.018
REMARK  Name = 
REMARK  8 active torsions:
REMARK  status: ('A' for Active; 'I' for Inactive)
REMARK    1  A    between atoms: C_1  and  C_2
REMARK    2  A    between atoms: C_5  and  C_6
REMARK    3  A    between atoms: C_6  and  O_7
REMARK    4  A    between atoms: O_7  and  C_8
REMARK    5  A    between atoms: C_8  and  C_9
REMARK    6  A    between atoms: C_12  and  C_13
REMARK    7  A    between atoms: C_13  and  N_14
REMARK    8  A    between atoms: C_15  and  C_17
REMARK                            x       y       z     vdW  Elec       q    Type
REMARK                         _______ _______ _______ _____ _____    ______ ____
ROOT
ATOM      1  C   UNL     1      44.424   5.133  12.051  0.00  0.00    +0.000 A 
ATOM      2  C   UNL     1      45.089   6.284  11.607  0.00  0.00    +0.000 A 
ATOM      3  C   UNL     1      46.253   6.729  12.245  0.00  0.00    +0.000 A 
ATOM      4  C   UNL     1      46.780   6.022  13.333  0.00  0.00    +0.000 A 
ATOM      5  C   UNL     1      46.097   4.891  13.797  0.00  0.00    +0.000 A 
ATOM      6  C   UNL     1      44.933   4.447  13.160  0.00  0.00    +0.000 A 
ENDROOT
BRANCH   1   7
ATOM      7  C   UNL     1      43.186   4.650  11.340  0.00  0.00    +0.000 C 
BRANCH   7   8
ATOM      8  O   UNL     1      43.567   4.202  10.044  0.00  0.00    +0.000 OA
BRANCH   8   9
ATOM      9  C   UNL     1      44.183   2.914  10.079  0.00  0.00    +0.000 C 
BRANCH   9  14
ATOM     10  C   UNL     1      48.014   2.187   5.827  0.00  0.00    +0.000 C 
ATOM     11  C   UNL     1      47.026   2.430   6.923  0.00  0.00    +0.000 A 
ATOM     12  C   UNL     1      46.488   3.693   7.160  0.00  0.00    +0.000 A 
ATOM     13  C   UNL     1      45.563   3.865   8.186  0.00  0.00    +0.000 A 
ATOM     14  C   UNL     1      45.180   2.764   8.950  0.00  0.00    +0.000 A 
ATOM     15  N   UNL     1      45.709   1.530   8.752  0.00  0.00    +0.000 NA
ATOM     16  C   UNL     1      46.607   1.393   7.749  0.00  0.00    +0.000 A 
ENDBRANCH   9  14
ENDBRANCH   8   9
ENDBRANCH   7   8
ENDBRANCH   1   7
BRANCH   4  17
ATOM     17  C   UNL     1      48.039   6.486  14.019  0.00  0.00    +0.000 C 
BRANCH  17  18
ATOM     18  N   UNL     1      47.931   6.348  15.447  0.00  0.00    +0.000 N 
ATOM     19  C   UNL     1      49.044   6.253  16.243  0.00  0.00    +0.000 C 
ATOM     20  O   UNL     1      50.181   6.317  15.783  0.00  0.00    +0.000 OA
ATOM     21  H   UNL     1      47.028   6.066  15.814  0.00  0.00    +0.000 HD
BRANCH  19  22
ATOM     22  C   UNL     1      48.805   6.131  17.687  0.00  0.00    +0.000 A 
ATOM     23  C   UNL     1      49.074   4.931  18.330  0.00  0.00    +0.000 A 
ATOM     24  S   UNL     1      48.791   4.978  20.012  0.00  0.00    +0.000 S 
ATOM     25  C   UNL     1      48.244   6.588  19.926  0.00  0.00    +0.000 A 
ATOM     26  N   UNL     1      47.818   7.237  21.041  0.00  0.00    +0.000 NA
ATOM     27  C   UNL     1      47.401   8.443  20.833  0.00  0.00    +0.000 A 
ATOM     28  N   UNL     1      47.385   9.058  19.606  0.00  0.00    +0.000 N 
ATOM     29  C   UNL     1      47.838   8.452  18.461  0.00  0.00    +0.000 A 
ATOM     30  O   UNL     1      47.849   9.048  17.388  0.00  0.00    +0.000 OA
ATOM     31  C   UNL     1      48.301   7.090  18.640  0.00  0.00    +0.000 A 
ATOM     32  H   UNL     1      47.055  10.009  19.508  0.00  0.00    +0.000 HD
ENDBRANCH  19  22
ENDBRANCH  17  18
ENDBRANCH   4  17
TORSDOF 7
ENDMDL
MODEL 3
REMARK VINA RESULT:    -7.924      1.744      1.938
REMARK INTER + INTRA:         -12.186
REMARK INTER:                 -11.060
REMARK INTRA:                  -1.126
REMARK UNBOUND:                -1.018
REMARK  Name = 
REMARK  8 active torsions:
REMARK  status: ('A' for Active; 'I' for Inactive)
REMARK    1  A    between atoms: C_1  and  C_2
REMARK    2  A    between atoms: C_5  and  C_6
REMARK    3  A    between atoms: C_6  and  O_7
REMARK    4  A    between atoms: O_7  and  C_8
REMARK    5  A    between atoms: C_8  and  C_9
REMARK    6  A    between atoms: C_12  and  C_13
REMARK    7  A    between atoms: C_13  and  N_14
REMARK    8  A    between atoms: C_15  and  C_17
REMARK                            x       y       z     vdW  Elec       q    Type
REMARK                         _______ _______ _______ _____ _____    ______ ____
ROOT
ATOM      1  C   UNL     1      44.300   5.075  12.009  0.00  0.00    +0.000 A 
ATOM      2  C   UNL     1      44.227   6.453  11.758  0.00  0.00    +0.000 A 
ATOM      3  C   UNL     1      45.281   7.302  12.112  0.00  0.00    +0.000 A 
ATOM      4  C   UNL     1      46.435   6.788  12.716  0.00  0.00    +0.000 A 
ATOM      5  C   UNL     1      46.494   5.417  12.998  0.00  0.00    +0.000 A 
ATOM      6  C   UNL     1      45.441   4.568  12.644  0.00  0.00    +0.000 A 
ENDROOT
BRANCH   1   7
ATOM      7  C   UNL     1      43.170   4.167  11.599  0.00  0.00    +0.000 C 
BRANCH   7   8
ATOM      8  O   UNL     1      43.411   3.736  10.264  0.00  0.00    +0.000 OA
BRANCH   8   9
ATOM      9  C   UNL     1      44.154   2.518  10.217  0.00  0.00    +0.000 C 
BRANCH   9  14
ATOM     10  C   UNL     1      47.849   2.360   5.790  0.00  0.00    +0.000 C 
ATOM     11  C   UNL     1      46.892   2.456   6.935  0.00  0.00    +0.000 A 
ATOM     12  C   UNL     1      46.274   3.656   7.277  0.00  0.00    +0.000 A 
ATOM     13  C   UNL     1      45.381   3.692   8.344  0.00  0.00    +0.000 A 
ATOM     14  C   UNL     1      45.112   2.518   9.046  0.00  0.00    +0.000 A 
ATOM     15  N   UNL     1      45.721   1.342   8.745  0.00  0.00    +0.000 NA
ATOM     16  C   UNL     1      46.584   1.339   7.703  0.00  0.00    +0.000 A 
ENDBRANCH   9  14
ENDBRANCH   8   9
ENDBRANCH   7   8
ENDBRANCH   1   7
BRANCH   4  17
ATOM     17  C   UNL     1      47.579   7.693  13.091  0.00  0.00    +0.000 C 
BRANCH  17  18
ATOM     18  N   UNL     1      48.500   7.025  13.972  0.00  0.00    +0.000 N 
ATOM     19  C   UNL     1      48.840   7.558  15.189  0.00  0.00    +0.000 C 
ATOM     20  O   UNL     1      48.350   8.606  15.602  0.00  0.00    +0.000 OA
ATOM     21  H   UNL     1      49.079   6.298  13.565  0.00  0.00    +0.000 HD
BRANCH  19  22
ATOM     22  C   UNL     1      49.777   6.775  16.005  0.00  0.00    +0.000 A 
ATOM     23  C   UNL     1      51.062   7.251  16.224  0.00  0.00    +0.000 A 
ATOM     24  S   UNL     1      52.001   6.247  17.234  0.00  0.00    +0.000 S 
ATOM     25  C   UNL     1      50.738   5.114  17.366  0.00  0.00    +0.000 A 
ATOM     26  N   UNL     1      50.898   3.975  18.092  0.00  0.00    +0.000 NA
ATOM     27  C   UNL     1      49.875   3.187  18.086  0.00  0.00    +0.000 A 
ATOM     28  N   UNL     1      48.699   3.445  17.426  0.00  0.00    +0.000 N 
ATOM     29  C   UNL     1      48.482   4.596  16.709  0.00  0.00    +0.000 A 
ATOM     30  O   UNL     1      47.403   4.813  16.168  0.00  0.00    +0.000 OA
ATOM     31  C   UNL     1      49.610   5.507  16.672  0.00  0.00    +0.000 A 
ATOM     32  H   UNL     1      47.929   2.792  17.466  0.00  0.00    +0.000 HD
ENDBRANCH  19  22
ENDBRANCH  17  18
ENDBRANCH   4  17
TORSDOF 7
ENDMDL
MODEL 4
REMARK VINA RESULT:    -6.723      1.900      2.417
REMARK INTER + INTRA:         -10.493
REMARK INTER:                  -9.689
REMARK INTRA:                  -0.804
REMARK UNBOUND:                -1.018
REMARK  Name = 
REMARK  8 active torsions:
REMARK  status: ('A' for Active; 'I' for Inactive)
REMARK    1  A    between atoms: C_1  and  C_2
REMARK    2  A    between atoms: C_5  and  C_6
REMARK    3  A    between atoms: C_6  and  O_7
REMARK    4  A    between atoms: O_7  and  C_8
REMARK    5  A    between atoms: C_8  and  C_9
REMARK    6  A    between atoms: C_12  and  C_13
REMARK    7  A    between atoms: C_13  and  N_14
REMARK    8  A    between atoms: C_15  and  C_17
REMARK                            x       y       z     vdW  Elec       q    Type
REMARK                         _______ _______ _______ _____ _____    ______ ____
ROOT
ATOM      1  C   UNL     1      45.072   5.992  12.327  0.00  0.00    +0.000 A 
ATOM      2  C   UNL     1      46.458   6.203  12.339  0.00  0.00    +0.000 A 
ATOM      3  C   UNL     1      47.290   5.449  13.173  0.00  0.00    +0.000 A 
ATOM      4  C   UNL     1      46.753   4.459  14.004  0.00  0.00    +0.000 A 
ATOM      5  C   UNL     1      45.365   4.270  14.017  0.00  0.00    +0.000 A 
ATOM      6  C   UNL     1      44.533   5.025  13.184  0.00  0.00    +0.000 A 
ENDROOT
BRANCH   1   7
ATOM      7  C   UNL     1      44.189   6.794  11.405  0.00  0.00    +0.000 C 
BRANCH   7   8
ATOM      8  O   UNL     1      44.206   6.171  10.125  0.00  0.00    +0.000 OA
BRANCH   8   9
ATOM      9  C   UNL     1      43.768   4.813  10.182  0.00  0.00    +0.000 C 
BRANCH   9  14
ATOM     10  C   UNL     1      47.137   1.298   7.087  0.00  0.00    +0.000 C 
ATOM     11  C   UNL     1      46.293   2.252   7.870  0.00  0.00    +0.000 A 
ATOM     12  C   UNL     1      46.348   3.627   7.656  0.00  0.00    +0.000 A 
ATOM     13  C   UNL     1      45.533   4.473   8.403  0.00  0.00    +0.000 A 
ATOM     14  C   UNL     1      44.664   3.925   9.345  0.00  0.00    +0.000 A 
ATOM     15  N   UNL     1      44.611   2.590   9.586  0.00  0.00    +0.000 NA
ATOM     16  C   UNL     1      45.416   1.793   8.846  0.00  0.00    +0.000 A 
ENDBRANCH   9  14
ENDBRANCH   8   9
ENDBRANCH   7   8
ENDBRANCH   1   7
BRANCH   4  17
ATOM     17  C   UNL     1      47.642   3.633  14.897  0.00  0.00    +0.000 C 
BRANCH  17  18
ATOM     18  N   UNL     1      48.006   4.362  16.083  0.00  0.00    +0.000 N 
ATOM     19  C   UNL     1      47.339   4.183  17.268  0.00  0.00    +0.000 C 
ATOM     20  O   UNL     1      46.427   3.368  17.385  0.00  0.00    +0.000 OA
ATOM     21  H   UNL     1      48.585   5.186  15.955  0.00  0.00    +0.000 HD
BRANCH  19  22
ATOM     22  C   UNL     1      47.814   4.973  18.410  0.00  0.00    +0.000 A 
ATOM     23  C   UNL     1      47.007   5.971  18.939  0.00  0.00    +0.000 A 
ATOM     24  S   UNL     1      47.688   6.755  20.293  0.00  0.00    +0.000 S 
ATOM     25  C   UNL     1      49.109   5.824  20.181  0.00  0.00    +0.000 A 
ATOM     26  N   UNL     1      50.135   6.016  21.051  0.00  0.00    +0.000 NA
ATOM     27  C   UNL     1      51.166   5.266  20.838  0.00  0.00    +0.000 A 
ATOM     28  N   UNL     1      51.253   4.333  19.835  0.00  0.00    +0.000 N 
ATOM     29  C   UNL     1      50.229   4.084  18.955  0.00  0.00    +0.000 A 
ATOM     30  O   UNL     1      50.326   3.212  18.098  0.00  0.00    +0.000 OA
ATOM     31  C   UNL     1      49.055   4.914  19.144  0.00  0.00    +0.000 A 
ATOM     32  H   UNL     1      52.085   3.769  19.724  0.00  0.00    +0.000 HD
ENDBRANCH  19  22
ENDBRANCH  17  18
ENDBRANCH   4  17
TORSDOF 7
ENDMDL
MODEL 5
REMARK VINA RESULT:    -6.517      2.577      3.115
REMARK INTER + INTRA:         -10.202
REMARK INTER:                  -9.453
REMARK INTRA:                  -0.749
REMARK UNBOUND:                -1.018
REMARK  Name = 
REMARK  8 active torsions:
REMARK  status: ('A' for Active; 'I' for Inactive)
REMARK    1  A    between atoms: C_1  and  C_2
REMARK    2  A    between atoms: C_5  and  C_6
REMARK    3  A    between atoms: C_6  and  O_7
REMARK    4  A    between atoms: O_7  and  C_8
REMARK    5  A    between atoms: C_8  and  C_9
REMARK    6  A    between atoms: C_12  and  C_13
REMARK    7  A    between atoms: C_13  and  N_14
REMARK    8  A    between atoms: C_15  and  C_17
REMARK                            x       y       z     vdW  Elec       q    Type
REMARK                         _______ _______ _______ _____ _____    ______ ____
ROOT
ATOM      1  C   UNL     1      44.739   5.238  12.496  0.00  0.00    +0.000 A 
ATOM      2  C   UNL     1      44.678   6.599  12.165  0.00  0.00    +0.000 A 
ATOM      3  C   UNL     1      45.794   7.427  12.331  0.00  0.00    +0.000 A 
ATOM      4  C   UNL     1      46.998   6.906  12.820  0.00  0.00    +0.000 A 
ATOM      5  C   UNL     1      47.050   5.554  13.182  0.00  0.00    +0.000 A 
ATOM      6  C   UNL     1      45.934   4.726  13.016  0.00  0.00    +0.000 A 
ENDROOT
BRANCH   1   7
ATOM      7  C   UNL     1      43.538   4.351  12.289  0.00  0.00    +0.000 C 
BRANCH   7   8
ATOM      8  O   UNL     1      43.804   3.500  11.179  0.00  0.00    +0.000 OA
BRANCH   8   9
ATOM      9  C   UNL     1      43.862   4.222   9.949  0.00  0.00    +0.000 C 
BRANCH   9  14
ATOM     10  C   UNL     1      47.922   2.171   6.401  0.00  0.00    +0.000 C 
ATOM     11  C   UNL     1      46.853   2.651   7.330  0.00  0.00    +0.000 A 
ATOM     12  C   UNL     1      46.154   1.777   8.158  0.00  0.00    +0.000 A 
ATOM     13  C   UNL     1      45.176   2.274   9.015  0.00  0.00    +0.000 A 
ATOM     14  C   UNL     1      44.923   3.644   9.037  0.00  0.00    +0.000 A 
ATOM     15  N   UNL     1      45.576   4.511   8.221  0.00  0.00    +0.000 NA
ATOM     16  C   UNL     1      46.520   3.998   7.399  0.00  0.00    +0.000 A 
ENDBRANCH   9  14
ENDBRANCH   8   9
ENDBRANCH   7   8
ENDBRANCH   1   7
BRANCH   4  17
ATOM     17  C   UNL     1      48.208   7.786  12.990  0.00  0.00    +0.000 C 
BRANCH  17  18
ATOM     18  N   UNL     1      48.792   7.618  14.295  0.00  0.00    +0.000 N 
ATOM     19  C   UNL     1      50.049   8.083  14.582  0.00  0.00    +0.000 C 
ATOM     20  O   UNL     1      50.722   8.695  13.757  0.00  0.00    +0.000 OA
ATOM     21  H   UNL     1      48.361   6.930  14.905  0.00  0.00    +0.000 HD
BRANCH  19  22
ATOM     22  C   UNL     1      50.529   7.864  15.953  0.00  0.00    +0.000 A 
ATOM     23  C   UNL     1      51.279   6.735  16.247  0.00  0.00    +0.000 A 
ATOM     24  S   UNL     1      51.799   6.662  17.871  0.00  0.00    +0.000 S 
ATOM     25  C   UNL     1      50.988   8.110  18.247  0.00  0.00    +0.000 A 
ATOM     26  N   UNL     1      51.011   8.612  19.511  0.00  0.00    +0.000 NA
ATOM     27  C   UNL     1      50.331   9.699  19.669  0.00  0.00    +0.000 A 
ATOM     28  N   UNL     1      49.640  10.335  18.668  0.00  0.00    +0.000 N 
ATOM     29  C   UNL     1      49.617   9.883  17.372  0.00  0.00    +0.000 A 
ATOM     30  O   UNL     1      49.024  10.502  16.494  0.00  0.00    +0.000 OA
ATOM     31  C   UNL     1      50.353   8.654  17.148  0.00  0.00    +0.000 A 
ATOM     32  H   UNL     1      49.133  11.190  18.852  0.00  0.00    +0.000 HD
ENDBRANCH  19  22
ENDBRANCH  17  18
ENDBRANCH   4  17
TORSDOF 7
ENDMDL
