MODEL 1
REMARK VINA RESULT:    -6.959      0.000      0.000
REMARK INTER + INTRA:          -8.870
REMARK INTER:                  -8.993
REMARK INTRA:                   0.124
REMARK UNBOUND:                 0.124
REMARK  Name = 
REMARK  7 active torsions:
REMARK  status: ('A' for Active; 'I' for Inactive)
REMARK    1  A    between atoms: C_1  and  C_2
REMARK    2  A    between atoms: C_2  and  C_3
REMARK    3  A    between atoms: C_6  and  O_7
REMARK    4  A    between atoms: O_7  and  C_8
REMARK    5  A    between atoms: C_15  and  C_16
REMARK    6  A    between atoms: C_15  and  C_17
REMARK    7  A    between atoms: C_20  and  C_21
REMARK                            x       y       z     vdW  Elec       q    Type
REMARK                         _______ _______ _______ _____ _____    ______ ____
ROOT
ATOM      1  C   UNL     1      45.739   6.828  12.727  0.00  0.00    +0.000 C 
ATOM      2  C   UNL     1      45.484   5.348  12.518  0.00  0.00    +0.000 C 
ATOM      3  C   UNL     1      44.617   4.643  13.545  0.00  0.00    +0.000 C 
ATOM      4  C   UNL     1      46.094   4.326  13.521  0.00  0.00    +0.000 C 
ATOM      5  C   UNL     1      46.479   2.934  13.057  0.00  0.00    +0.000 C 
ENDROOT
BRANCH   2   6
ATOM      6  C   UNL     1      45.341   4.943  11.055  0.00  0.00    +0.000 A 
ATOM      7  C   UNL     1      46.015   5.638  10.038  0.00  0.00    +0.000 A 
ATOM      8  C   UNL     1      45.999   5.190   8.713  0.00  0.00    +0.000 A 
ATOM      9  C   UNL     1      45.323   4.020   8.380  0.00  0.00    +0.000 A 
ATOM     10  C   UNL     1      44.547   3.388   9.350  0.00  0.00    +0.000 A 
ATOM     11  C   UNL     1      44.552   3.848  10.669  0.00  0.00    +0.000 A 
BRANCH   9  12
ATOM     12  O   UNL     1      45.302   3.446   7.147  0.00  0.00    +0.000 OA
BRANCH  12  13
ATOM     13  C   UNL     1      46.458   2.739   6.710  0.00  0.00    +0.000 C 
ATOM     14  F   UNL     1      47.632   3.325   7.027  0.00  0.00    +0.000 F 
ATOM     15  F   UNL     1      46.451   1.508   7.270  0.00  0.00    +0.000 F 
ATOM     16  F   UNL     1      46.400   2.589   5.368  0.00  0.00    +0.000 F 
ENDBRANCH  12  13
ENDBRANCH   9  12
ENDBRANCH   2   6
BRANCH   4  17
ATOM     17  C   UNL     1      47.030   4.857  14.603  0.00  0.00    +0.000 A 
ATOM     18  C   UNL     1      46.979   4.421  15.926  0.00  0.00    +0.000 A 
ATOM     19  C   UNL     1      47.880   4.922  16.863  0.00  0.00    +0.000 A 
ATOM     20  C   UNL     1      48.821   5.835  16.431  0.00  0.00    +0.000 A 
ATOM     21  N   UNL     1      48.876   6.260  15.149  0.00  0.00    +0.000 NA
ATOM     22  N   UNL     1      47.970   5.769  14.240  0.00  0.00    +0.000 NA
BRANCH  20  23
ATOM     23  C   UNL     1      49.838   6.383  17.364  0.00  0.00    +0.000 C 
ATOM     24  N   UNL     1      51.147   6.271  16.964  0.00  0.00    +0.000 N 
ATOM     25  O   UNL     1      49.541   6.897  18.433  0.00  0.00    +0.000 OA
ATOM     26  H   UNL     1      51.384   5.830  16.081  0.00  0.00    +0.000 HD
ATOM     27  H   UNL     1      51.881   6.611  17.569  0.00  0.00    +0.000 HD
ENDBRANCH  20  23
ENDBRANCH   4  17
TORSDOF 5
ENDMDL
MODEL 2
REMARK VINA RESULT:    -6.119      4.592      5.742
REMARK INTER + INTRA:          -7.784
REMARK INTER:                  -6.633
REMARK INTRA:                  -1.151
REMARK UNBOUND:                 0.124
REMARK  Name = 
REMARK  7 active torsions:
REMARK  status: ('A' for Active; 'I' for Inactive)
REMARK    1  A    between atoms: C_1  and  C_2
REMARK    2  A    between atoms: C_2  and  C_3
REMARK    3  A    between atoms: C_6  and  O_7
REMARK    4  A    between atoms: O_7  and  C_8
REMARK    5  A    between atoms: C_15  and  C_16
REMARK    6  A    between atoms: C_15  and  C_17
REMARK    7  A    between atoms: C_20  and  C_21
REMARK                            x       y       z     vdW  Elec       q    Type
REMARK                         _______ _______ _______ _____ _____    ______ ____
ROOT
ATOM      1  C   UNL     1      49.082   7.611  11.391  0.00  0.00    +0.000 C 
ATOM      2  C   UNL     1      48.154   8.030  12.514  0.00  0.00    +0.000 C 
ATOM      3  C   UNL     1      47.787   9.500  12.596  0.00  0.00    +0.000 C 
ATOM      4  C   UNL     1      48.708   8.935  13.654  0.00  0.00    +0.000 C 
ATOM      5  C   UNL     1      48.141   8.831  15.057  0.00  0.00    +0.000 C 
ENDROOT
BRANCH   2   6
ATOM      6  C   UNL     1      47.081   7.000  12.852  0.00  0.00    +0.000 A 
ATOM      7  C   UNL     1      45.720   7.276  12.647  0.00  0.00    +0.000 A 
ATOM      8  C   UNL     1      44.740   6.293  12.824  0.00  0.00    +0.000 A 
ATOM      9  C   UNL     1      45.108   5.001  13.188  0.00  0.00    +0.000 A 
ATOM     10  C   UNL     1      46.438   4.742  13.516  0.00  0.00    +0.000 A 
ATOM     11  C   UNL     1      47.410   5.732  13.354  0.00  0.00    +0.000 A 
BRANCH   9  12
ATOM     12  O   UNL     1      44.258   3.945  13.312  0.00  0.00    +0.000 OA
BRANCH  12  13
ATOM     13  C   UNL     1      43.733   3.357  12.127  0.00  0.00    +0.000 C 
ATOM     14  F   UNL     1      42.669   4.000  11.601  0.00  0.00    +0.000 F 
ATOM     15  F   UNL     1      44.705   3.335  11.186  0.00  0.00    +0.000 F 
ATOM     16  F   UNL     1      43.378   2.080  12.391  0.00  0.00    +0.000 F 
ENDBRANCH  12  13
ENDBRANCH   9  12
ENDBRANCH   2   6
BRANCH   4  17
ATOM     17  C   UNL     1      50.199   9.256  13.651  0.00  0.00    +0.000 A 
ATOM     18  C   UNL     1      51.153   8.417  14.227  0.00  0.00    +0.000 A 
ATOM     19  C   UNL     1      52.504   8.750  14.167  0.00  0.00    +0.000 A 
ATOM     20  C   UNL     1      52.855   9.913  13.510  0.00  0.00    +0.000 A 
ATOM     21  N   UNL     1      51.934  10.728  12.948  0.00  0.00    +0.000 NA
ATOM     22  N   UNL     1      50.604  10.394  13.029  0.00  0.00    +0.000 NA
BRANCH  20  23
ATOM     23  C   UNL     1      54.279  10.312  13.372  0.00  0.00    +0.000 C 
ATOM     24  N   UNL     1      54.518  11.456  12.651  0.00  0.00    +0.000 N 
ATOM     25  O   UNL     1      55.193   9.664  13.859  0.00  0.00    +0.000 OA
ATOM     26  H   UNL     1      53.753  11.980  12.239  0.00  0.00    +0.000 HD
ATOM     27  H   UNL     1      55.470  11.763  12.511  0.00  0.00    +0.000 HD
ENDBRANCH  20  23
ENDBRANCH   4  17
TORSDOF 5
ENDMDL
MODEL 3
REMARK VINA RESULT:    -6.118      3.046      4.029
REMARK INTER + INTRA:          -7.783
REMARK INTER:                  -6.819
REMARK INTRA:                  -0.964
REMARK UNBOUND:                 0.124
REMARK  Name = 
REMARK  7 active torsions:
REMARK  status: ('A' for Active; 'I' for Inactive)
REMARK    1  A    between atoms: C_1  and  C_2
REMARK    2  A    between atoms: C_2  and  C_3
REMARK    3  A    between atoms: C_6  and  O_7
REMARK    4  A    between atoms: O_7  and  C_8
REMARK    5  A    between atoms: C_15  and  C_16
REMARK    6  A    between atoms: C_15  and  C_17
REMARK    7  A    between atoms: C_20  and  C_21
REMARK                            x       y       z     vdW  Elec       q    Type
REMARK                         _______ _______ _______ _____ _____    ______ ____
ROOT
ATOM      1  C   UNL     1      48.904   6.610  12.876  0.00  0.00    +0.000 C 
ATOM      2  C   UNL     1      47.640   7.220  12.305  0.00  0.00    +0.000 C 
ATOM      3  C   UNL     1      47.788   8.508  11.514  0.00  0.00    +0.000 C 
ATOM      4  C   UNL     1      47.130   8.577  12.873  0.00  0.00    +0.000 C 
ATOM      5  C   UNL     1      45.646   8.892  12.890  0.00  0.00    +0.000 C 
ENDROOT
BRANCH   2   6
ATOM      6  C   UNL     1      46.616   6.196  11.825  0.00  0.00    +0.000 A 
ATOM      7  C   UNL     1      46.085   6.252  10.527  0.00  0.00    +0.000 A 
ATOM      8  C   UNL     1      45.253   5.241  10.034  0.00  0.00    +0.000 A 
ATOM      9  C   UNL     1      44.952   4.138  10.826  0.00  0.00    +0.000 A 
ATOM     10  C   UNL     1      45.366   4.127  12.157  0.00  0.00    +0.000 A 
ATOM     11  C   UNL     1      46.183   5.147  12.650  0.00  0.00    +0.000 A 
BRANCH   9  12
ATOM     12  O   UNL     1      44.222   3.060  10.431  0.00  0.00    +0.000 OA
BRANCH  12  13
ATOM     13  C   UNL     1      44.625   2.364   9.257  0.00  0.00    +0.000 C 
ATOM     14  F   UNL     1      44.165   1.098   9.163  0.00  0.00    +0.000 F 
ATOM     15  F   UNL     1      44.180   3.043   8.175  0.00  0.00    +0.000 F 
ATOM     16  F   UNL     1      45.976   2.336   9.205  0.00  0.00    +0.000 F 
ENDBRANCH  12  13
ENDBRANCH   9  12
ENDBRANCH   2   6
BRANCH   4  17
ATOM     17  C   UNL     1      47.863   9.170  14.072  0.00  0.00    +0.000 A 
ATOM     18  C   UNL     1      48.833  10.165  13.949  0.00  0.00    +0.000 A 
ATOM     19  C   UNL     1      49.447  10.688  15.084  0.00  0.00    +0.000 A 
ATOM     20  C   UNL     1      49.050  10.206  16.315  0.00  0.00    +0.000 A 
ATOM     21  N   UNL     1      48.108   9.243  16.440  0.00  0.00    +0.000 NA
ATOM     22  N   UNL     1      47.523   8.725  15.310  0.00  0.00    +0.000 NA
BRANCH  20  23
ATOM     23  C   UNL     1      49.631  10.744  17.571  0.00  0.00    +0.000 C 
ATOM     24  N   UNL     1      49.035  10.333  18.737  0.00  0.00    +0.000 N 
ATOM     25  O   UNL     1      50.579  11.516  17.578  0.00  0.00    +0.000 OA
ATOM     26  H   UNL     1      48.240   9.703  18.720  0.00  0.00    +0.000 HD
ATOM     27  H   UNL     1      49.379  10.683  19.620  0.00  0.00    +0.000 HD
ENDBRANCH  20  23
ENDBRANCH   4  17
TORSDOF 5
ENDMDL
MODEL 4
REMARK VINA RESULT:    -5.912     10.682     12.881
REMARK INTER + INTRA:          -7.516
REMARK INTER:                  -6.618
REMARK INTRA:                  -0.898
REMARK UNBOUND:                 0.124
REMARK  Name = 
REMARK  7 active torsions:
REMARK  status: ('A' for Active; 'I' for Inactive)
REMARK    1  A    between atoms: C_1  and  C_2
REMARK    2  A    between atoms: C_2  and  C_3
REMARK    3  A    between atoms: C_6  and  O_7
REMARK    4  A    between atoms: O_7  and  C_8
REMARK    5  A    between atoms: C_15  and  C_16
REMARK    6  A    between atoms: C_15  and  C_17
REMARK    7  A    between atoms: C_20  and  C_21
REMARK                            x       y       z     vdW  Elec       q    Type
REMARK                         _______ _______ _______ _____ _____    ______ ____
ROOT
ATOM      1  C   UNL     1      41.556  -2.673  12.786  0.00  0.00    +0.000 C 
ATOM      2  C   UNL     1      40.634  -3.615  13.534  0.00  0.00    +0.000 C 
ATOM      3  C   UNL     1      39.828  -4.599  12.705  0.00  0.00    +0.000 C 
ATOM      4  C   UNL     1      39.094  -3.456  13.369  0.00  0.00    +0.000 C 
ATOM      5  C   UNL     1      38.160  -3.824  14.506  0.00  0.00    +0.000 C 
ENDROOT
BRANCH   2   6
ATOM      6  C   UNL     1      41.182  -4.086  14.877  0.00  0.00    +0.000 A 
ATOM      7  C   UNL     1      41.722  -5.373  15.030  0.00  0.00    +0.000 A 
ATOM      8  C   UNL     1      42.350  -5.765  16.218  0.00  0.00    +0.000 A 
ATOM      9  C   UNL     1      42.471  -4.865  17.272  0.00  0.00    +0.000 A 
ATOM     10  C   UNL     1      41.832  -3.629  17.184  0.00  0.00    +0.000 A 
ATOM     11  C   UNL     1      41.192  -3.248  16.003  0.00  0.00    +0.000 A 
BRANCH   9  12
ATOM     12  O   UNL     1      43.127  -5.103  18.440  0.00  0.00    +0.000 OA
BRANCH  12  13
ATOM     13  C   UNL     1      44.550  -5.077  18.434  0.00  0.00    +0.000 C 
ATOM     14  F   UNL     1      45.127  -5.924  17.555  0.00  0.00    +0.000 F 
ATOM     15  F   UNL     1      44.960  -3.825  18.128  0.00  0.00    +0.000 F 
ATOM     16  F   UNL     1      45.000  -5.373  19.674  0.00  0.00    +0.000 F 
ENDBRANCH  12  13
ENDBRANCH   9  12
ENDBRANCH   2   6
BRANCH   4  17
ATOM     17  C   UNL     1      38.581  -2.273  12.555  0.00  0.00    +0.000 A 
ATOM     18  C   UNL     1      38.394  -2.330  11.174  0.00  0.00    +0.000 A 
ATOM     19  C   UNL     1      37.894  -1.225  10.490  0.00  0.00    +0.000 A 
ATOM     20  C   UNL     1      37.577  -0.099  11.222  0.00  0.00    +0.000 A 
ATOM     21  N   UNL     1      37.754  -0.039  12.561  0.00  0.00    +0.000 NA
ATOM     22  N   UNL     1      38.263  -1.132  13.221  0.00  0.00    +0.000 NA
BRANCH  20  23
ATOM     23  C   UNL     1      37.003   1.103  10.567  0.00  0.00    +0.000 C 
ATOM     24  N   UNL     1      35.665   1.328  10.782  0.00  0.00    +0.000 N 
ATOM     25  O   UNL     1      37.669   1.851   9.866  0.00  0.00    +0.000 OA
ATOM     26  H   UNL     1      35.117   0.693  11.354  0.00  0.00    +0.000 HD
ATOM     27  H   UNL     1      35.219   2.122  10.345  0.00  0.00    +0.000 HD
ENDBRANCH  20  23
ENDBRANCH   4  17
TORSDOF 5
ENDMDL
MODEL 5
REMARK VINA RESULT:    -5.821      4.457      5.561
REMARK INTER + INTRA:          -7.399
REMARK INTER:                  -6.298
REMARK INTRA:                  -1.100
REMARK UNBOUND:                 0.124
REMARK  Name = 
REMARK  7 active torsions:
REMARK  status: ('A' for Active; 'I' for Inactive)
REMARK    1  A    between atoms: C_1  and  C_2
REMARK    2  A    between atoms: C_2  and  C_3
REMARK    3  A    between atoms: C_6  and  O_7
REMARK    4  A    between atoms: O_7  and  C_8
REMARK    5  A    between atoms: C_15  and  C_16
REMARK    6  A    between atoms: C_15  and  C_17
REMARK    7  A    between atoms: C_20  and  C_21
REMARK                            x       y       z     vdW  Elec       q    Type
REMARK                         _______ _______ _______ _____ _____    ______ ____
ROOT
ATOM      1  C   UNL     1      49.767   7.497  11.430  0.00  0.00    +0.000 C 
ATOM      2  C   UNL     1      48.574   7.963  12.240  0.00  0.00    +0.000 C 
ATOM      3  C   UNL     1      48.184   9.425  12.120  0.00  0.00    +0.000 C 
ATOM      4  C   UNL     1      48.799   8.955  13.418  0.00  0.00    +0.000 C 
ATOM      5  C   UNL     1      47.885   8.928  14.628  0.00  0.00    +0.000 C 
ENDROOT
BRANCH   2   6
ATOM      6  C   UNL     1      47.459   6.929  12.356  0.00  0.00    +0.000 A 
ATOM      7  C   UNL     1      47.629   5.759  13.113  0.00  0.00    +0.000 A 
ATOM      8  C   UNL     1      46.568   4.873  13.337  0.00  0.00    +0.000 A 
ATOM      9  C   UNL     1      45.306   5.154  12.825  0.00  0.00    +0.000 A 
ATOM     10  C   UNL     1      45.149   6.242  11.968  0.00  0.00    +0.000 A 
ATOM     11  C   UNL     1      46.215   7.115  11.733  0.00  0.00    +0.000 A 
BRANCH   9  12
ATOM     12  O   UNL     1      44.185   4.413  13.041  0.00  0.00    +0.000 OA
BRANCH  12  13
ATOM     13  C   UNL     1      43.820   3.439  12.070  0.00  0.00    +0.000 C 
ATOM     14  F   UNL     1      44.803   3.108  11.205  0.00  0.00    +0.000 F 
ATOM     15  F   UNL     1      43.440   2.310  12.710  0.00  0.00    +0.000 F 
ATOM     16  F   UNL     1      42.762   3.897  11.365  0.00  0.00    +0.000 F 
ENDBRANCH  12  13
ENDBRANCH   9  12
ENDBRANCH   2   6
BRANCH   4  17
ATOM     17  C   UNL     1      50.236   9.316  13.784  0.00  0.00    +0.000 A 
ATOM     18  C   UNL     1      51.015   8.539  14.641  0.00  0.00    +0.000 A 
ATOM     19  C   UNL     1      52.330   8.905  14.914  0.00  0.00    +0.000 A 
ATOM     20  C   UNL     1      52.829  10.035  14.297  0.00  0.00    +0.000 A 
ATOM     21  N   UNL     1      52.079  10.789  13.463  0.00  0.00    +0.000 NA
ATOM     22  N   UNL     1      50.777  10.425  13.216  0.00  0.00    +0.000 NA
BRANCH  20  23
ATOM     23  C   UNL     1      54.235  10.464  14.509  0.00  0.00    +0.000 C 
ATOM     24  N   UNL     1      55.022   9.613  15.246  0.00  0.00    +0.000 N 
ATOM     25  O   UNL     1      54.674  11.516  14.068  0.00  0.00    +0.000 OA
ATOM     26  H   UNL     1      54.644   8.749  15.620  0.00  0.00    +0.000 HD
ATOM     27  H   UNL     1      55.981   9.865  15.436  0.00  0.00    +0.000 HD
ENDBRANCH  20  23
ENDBRANCH   4  17
TORSDOF 5
ENDMDL
MODEL 6
REMARK VINA RESULT:    -5.772      4.297      5.409
REMARK INTER + INTRA:          -7.335
REMARK INTER:                  -6.309
REMARK INTRA:                  -1.027
REMARK UNBOUND:                 0.124
REMARK  Name = 
REMARK  7 active torsions:
REMARK  status: ('A' for Active; 'I' for Inactive)
REMARK    1  A    between atoms: C_1  and  C_2
REMARK    2  A    between atoms: C_2  and  C_3
REMARK    3  A    between atoms: C_6  and  O_7
REMARK    4  A    between atoms: O_7  and  C_8
REMARK    5  A    between atoms: C_15  and  C_16
REMARK    6  A    between atoms: C_15  and  C_17
REMARK    7  A    between atoms: C_20  and  C_21
REMARK                            x       y       z     vdW  Elec       q    Type
REMARK                         _______ _______ _______ _____ _____    ______ ____
ROOT
ATOM      1  C   UNL     1      49.733   7.732  11.556  0.00  0.00    +0.000 C 
ATOM      2  C   UNL     1      48.628   8.321  12.410  0.00  0.00    +0.000 C 
ATOM      3  C   UNL     1      48.690   9.812  12.690  0.00  0.00    +0.000 C 
ATOM      4  C   UNL     1      48.975   8.860  13.829  0.00  0.00    +0.000 C 
ATOM      5  C   UNL     1      47.943   8.809  14.940  0.00  0.00    +0.000 C 
ENDROOT
BRANCH   2   6
ATOM      6  C   UNL     1      47.260   7.688  12.180  0.00  0.00    +0.000 A 
ATOM      7  C   UNL     1      46.122   8.480  11.953  0.00  0.00    +0.000 A 
ATOM      8  C   UNL     1      44.893   7.908  11.606  0.00  0.00    +0.000 A 
ATOM      9  C   UNL     1      44.782   6.529  11.457  0.00  0.00    +0.000 A 
ATOM     10  C   UNL     1      45.866   5.722  11.800  0.00  0.00    +0.000 A 
ATOM     11  C   UNL     1      47.087   6.296  12.162  0.00  0.00    +0.000 A 
BRANCH   9  12
ATOM     12  O   UNL     1      43.666   5.868  11.048  0.00  0.00    +0.000 OA
BRANCH  12  13
ATOM     13  C   UNL     1      42.819   5.295  12.038  0.00  0.00    +0.000 C 
ATOM     14  F   UNL     1      43.164   5.581  13.311  0.00  0.00    +0.000 F 
ATOM     15  F   UNL     1      41.558   5.744  11.844  0.00  0.00    +0.000 F 
ATOM     16  F   UNL     1      42.813   3.951  11.886  0.00  0.00    +0.000 F 
ENDBRANCH  12  13
ENDBRANCH   9  12
ENDBRANCH   2   6
BRANCH   4  17
ATOM     17  C   UNL     1      50.395   8.654  14.345  0.00  0.00    +0.000 A 
ATOM     18  C   UNL     1      50.769   7.547  15.106  0.00  0.00    +0.000 A 
ATOM     19  C   UNL     1      52.089   7.399  15.523  0.00  0.00    +0.000 A 
ATOM     20  C   UNL     1      53.000   8.365  15.144  0.00  0.00    +0.000 A 
ATOM     21  N   UNL     1      52.643   9.439  14.404  0.00  0.00    +0.000 NA
ATOM     22  N   UNL     1      51.333   9.579  14.013  0.00  0.00    +0.000 NA
BRANCH  20  23
ATOM     23  C   UNL     1      54.433   8.254  15.519  0.00  0.00    +0.000 C 
ATOM     24  N   UNL     1      55.162   7.306  14.845  0.00  0.00    +0.000 N 
ATOM     25  O   UNL     1      54.942   8.954  16.382  0.00  0.00    +0.000 OA
ATOM     26  H   UNL     1      54.727   6.720  14.139  0.00  0.00    +0.000 HD
ATOM     27  H   UNL     1      56.137   7.176  15.074  0.00  0.00    +0.000 HD
ENDBRANCH  20  23
ENDBRANCH   4  17
TORSDOF 5
ENDMDL
MODEL 7
REMARK VINA RESULT:    -5.752      4.448      5.248
REMARK INTER + INTRA:          -7.309
REMARK INTER:                  -6.206
REMARK INTRA:                  -1.103
REMARK UNBOUND:                 0.124
REMARK  Name = 
REMARK  7 active torsions:
REMARK  status: ('A' for Active; 'I' for Inactive)
REMARK    1  A    between atoms: C_1  and  C_2
REMARK    2  A    between atoms: C_2  and  C_3
REMARK    3  A    between atoms: C_6  and  O_7
REMARK    4  A    between atoms: O_7  and  C_8
REMARK    5  A    between atoms: C_15  and  C_16
REMARK    6  A    between atoms: C_15  and  C_17
REMARK    7  A    between atoms: C_20  and  C_21
REMARK                            x       y       z     vdW  Elec       q    Type
REMARK                         _______ _______ _______ _____ _____    ______ ____
ROOT
ATOM      1  C   UNL     1      47.125   9.558  11.697  0.00  0.00    +0.000 C 
ATOM      2  C   UNL     1      47.103   8.263  12.485  0.00  0.00    +0.000 C 
ATOM      3  C   UNL     1      47.408   8.352  13.970  0.00  0.00    +0.000 C 
ATOM      4  C   UNL     1      48.436   7.710  13.067  0.00  0.00    +0.000 C 
ATOM      5  C   UNL     1      48.639   6.215  13.229  0.00  0.00    +0.000 C 
ENDROOT
BRANCH   2   6
ATOM      6  C   UNL     1      46.036   7.274  12.028  0.00  0.00    +0.000 A 
ATOM      7  C   UNL     1      46.117   6.645  10.775  0.00  0.00    +0.000 A 
ATOM      8  C   UNL     1      45.221   5.637  10.404  0.00  0.00    +0.000 A 
ATOM      9  C   UNL     1      44.234   5.220  11.293  0.00  0.00    +0.000 A 
ATOM     10  C   UNL     1      44.061   5.918  12.487  0.00  0.00    +0.000 A 
ATOM     11  C   UNL     1      44.948   6.935  12.846  0.00  0.00    +0.000 A 
BRANCH   9  12
ATOM     12  O   UNL     1      43.359   4.201  11.077  0.00  0.00    +0.000 OA
BRANCH  12  13
ATOM     13  C   UNL     1      43.864   2.870  11.059  0.00  0.00    +0.000 C 
ATOM     14  F   UNL     1      44.127   2.382   9.828  0.00  0.00    +0.000 F 
ATOM     15  F   UNL     1      45.014   2.832  11.770  0.00  0.00    +0.000 F 
ATOM     16  F   UNL     1      42.971   2.054  11.664  0.00  0.00    +0.000 F 
ENDBRANCH  12  13
ENDBRANCH   9  12
ENDBRANCH   2   6
BRANCH   4  17
ATOM     17  C   UNL     1      49.729   8.435  12.707  0.00  0.00    +0.000 A 
ATOM     18  C   UNL     1      50.466   8.141  11.560  0.00  0.00    +0.000 A 
ATOM     19  C   UNL     1      51.623   8.859  11.270  0.00  0.00    +0.000 A 
ATOM     20  C   UNL     1      51.995   9.867  12.137  0.00  0.00    +0.000 A 
ATOM     21  N   UNL     1      51.282  10.157  13.249  0.00  0.00    +0.000 NA
ATOM     22  N   UNL     1      50.151   9.430  13.531  0.00  0.00    +0.000 NA
BRANCH  20  23
ATOM     23  C   UNL     1      53.195  10.700  11.872  0.00  0.00    +0.000 C 
ATOM     24  N   UNL     1      53.289  11.241  10.613  0.00  0.00    +0.000 N 
ATOM     25  O   UNL     1      54.061  10.891  12.714  0.00  0.00    +0.000 OA
ATOM     26  H   UNL     1      52.572  11.065   9.917  0.00  0.00    +0.000 HD
ATOM     27  H   UNL     1      54.094  11.801  10.374  0.00  0.00    +0.000 HD
ENDBRANCH  20  23
ENDBRANCH   4  17
TORSDOF 5
ENDMDL
MODEL 8
REMARK VINA RESULT:    -5.532      6.035      9.869
REMARK INTER + INTRA:          -7.025
REMARK INTER:                  -6.744
REMARK INTRA:                  -0.281
REMARK UNBOUND:                 0.124
REMARK  Name = 
REMARK  7 active torsions:
REMARK  status: ('A' for Active; 'I' for Inactive)
REMARK    1  A    between atoms: C_1  and  C_2
REMARK    2  A    between atoms: C_2  and  C_3
REMARK    3  A    between atoms: C_6  and  O_7
REMARK    4  A    between atoms: O_7  and  C_8
REMARK    5  A    between atoms: C_15  and  C_16
REMARK    6  A    between atoms: C_15  and  C_17
REMARK    7  A    between atoms: C_20  and  C_21
REMARK                            x       y       z     vdW  Elec       q    Type
REMARK                         _______ _______ _______ _____ _____    ______ ____
ROOT
ATOM      1  C   UNL     1      48.462   2.586  16.604  0.00  0.00    +0.000 C 
ATOM      2  C   UNL     1      48.756   3.924  17.252  0.00  0.00    +0.000 C 
ATOM      3  C   UNL     1      47.583   4.668  17.865  0.00  0.00    +0.000 C 
ATOM      4  C   UNL     1      48.196   5.221  16.599  0.00  0.00    +0.000 C 
ATOM      5  C   UNL     1      48.949   6.531  16.728  0.00  0.00    +0.000 C 
ENDROOT
BRANCH   2   6
ATOM      6  C   UNL     1      50.101   3.986  17.968  0.00  0.00    +0.000 A 
ATOM      7  C   UNL     1      51.251   3.410  17.405  0.00  0.00    +0.000 A 
ATOM      8  C   UNL     1      52.513   3.580  17.986  0.00  0.00    +0.000 A 
ATOM      9  C   UNL     1      52.652   4.353  19.135  0.00  0.00    +0.000 A 
ATOM     10  C   UNL     1      51.508   4.827  19.775  0.00  0.00    +0.000 A 
ATOM     11  C   UNL     1      50.249   4.640  19.201  0.00  0.00    +0.000 A 
BRANCH   9  12
ATOM     12  O   UNL     1      53.831   4.655  19.743  0.00  0.00    +0.000 OA
BRANCH  12  13
ATOM     13  C   UNL     1      54.570   3.598  20.348  0.00  0.00    +0.000 C 
ATOM     14  F   UNL     1      55.177   2.764  19.478  0.00  0.00    +0.000 F 
ATOM     15  F   UNL     1      55.527   4.135  21.139  0.00  0.00    +0.000 F 
ATOM     16  F   UNL     1      53.738   2.874  21.130  0.00  0.00    +0.000 F 
ENDBRANCH  12  13
ENDBRANCH   9  12
ENDBRANCH   2   6
BRANCH   4  17
ATOM     17  C   UNL     1      47.478   5.093  15.258  0.00  0.00    +0.000 A 
ATOM     18  C   UNL     1      47.835   5.841  14.136  0.00  0.00    +0.000 A 
ATOM     19  C   UNL     1      47.162   5.660  12.932  0.00  0.00    +0.000 A 
ATOM     20  C   UNL     1      46.159   4.712  12.888  0.00  0.00    +0.000 A 
ATOM     21  N   UNL     1      45.811   3.983  13.971  0.00  0.00    +0.000 NA
ATOM     22  N   UNL     1      46.473   4.185  15.158  0.00  0.00    +0.000 NA
BRANCH  20  23
ATOM     23  C   UNL     1      45.423   4.436  11.628  0.00  0.00    +0.000 C 
ATOM     24  N   UNL     1      45.089   3.123  11.399  0.00  0.00    +0.000 N 
ATOM     25  O   UNL     1      45.136   5.315  10.828  0.00  0.00    +0.000 OA
ATOM     26  H   UNL     1      45.344   2.399  12.062  0.00  0.00    +0.000 HD
ATOM     27  H   UNL     1      44.604   2.877  10.548  0.00  0.00    +0.000 HD
ENDBRANCH  20  23
ENDBRANCH   4  17
TORSDOF 5
ENDMDL
MODEL 9
REMARK VINA RESULT:    -5.506      3.685      5.304
REMARK INTER + INTRA:          -6.991
REMARK INTER:                  -7.083
REMARK INTRA:                   0.092
REMARK UNBOUND:                 0.124
REMARK  Name = 
REMARK  7 active torsions:
REMARK  status: ('A' for Active; 'I' for Inactive)
REMARK    1  A    between atoms: C_1  and  C_2
REMARK    2  A    between atoms: C_2  and  C_3
REMARK    3  A    between atoms: C_6  and  O_7
REMARK    4  A    between atoms: O_7  and  C_8
REMARK    5  A    between atoms: C_15  and  C_16
REMARK    6  A    between atoms: C_15  and  C_17
REMARK    7  A    between atoms: C_20  and  C_21
REMARK                            x       y       z     vdW  Elec       q    Type
REMARK                         _______ _______ _______ _____ _____    ______ ____
ROOT
ATOM      1  C   UNL     1      49.249   6.660  16.494  0.00  0.00    +0.000 C 
ATOM      2  C   UNL     1      48.345   5.451  16.364  0.00  0.00    +0.000 C 
ATOM      3  C   UNL     1      47.568   5.033  17.600  0.00  0.00    +0.000 C 
ATOM      4  C   UNL     1      48.706   4.151  17.140  0.00  0.00    +0.000 C 
ATOM      5  C   UNL     1      48.324   2.793  16.579  0.00  0.00    +0.000 C 
ENDROOT
BRANCH   2   6
ATOM      6  C   UNL     1      47.659   5.329  15.008  0.00  0.00    +0.000 A 
ATOM      7  C   UNL     1      46.768   4.278  14.736  0.00  0.00    +0.000 A 
ATOM      8  C   UNL     1      46.031   4.235  13.547  0.00  0.00    +0.000 A 
ATOM      9  C   UNL     1      46.156   5.258  12.612  0.00  0.00    +0.000 A 
ATOM     10  C   UNL     1      47.125   6.240  12.808  0.00  0.00    +0.000 A 
ATOM     11  C   UNL     1      47.871   6.270  13.989  0.00  0.00    +0.000 A 
BRANCH   9  12
ATOM     12  O   UNL     1      45.437   5.365  11.462  0.00  0.00    +0.000 OA
BRANCH  12  13
ATOM     13  C   UNL     1      44.190   6.051  11.505  0.00  0.00    +0.000 C 
ATOM     14  F   UNL     1      43.232   5.530  10.710  0.00  0.00    +0.000 F 
ATOM     15  F   UNL     1      43.727   6.028  12.775  0.00  0.00    +0.000 F 
ATOM     16  F   UNL     1      44.387   7.341  11.153  0.00  0.00    +0.000 F 
ENDBRANCH  12  13
ENDBRANCH   9  12
ENDBRANCH   2   6
BRANCH   4  17
ATOM     17  C   UNL     1      50.029   4.114  17.899  0.00  0.00    +0.000 A 
ATOM     18  C   UNL     1      50.186   4.667  19.170  0.00  0.00    +0.000 A 
ATOM     19  C   UNL     1      51.411   4.576  19.825  0.00  0.00    +0.000 A 
ATOM     20  C   UNL     1      52.439   3.912  19.186  0.00  0.00    +0.000 A 
ATOM     21  N   UNL     1      52.291   3.372  17.955  0.00  0.00    +0.000 NA
ATOM     22  N   UNL     1      51.081   3.484  17.314  0.00  0.00    +0.000 NA
BRANCH  20  23
ATOM     23  C   UNL     1      53.762   3.741  19.839  0.00  0.00    +0.000 C 
ATOM     24  N   UNL     1      54.732   4.645  19.483  0.00  0.00    +0.000 N 
ATOM     25  O   UNL     1      53.988   2.847  20.641  0.00  0.00    +0.000 OA
ATOM     26  H   UNL     1      54.539   5.376  18.806  0.00  0.00    +0.000 HD
ATOM     27  H   UNL     1      55.656   4.564  19.884  0.00  0.00    +0.000 HD
ENDBRANCH  20  23
ENDBRANCH   4  17
TORSDOF 5
ENDMDL
