MODEL 1
REMARK VINA RESULT:    -8.506      0.000      0.000
REMARK INTER + INTRA:         -13.269
REMARK INTER:                 -11.987
REMARK INTRA:                  -1.282
REMARK UNBOUND:                -1.282
REMARK  Name = 
REMARK  8 active torsions:
REMARK  status: ('A' for Active; 'I' for Inactive)
REMARK    1  A    between atoms: C_1  and  O_2
REMARK    2  A    between atoms: O_2  and  C_3
REMARK    3  A    between atoms: C_10  and  C_11
REMARK    4  A    between atoms: N_13  and  C_14
REMARK    5  A    between atoms: C_14  and  C_15
REMARK    6  A    between atoms: C_18  and  N_19
REMARK    7  A    between atoms: N_19  and  C_20
REMARK    8  A    between atoms: C_20  and  C_21
REMARK                            x       y       z     vdW  Elec       q    Type
REMARK                         _______ _______ _______ _____ _____    ______ ____
ROOT
ATOM      1  C   UNL     1      46.996   8.159  13.464  0.00  0.00    +0.000 C 
ENDROOT
BRANCH   1   2
ATOM      2  C   UNL     1      46.197   7.289  12.530  0.00  0.00    +0.000 A 
ATOM      3  C   UNL     1      46.796   6.668  11.427  0.00  0.00    +0.000 A 
ATOM      4  C   UNL     1      46.045   5.852  10.566  0.00  0.00    +0.000 A 
ATOM      5  C   UNL     1      44.684   5.633  10.795  0.00  0.00    +0.000 A 
ATOM      6  C   UNL     1      44.078   6.314  11.858  0.00  0.00    +0.000 A 
ATOM      7  C   UNL     1      44.822   7.120  12.724  0.00  0.00    +0.000 A 
BRANCH   5   8
ATOM      8  N   UNL     1      43.860   4.858   9.972  0.00  0.00    +0.000 N 
ATOM      9  H   UNL     1      43.834   5.244   9.032  0.00  0.00    +0.000 HD
BRANCH   8  10
ATOM     10  C   UNL     1      44.048   3.412   9.951  0.00  0.00    +0.000 C 
BRANCH  10  11
ATOM     11  C   UNL     1      44.999   3.009   8.838  0.00  0.00    +0.000 A 
ATOM     12  C   UNL     1      45.375   3.948   7.864  0.00  0.00    +0.000 A 
ATOM     13  C   UNL     1      46.317   3.623   6.882  0.00  0.00    +0.000 A 
ATOM     14  C   UNL     1      46.898   2.357   6.869  0.00  0.00    +0.000 A 
ATOM     15 CL   UNL     1      48.069   1.964   5.670  0.00  0.00    +0.000 Cl
ATOM     16  C   UNL     1      46.545   1.413   7.828  0.00  0.00    +0.000 A 
ATOM     17  C   UNL     1      45.608   1.741   8.812  0.00  0.00    +0.000 A 
ENDBRANCH  10  11
ENDBRANCH   8  10
ENDBRANCH   5   8
ENDBRANCH   1   2
BRANCH   1  20
ATOM     18  C   UNL     1      48.737   6.978  14.724  0.00  0.00    +0.000 C 
ATOM     19  O   UNL     1      49.559   7.205  13.840  0.00  0.00    +0.000 OA
ATOM     20  N   UNL     1      47.445   7.416  14.615  0.00  0.00    +0.000 N 
ATOM     21  H   UNL     1      46.759   7.167  15.315  0.00  0.00    +0.000 HD
BRANCH  18  29
ATOM     22  C   UNL     1      47.381   4.252  16.339  0.00  0.00    +0.000 A 
ATOM     23  N   UNL     1      47.071   3.226  17.159  0.00  0.00    +0.000 NA
ATOM     24  C   UNL     1      47.850   3.014  18.223  0.00  0.00    +0.000 A 
ATOM     25  N   UNL     1      48.923   3.711  18.581  0.00  0.00    +0.000 NA
ATOM     26  C   UNL     1      49.201   4.719  17.736  0.00  0.00    +0.000 A 
ATOM     27  S   UNL     1      50.536   5.720  18.042  0.00  0.00    +0.000 S 
ATOM     28  C   UNL     1      50.218   6.649  16.657  0.00  0.00    +0.000 A 
ATOM     29  C   UNL     1      49.107   6.227  15.936  0.00  0.00    +0.000 A 
ATOM     30  C   UNL     1      48.498   5.069  16.587  0.00  0.00    +0.000 A 
BRANCH  22  32
ATOM     31  C   UNL     1      47.045   3.680  14.100  0.00  0.00    +0.000 C 
ATOM     32  O   UNL     1      46.598   4.442  15.220  0.00  0.00    +0.000 OA
ENDBRANCH  22  32
ENDBRANCH  18  29
ENDBRANCH   1  20
TORSDOF 7
ENDMDL
MODEL 2
REMARK VINA RESULT:    -8.047      1.497      1.860
REMARK INTER + INTRA:         -12.621
REMARK INTER:                 -11.561
REMARK INTRA:                  -1.060
REMARK UNBOUND:                -1.282
REMARK  Name = 
REMARK  8 active torsions:
REMARK  status: ('A' for Active; 'I' for Inactive)
REMARK    1  A    between atoms: C_1  and  O_2
REMARK    2  A    between atoms: O_2  and  C_3
REMARK    3  A    between atoms: C_10  and  C_11
REMARK    4  A    between atoms: N_13  and  C_14
REMARK    5  A    between atoms: C_14  and  C_15
REMARK    6  A    between atoms: C_18  and  N_19
REMARK    7  A    between atoms: N_19  and  C_20
REMARK    8  A    between atoms: C_20  and  C_21
REMARK                            x       y       z     vdW  Elec       q    Type
REMARK                         _______ _______ _______ _____ _____    ______ ____
ROOT
ATOM      1  C   UNL     1      47.762   7.381  13.404  0.00  0.00    +0.000 C 
ENDROOT
BRANCH   1   2
ATOM      2  C   UNL     1      46.934   6.224  12.910  0.00  0.00    +0.000 A 
ATOM      3  C   UNL     1      47.046   4.953  13.489  0.00  0.00    +0.000 A 
ATOM      4  C   UNL     1      46.264   3.883  13.027  0.00  0.00    +0.000 A 
ATOM      5  C   UNL     1      45.349   4.061  11.986  0.00  0.00    +0.000 A 
ATOM      6  C   UNL     1      45.296   5.316  11.366  0.00  0.00    +0.000 A 
ATOM      7  C   UNL     1      46.064   6.389  11.828  0.00  0.00    +0.000 A 
BRANCH   5   8
ATOM      8  N   UNL     1      44.555   3.043  11.450  0.00  0.00    +0.000 N 
ATOM      9  H   UNL     1      43.880   2.719  12.138  0.00  0.00    +0.000 HD
BRANCH   8  10
ATOM     10  C   UNL     1      43.931   3.249  10.148  0.00  0.00    +0.000 C 
BRANCH  10  11
ATOM     11  C   UNL     1      44.904   2.926   9.028  0.00  0.00    +0.000 A 
ATOM     12  C   UNL     1      45.348   3.945   8.170  0.00  0.00    +0.000 A 
ATOM     13  C   UNL     1      46.310   3.687   7.187  0.00  0.00    +0.000 A 
ATOM     14  C   UNL     1      46.842   2.406   7.058  0.00  0.00    +0.000 A 
ATOM     15 CL   UNL     1      48.038   2.093   5.859  0.00  0.00    +0.000 Cl
ATOM     16  C   UNL     1      46.422   1.382   7.901  0.00  0.00    +0.000 A 
ATOM     17  C   UNL     1      45.465   1.644   8.885  0.00  0.00    +0.000 A 
ENDBRANCH  10  11
ENDBRANCH   8  10
ENDBRANCH   5   8
ENDBRANCH   1   2
BRANCH   1  20
ATOM     18  C   UNL     1      49.115   7.187  15.441  0.00  0.00    +0.000 C 
ATOM     19  O   UNL     1      50.137   7.055  14.774  0.00  0.00    +0.000 OA
ATOM     20  N   UNL     1      47.896   7.353  14.840  0.00  0.00    +0.000 N 
ATOM     21  H   UNL     1      47.052   7.393  15.395  0.00  0.00    +0.000 HD
BRANCH  18  29
ATOM     22  C   UNL     1      48.860   4.689  17.802  0.00  0.00    +0.000 A 
ATOM     23  N   UNL     1      48.792   3.931  18.916  0.00  0.00    +0.000 NA
ATOM     24  C   UNL     1      48.892   4.542  20.100  0.00  0.00    +0.000 A 
ATOM     25  N   UNL     1      49.055   5.843  20.317  0.00  0.00    +0.000 NA
ATOM     26  C   UNL     1      49.124   6.561  19.182  0.00  0.00    +0.000 A 
ATOM     27  S   UNL     1      49.326   8.243  19.271  0.00  0.00    +0.000 S 
ATOM     28  C   UNL     1      49.310   8.382  17.578  0.00  0.00    +0.000 A 
ATOM     29  C   UNL     1      49.156   7.171  16.913  0.00  0.00    +0.000 A 
ATOM     30  C   UNL     1      49.044   6.080  17.878  0.00  0.00    +0.000 A 
BRANCH  22  32
ATOM     31  C   UNL     1      48.072   2.821  16.641  0.00  0.00    +0.000 C 
ATOM     32  O   UNL     1      48.797   4.048  16.583  0.00  0.00    +0.000 OA
ENDBRANCH  22  32
ENDBRANCH  18  29
ENDBRANCH   1  20
TORSDOF 7
ENDMDL
MODEL 3
REMARK VINA RESULT:    -7.805      2.577      3.364
REMARK INTER + INTRA:         -12.281
REMARK INTER:                 -10.968
REMARK INTRA:                  -1.313
REMARK UNBOUND:                -1.282
REMARK  Name = 
REMARK  8 active torsions:
REMARK  status: ('A' for Active; 'I' for Inactive)
REMARK    1  A    between atoms: C_1  and  O_2
REMARK    2  A    between atoms: O_2  and  C_3
REMARK    3  A    between atoms: C_10  and  C_11
REMARK    4  A    between atoms: N_13  and  C_14
REMARK    5  A    between atoms: C_14  and  C_15
REMARK    6  A    between atoms: C_18  and  N_19
REMARK    7  A    between atoms: N_19  and  C_20
REMARK    8  A    between atoms: C_20  and  C_21
REMARK                            x       y       z     vdW  Elec       q    Type
REMARK                         _______ _______ _______ _____ _____    ______ ____
ROOT
ATOM      1  C   UNL     1      48.610   6.529  14.049  0.00  0.00    +0.000 C 
ENDROOT
BRANCH   1   2
ATOM      2  C   UNL     1      47.433   6.192  13.173  0.00  0.00    +0.000 A 
ATOM      3  C   UNL     1      46.590   5.114  13.474  0.00  0.00    +0.000 A 
ATOM      4  C   UNL     1      45.490   4.813  12.656  0.00  0.00    +0.000 A 
ATOM      5  C   UNL     1      45.204   5.586  11.528  0.00  0.00    +0.000 A 
ATOM      6  C   UNL     1      46.092   6.616  11.195  0.00  0.00    +0.000 A 
ATOM      7  C   UNL     1      47.183   6.928  12.010  0.00  0.00    +0.000 A 
BRANCH   5   8
ATOM      8  N   UNL     1      44.146   5.336  10.648  0.00  0.00    +0.000 N 
ATOM      9  H   UNL     1      44.234   5.911   9.815  0.00  0.00    +0.000 HD
BRANCH   8  10
ATOM     10  C   UNL     1      43.823   3.954  10.311  0.00  0.00    +0.000 C 
BRANCH  10  11
ATOM     11  C   UNL     1      44.770   3.423   9.250  0.00  0.00    +0.000 A 
ATOM     12  C   UNL     1      45.381   4.311   8.349  0.00  0.00    +0.000 A 
ATOM     13  C   UNL     1      46.323   3.855   7.421  0.00  0.00    +0.000 A 
ATOM     14  C   UNL     1      46.668   2.505   7.389  0.00  0.00    +0.000 A 
ATOM     15 CL   UNL     1      47.839   1.948   6.257  0.00  0.00    +0.000 Cl
ATOM     16  C   UNL     1      46.080   1.609   8.276  0.00  0.00    +0.000 A 
ATOM     17  C   UNL     1      45.144   2.068   9.206  0.00  0.00    +0.000 A 
ENDBRANCH  10  11
ENDBRANCH   8  10
ENDBRANCH   5   8
ENDBRANCH   1   2
BRANCH   1  20
ATOM     18  C   UNL     1      49.001   6.337  16.462  0.00  0.00    +0.000 C 
ATOM     19  O   UNL     1      50.092   5.807  16.264  0.00  0.00    +0.000 OA
ATOM     20  N   UNL     1      48.205   6.725  15.419  0.00  0.00    +0.000 N 
ATOM     21  H   UNL     1      47.281   7.097  15.591  0.00  0.00    +0.000 HD
BRANCH  18  29
ATOM     22  C   UNL     1      47.839   9.128  18.116  0.00  0.00    +0.000 A 
ATOM     23  N   UNL     1      47.355  10.036  18.989  0.00  0.00    +0.000 NA
ATOM     24  C   UNL     1      47.063   9.626  20.226  0.00  0.00    +0.000 A 
ATOM     25  N   UNL     1      47.195   8.397  20.714  0.00  0.00    +0.000 NA
ATOM     26  C   UNL     1      47.674   7.522  19.812  0.00  0.00    +0.000 A 
ATOM     27  S   UNL     1      47.913   5.906  20.264  0.00  0.00    +0.000 S 
ATOM     28  C   UNL     1      48.486   5.506  18.716  0.00  0.00    +0.000 A 
ATOM     29  C   UNL     1      48.506   6.576  17.829  0.00  0.00    +0.000 A 
ATOM     30  C   UNL     1      48.020   7.785  18.489  0.00  0.00    +0.000 A 
BRANCH  22  32
ATOM     31  C   UNL     1      49.401  10.112  16.685  0.00  0.00    +0.000 C 
ATOM     32  O   UNL     1      48.099   9.547  16.829  0.00  0.00    +0.000 OA
ENDBRANCH  22  32
ENDBRANCH  18  29
ENDBRANCH   1  20
TORSDOF 7
ENDMDL
MODEL 4
REMARK VINA RESULT:    -7.322      2.751      3.278
REMARK INTER + INTRA:         -11.600
REMARK INTER:                 -10.340
REMARK INTRA:                  -1.260
REMARK UNBOUND:                -1.282
REMARK  Name = 
REMARK  8 active torsions:
REMARK  status: ('A' for Active; 'I' for Inactive)
REMARK    1  A    between atoms: C_1  and  O_2
REMARK    2  A    between atoms: O_2  and  C_3
REMARK    3  A    between atoms: C_10  and  C_11
REMARK    4  A    between atoms: N_13  and  C_14
REMARK    5  A    between atoms: C_14  and  C_15
REMARK    6  A    between atoms: C_18  and  N_19
REMARK    7  A    between atoms: N_19  and  C_20
REMARK    8  A    between atoms: C_20  and  C_21
REMARK                            x       y       z     vdW  Elec       q    Type
REMARK                         _______ _______ _______ _____ _____    ______ ____
ROOT
ATOM      1  C   UNL     1      48.473   5.980  14.387  0.00  0.00    +0.000 C 
ENDROOT
BRANCH   1   2
ATOM      2  C   UNL     1      47.345   5.882  13.394  0.00  0.00    +0.000 A 
ATOM      3  C   UNL     1      47.230   6.791  12.335  0.00  0.00    +0.000 A 
ATOM      4  C   UNL     1      46.180   6.687  11.410  0.00  0.00    +0.000 A 
ATOM      5  C   UNL     1      45.230   5.668  11.518  0.00  0.00    +0.000 A 
ATOM      6  C   UNL     1      45.311   4.808  12.619  0.00  0.00    +0.000 A 
ATOM      7  C   UNL     1      46.360   4.900  13.539  0.00  0.00    +0.000 A 
BRANCH   5   8
ATOM      8  N   UNL     1      44.140   5.511  10.655  0.00  0.00    +0.000 N 
ATOM      9  H   UNL     1      44.220   6.142   9.863  0.00  0.00    +0.000 HD
BRANCH   8  10
ATOM     10  C   UNL     1      43.767   4.167  10.232  0.00  0.00    +0.000 C 
BRANCH  10  11
ATOM     11  C   UNL     1      44.818   3.583   9.305  0.00  0.00    +0.000 A 
ATOM     12  C   UNL     1      45.060   2.199   9.304  0.00  0.00    +0.000 A 
ATOM     13  C   UNL     1      45.961   1.630   8.397  0.00  0.00    +0.000 A 
ATOM     14  C   UNL     1      46.624   2.439   7.478  0.00  0.00    +0.000 A 
ATOM     15 CL   UNL     1      47.720   1.736   6.352  0.00  0.00    +0.000 Cl
ATOM     16  C   UNL     1      46.395   3.811   7.456  0.00  0.00    +0.000 A 
ATOM     17  C   UNL     1      45.491   4.377   8.359  0.00  0.00    +0.000 A 
ENDBRANCH  10  11
ENDBRANCH   8  10
ENDBRANCH   5   8
ENDBRANCH   1   2
BRANCH   1  20
ATOM     18  C   UNL     1      48.905   7.954  15.777  0.00  0.00    +0.000 C 
ATOM     19  O   UNL     1      49.911   8.219  15.123  0.00  0.00    +0.000 OA
ATOM     20  N   UNL     1      48.136   6.861  15.477  0.00  0.00    +0.000 N 
ATOM     21  H   UNL     1      47.350   6.613  16.062  0.00  0.00    +0.000 HD
BRANCH  18  29
ATOM     22  C   UNL     1      47.962   7.285  19.024  0.00  0.00    +0.000 A 
ATOM     23  N   UNL     1      47.561   7.314  20.311  0.00  0.00    +0.000 NA
ATOM     24  C   UNL     1      47.278   8.500  20.856  0.00  0.00    +0.000 A 
ATOM     25  N   UNL     1      47.346   9.688  20.264  0.00  0.00    +0.000 NA
ATOM     26  C   UNL     1      47.755   9.616  18.986  0.00  0.00    +0.000 A 
ATOM     27  S   UNL     1      47.894  11.040  18.074  0.00  0.00    +0.000 S 
ATOM     28  C   UNL     1      48.406  10.172  16.707  0.00  0.00    +0.000 A 
ATOM     29  C   UNL     1      48.485   8.799  16.908  0.00  0.00    +0.000 A 
ATOM     30  C   UNL     1      48.093   8.468  18.276  0.00  0.00    +0.000 A 
BRANCH  22  32
ATOM     31  C   UNL     1      47.198   5.150  18.465  0.00  0.00    +0.000 C 
ATOM     32  O   UNL     1      48.294   6.062  18.479  0.00  0.00    +0.000 OA
ENDBRANCH  22  32
ENDBRANCH  18  29
ENDBRANCH   1  20
TORSDOF 7
ENDMDL
MODEL 5
REMARK VINA RESULT:    -7.141      2.261      3.711
REMARK INTER + INTRA:         -11.345
REMARK INTER:                  -9.950
REMARK INTRA:                  -1.395
REMARK UNBOUND:                -1.282
REMARK  Name = 
REMARK  8 active torsions:
REMARK  status: ('A' for Active; 'I' for Inactive)
REMARK    1  A    between atoms: C_1  and  O_2
REMARK    2  A    between atoms: O_2  and  C_3
REMARK    3  A    between atoms: C_10  and  C_11
REMARK    4  A    between atoms: N_13  and  C_14
REMARK    5  A    between atoms: C_14  and  C_15
REMARK    6  A    between atoms: C_18  and  N_19
REMARK    7  A    between atoms: N_19  and  C_20
REMARK    8  A    between atoms: C_20  and  C_21
REMARK                            x       y       z     vdW  Elec       q    Type
REMARK                         _______ _______ _______ _____ _____    ______ ____
ROOT
ATOM      1  C   UNL     1      47.494   4.476  15.483  0.00  0.00    +0.000 C 
ENDROOT
BRANCH   1   2
ATOM      2  C   UNL     1      46.740   4.804  14.221  0.00  0.00    +0.000 A 
ATOM      3  C   UNL     1      45.571   4.114  13.875  0.00  0.00    +0.000 A 
ATOM      4  C   UNL     1      44.870   4.432  12.702  0.00  0.00    +0.000 A 
ATOM      5  C   UNL     1      45.315   5.452  11.856  0.00  0.00    +0.000 A 
ATOM      6  C   UNL     1      46.522   6.087  12.172  0.00  0.00    +0.000 A 
ATOM      7  C   UNL     1      47.220   5.782  13.345  0.00  0.00    +0.000 A 
BRANCH   5   8
ATOM      8  N   UNL     1      44.691   5.812  10.657  0.00  0.00    +0.000 N 
ATOM      9  H   UNL     1      45.359   6.243  10.025  0.00  0.00    +0.000 HD
BRANCH   8  10
ATOM     10  C   UNL     1      43.866   4.824   9.971  0.00  0.00    +0.000 C 
BRANCH  10  11
ATOM     11  C   UNL     1      44.726   3.889   9.138  0.00  0.00    +0.000 A 
ATOM     12  C   UNL     1      45.619   4.417   8.191  0.00  0.00    +0.000 A 
ATOM     13  C   UNL     1      46.482   3.579   7.476  0.00  0.00    +0.000 A 
ATOM     14  C   UNL     1      46.465   2.205   7.708  0.00  0.00    +0.000 A 
ATOM     15 CL   UNL     1      47.539   1.178   6.839  0.00  0.00    +0.000 Cl
ATOM     16  C   UNL     1      45.593   1.662   8.646  0.00  0.00    +0.000 A 
ATOM     17  C   UNL     1      44.736   2.501   9.363  0.00  0.00    +0.000 A 
ENDBRANCH  10  11
ENDBRANCH   8  10
ENDBRANCH   5   8
ENDBRANCH   1   2
BRANCH   1  20
ATOM     18  C   UNL     1      49.062   5.859  16.764  0.00  0.00    +0.000 C 
ATOM     19  O   UNL     1      49.945   5.015  16.633  0.00  0.00    +0.000 OA
ATOM     20  N   UNL     1      47.819   5.670  16.224  0.00  0.00    +0.000 N 
ATOM     21  H   UNL     1      47.079   6.338  16.394  0.00  0.00    +0.000 HD
BRANCH  18  29
ATOM     22  C   UNL     1      48.830   9.198  15.939  0.00  0.00    +0.000 A 
ATOM     23  N   UNL     1      48.829  10.546  15.893  0.00  0.00    +0.000 NA
ATOM     24  C   UNL     1      49.193  11.215  16.990  0.00  0.00    +0.000 A 
ATOM     25  N   UNL     1      49.567  10.696  18.155  0.00  0.00    +0.000 NA
ATOM     26  C   UNL     1      49.549   9.352  18.162  0.00  0.00    +0.000 A 
ATOM     27  S   UNL     1      50.003   8.519  19.568  0.00  0.00    +0.000 S 
ATOM     28  C   UNL     1      49.741   7.017  18.822  0.00  0.00    +0.000 A 
ATOM     29  C   UNL     1      49.304   7.109  17.505  0.00  0.00    +0.000 A 
ATOM     30  C   UNL     1      49.191   8.511  17.111  0.00  0.00    +0.000 A 
BRANCH  22  32
ATOM     31  C   UNL     1      48.337   9.345  13.661  0.00  0.00    +0.000 C 
ATOM     32  O   UNL     1      48.414   8.514  14.817  0.00  0.00    +0.000 OA
ENDBRANCH  22  32
ENDBRANCH  18  29
ENDBRANCH   1  20
TORSDOF 7
ENDMDL
MODEL 6
REMARK VINA RESULT:    -6.713      4.877      9.131
REMARK INTER + INTRA:         -10.742
REMARK INTER:                  -9.760
REMARK INTRA:                  -0.981
REMARK UNBOUND:                -1.282
REMARK  Name = 
REMARK  8 active torsions:
REMARK  status: ('A' for Active; 'I' for Inactive)
REMARK    1  A    between atoms: C_1  and  O_2
REMARK    2  A    between atoms: O_2  and  C_3
REMARK    3  A    between atoms: C_10  and  C_11
REMARK    4  A    between atoms: N_13  and  C_14
REMARK    5  A    between atoms: C_14  and  C_15
REMARK    6  A    between atoms: C_18  and  N_19
REMARK    7  A    between atoms: N_19  and  C_20
REMARK    8  A    between atoms: C_20  and  C_21
REMARK                            x       y       z     vdW  Elec       q    Type
REMARK                         _______ _______ _______ _____ _____    ______ ____
ROOT
ATOM      1  C   UNL     1      47.519   3.450  17.074  0.00  0.00    +0.000 C 
ENDROOT
BRANCH   1   2
ATOM      2  C   UNL     1      49.008   3.330  17.265  0.00  0.00    +0.000 A 
ATOM      3  C   UNL     1      49.786   4.440  17.618  0.00  0.00    +0.000 A 
ATOM      4  C   UNL     1      51.172   4.317  17.801  0.00  0.00    +0.000 A 
ATOM      5  C   UNL     1      51.807   3.083  17.647  0.00  0.00    +0.000 A 
ATOM      6  C   UNL     1      51.034   1.994  17.224  0.00  0.00    +0.000 A 
ATOM      7  C   UNL     1      49.652   2.107  17.050  0.00  0.00    +0.000 A 
BRANCH   5   8
ATOM      8  N   UNL     1      53.184   2.881  17.785  0.00  0.00    +0.000 N 
ATOM      9  H   UNL     1      53.663   3.770  17.905  0.00  0.00    +0.000 HD
BRANCH   8  10
ATOM     10  C   UNL     1      53.657   1.887  18.741  0.00  0.00    +0.000 C 
BRANCH  10  11
ATOM     11  C   UNL     1      54.263   0.694  18.023  0.00  0.00    +0.000 A 
ATOM     12  C   UNL     1      54.269  -0.567  18.642  0.00  0.00    +0.000 A 
ATOM     13  C   UNL     1      54.743  -1.695  17.964  0.00  0.00    +0.000 A 
ATOM     14  C   UNL     1      55.208  -1.575  16.657  0.00  0.00    +0.000 A 
ATOM     15 CL   UNL     1      55.775  -2.967  15.818  0.00  0.00    +0.000 Cl
ATOM     16  C   UNL     1      55.205  -0.337  16.022  0.00  0.00    +0.000 A 
ATOM     17  C   UNL     1      54.727   0.788  16.698  0.00  0.00    +0.000 A 
ENDBRANCH  10  11
ENDBRANCH   8  10
ENDBRANCH   5   8
ENDBRANCH   1   2
BRANCH   1  20
ATOM     18  C   UNL     1      47.173   4.305  14.802  0.00  0.00    +0.000 C 
ATOM     19  O   UNL     1      47.433   3.203  14.325  0.00  0.00    +0.000 OA
ATOM     20  N   UNL     1      47.193   4.511  16.155  0.00  0.00    +0.000 N 
ATOM     21  H   UNL     1      47.044   5.437  16.534  0.00  0.00    +0.000 HD
BRANCH  18  29
ATOM     22  C   UNL     1      44.571   4.950  12.635  0.00  0.00    +0.000 A 
ATOM     23  N   UNL     1      43.694   5.456  11.743  0.00  0.00    +0.000 NA
ATOM     24  C   UNL     1      43.939   6.667  11.236  0.00  0.00    +0.000 A 
ATOM     25  N   UNL     1      44.974   7.455  11.512  0.00  0.00    +0.000 NA
ATOM     26  C   UNL     1      45.820   6.917  12.408  0.00  0.00    +0.000 A 
ATOM     27  S   UNL     1      47.201   7.784  12.874  0.00  0.00    +0.000 S 
ATOM     28  C   UNL     1      47.691   6.537  13.917  0.00  0.00    +0.000 A 
ATOM     29  C   UNL     1      46.828   5.448  13.939  0.00  0.00    +0.000 A 
ATOM     30  C   UNL     1      45.706   5.678  13.031  0.00  0.00    +0.000 A 
BRANCH  22  32
ATOM     31  C   UNL     1      43.507   2.894  12.327  0.00  0.00    +0.000 C 
ATOM     32  O   UNL     1      44.292   3.718  13.187  0.00  0.00    +0.000 OA
ENDBRANCH  22  32
ENDBRANCH  18  29
ENDBRANCH   1  20
TORSDOF 7
ENDMDL
MODEL 7
REMARK VINA RESULT:    -6.243      4.088      8.974
REMARK INTER + INTRA:         -10.080
REMARK INTER:                  -8.708
REMARK INTRA:                  -1.372
REMARK UNBOUND:                -1.282
REMARK  Name = 
REMARK  8 active torsions:
REMARK  status: ('A' for Active; 'I' for Inactive)
REMARK    1  A    between atoms: C_1  and  O_2
REMARK    2  A    between atoms: O_2  and  C_3
REMARK    3  A    between atoms: C_10  and  C_11
REMARK    4  A    between atoms: N_13  and  C_14
REMARK    5  A    between atoms: C_14  and  C_15
REMARK    6  A    between atoms: C_18  and  N_19
REMARK    7  A    between atoms: N_19  and  C_20
REMARK    8  A    between atoms: C_20  and  C_21
REMARK                            x       y       z     vdW  Elec       q    Type
REMARK                         _______ _______ _______ _____ _____    ______ ____
ROOT
ATOM      1  C   UNL     1      47.387   3.264  16.558  0.00  0.00    +0.000 C 
ENDROOT
BRANCH   1   2
ATOM      2  C   UNL     1      48.683   3.606  17.244  0.00  0.00    +0.000 A 
ATOM      3  C   UNL     1      48.818   4.782  17.993  0.00  0.00    +0.000 A 
ATOM      4  C   UNL     1      50.028   5.089  18.636  0.00  0.00    +0.000 A 
ATOM      5  C   UNL     1      51.122   4.224  18.552  0.00  0.00    +0.000 A 
ATOM      6  C   UNL     1      51.001   3.087  17.743  0.00  0.00    +0.000 A 
ATOM      7  C   UNL     1      49.796   2.771  17.109  0.00  0.00    +0.000 A 
BRANCH   5   8
ATOM      8  N   UNL     1      52.368   4.468  19.139  0.00  0.00    +0.000 N 
ATOM      9  H   UNL     1      52.618   3.712  19.770  0.00  0.00    +0.000 HD
BRANCH   8  10
ATOM     10  C   UNL     1      53.487   4.840  18.281  0.00  0.00    +0.000 C 
BRANCH  10  11
ATOM     11  C   UNL     1      53.258   6.205  17.657  0.00  0.00    +0.000 A 
ATOM     12  C   UNL     1      53.077   6.319  16.269  0.00  0.00    +0.000 A 
ATOM     13  C   UNL     1      52.778   7.554  15.684  0.00  0.00    +0.000 A 
ATOM     14  C   UNL     1      52.649   8.687  16.484  0.00  0.00    +0.000 A 
ATOM     15 CL   UNL     1      52.263  10.203  15.765  0.00  0.00    +0.000 Cl
ATOM     16  C   UNL     1      52.817   8.597  17.862  0.00  0.00    +0.000 A 
ATOM     17  C   UNL     1      53.110   7.361  18.445  0.00  0.00    +0.000 A 
ENDBRANCH  10  11
ENDBRANCH   8  10
ENDBRANCH   5   8
ENDBRANCH   1   2
BRANCH   1  20
ATOM     18  C   UNL     1      46.868   4.182  14.344  0.00  0.00    +0.000 C 
ATOM     19  O   UNL     1      47.169   3.118  13.809  0.00  0.00    +0.000 OA
ATOM     20  N   UNL     1      46.948   4.338  15.702  0.00  0.00    +0.000 N 
ATOM     21  H   UNL     1      46.764   5.237  16.126  0.00  0.00    +0.000 HD
BRANCH  18  29
ATOM     22  C   UNL     1      43.986   4.857  12.579  0.00  0.00    +0.000 A 
ATOM     23  N   UNL     1      42.992   5.374  11.827  0.00  0.00    +0.000 NA
ATOM     24  C   UNL     1      43.169   6.587  11.298  0.00  0.00    +0.000 A 
ATOM     25  N   UNL     1      44.237   7.368  11.427  0.00  0.00    +0.000 NA
ATOM     26  C   UNL     1      45.200   6.820  12.188  0.00  0.00    +0.000 A 
ATOM     27  S   UNL     1      46.639   7.676  12.456  0.00  0.00    +0.000 S 
ATOM     28  C   UNL     1      47.267   6.418  13.409  0.00  0.00    +0.000 A 
ATOM     29  C   UNL     1      46.410   5.333  13.547  0.00  0.00    +0.000 A 
ATOM     30  C   UNL     1      45.170   5.576  12.813  0.00  0.00    +0.000 A 
BRANCH  22  32
ATOM     31  C   UNL     1      43.526   2.599  12.196  0.00  0.00    +0.000 C 
ATOM     32  O   UNL     1      43.781   3.622  13.157  0.00  0.00    +0.000 OA
ENDBRANCH  22  32
ENDBRANCH  18  29
ENDBRANCH   1  20
TORSDOF 7
ENDMDL
MODEL 8
REMARK VINA RESULT:    -6.219      2.628      3.965
REMARK INTER + INTRA:         -10.046
REMARK INTER:                  -8.908
REMARK INTRA:                  -1.138
REMARK UNBOUND:                -1.282
REMARK  Name = 
REMARK  8 active torsions:
REMARK  status: ('A' for Active; 'I' for Inactive)
REMARK    1  A    between atoms: C_1  and  O_2
REMARK    2  A    between atoms: O_2  and  C_3
REMARK    3  A    between atoms: C_10  and  C_11
REMARK    4  A    between atoms: N_13  and  C_14
REMARK    5  A    between atoms: C_14  and  C_15
REMARK    6  A    between atoms: C_18  and  N_19
REMARK    7  A    between atoms: N_19  and  C_20
REMARK    8  A    between atoms: C_20  and  C_21
REMARK                            x       y       z     vdW  Elec       q    Type
REMARK                         _______ _______ _______ _____ _____    ______ ____
ROOT
ATOM      1  C   UNL     1      49.779   8.187  16.751  0.00  0.00    +0.000 C 
ENDROOT
BRANCH   1   2
ATOM      2  C   UNL     1      48.890   7.965  15.556  0.00  0.00    +0.000 A 
ATOM      3  C   UNL     1      48.257   9.037  14.914  0.00  0.00    +0.000 A 
ATOM      4  C   UNL     1      47.437   8.821  13.796  0.00  0.00    +0.000 A 
ATOM      5  C   UNL     1      47.241   7.534  13.290  0.00  0.00    +0.000 A 
ATOM      6  C   UNL     1      47.819   6.462  13.980  0.00  0.00    +0.000 A 
ATOM      7  C   UNL     1      48.645   6.670  15.088  0.00  0.00    +0.000 A 
BRANCH   5   8
ATOM      8  N   UNL     1      46.419   7.231  12.199  0.00  0.00    +0.000 N 
ATOM      9  H   UNL     1      46.951   6.757  11.475  0.00  0.00    +0.000 HD
BRANCH   8  10
ATOM     10  C   UNL     1      45.143   6.569  12.443  0.00  0.00    +0.000 C 
BRANCH  10  11
ATOM     11  C   UNL     1      44.988   5.351  11.550  0.00  0.00    +0.000 A 
ATOM     12  C   UNL     1      45.384   5.416  10.204  0.00  0.00    +0.000 A 
ATOM     13  C   UNL     1      45.332   4.281   9.387  0.00  0.00    +0.000 A 
ATOM     14  C   UNL     1      44.888   3.069   9.911  0.00  0.00    +0.000 A 
ATOM     15 CL   UNL     1      44.839   1.670   8.909  0.00  0.00    +0.000 Cl
ATOM     16  C   UNL     1      44.496   2.981  11.243  0.00  0.00    +0.000 A 
ATOM     17  C   UNL     1      44.555   4.114  12.059  0.00  0.00    +0.000 A 
ENDBRANCH  10  11
ENDBRANCH   8  10
ENDBRANCH   5   8
ENDBRANCH   1   2
BRANCH   1  20
ATOM     18  C   UNL     1      50.483   6.238  18.063  0.00  0.00    +0.000 C 
ATOM     19  O   UNL     1      49.591   6.442  18.883  0.00  0.00    +0.000 OA
ATOM     20  N   UNL     1      50.644   7.056  16.977  0.00  0.00    +0.000 N 
ATOM     21  H   UNL     1      51.422   6.921  16.345  0.00  0.00    +0.000 HD
BRANCH  18  29
ATOM     22  C   UNL     1      50.318   2.896  17.236  0.00  0.00    +0.000 A 
ATOM     23  N   UNL     1      50.522   1.578  17.030  0.00  0.00    +0.000 NA
ATOM     24  C   UNL     1      51.680   1.050  17.432  0.00  0.00    +0.000 A 
ATOM     25  N   UNL     1      52.685   1.685  18.028  0.00  0.00    +0.000 NA
ATOM     26  C   UNL     1      52.445   2.995  18.209  0.00  0.00    +0.000 A 
ATOM     27  S   UNL     1      53.618   3.961  18.962  0.00  0.00    +0.000 S 
ATOM     28  C   UNL     1      52.638   5.341  18.828  0.00  0.00    +0.000 A 
ATOM     29  C   UNL     1      51.414   5.106  18.214  0.00  0.00    +0.000 A 
ATOM     30  C   UNL     1      51.299   3.697  17.845  0.00  0.00    +0.000 A 
BRANCH  22  32
ATOM     31  C   UNL     1      48.060   3.272  17.699  0.00  0.00    +0.000 C 
ATOM     32  O   UNL     1      49.138   3.445  16.781  0.00  0.00    +0.000 OA
ENDBRANCH  22  32
ENDBRANCH  18  29
ENDBRANCH   1  20
TORSDOF 7
ENDMDL
MODEL 9
REMARK VINA RESULT:    -5.625      5.204      6.830
REMARK INTER + INTRA:          -9.208
REMARK INTER:                  -7.803
REMARK INTRA:                  -1.406
REMARK UNBOUND:                -1.282
REMARK  Name = 
REMARK  8 active torsions:
REMARK  status: ('A' for Active; 'I' for Inactive)
REMARK    1  A    between atoms: C_1  and  O_2
REMARK    2  A    between atoms: O_2  and  C_3
REMARK    3  A    between atoms: C_10  and  C_11
REMARK    4  A    between atoms: N_13  and  C_14
REMARK    5  A    between atoms: C_14  and  C_15
REMARK    6  A    between atoms: C_18  and  N_19
REMARK    7  A    between atoms: N_19  and  C_20
REMARK    8  A    between atoms: C_20  and  C_21
REMARK                            x       y       z     vdW  Elec       q    Type
REMARK                         _______ _______ _______ _____ _____    ______ ____
ROOT
ATOM      1  C   UNL     1      47.984   9.908  11.897  0.00  0.00    +0.000 C 
ENDROOT
BRANCH   1   2
ATOM      2  C   UNL     1      49.431   9.814  11.491  0.00  0.00    +0.000 A 
ATOM      3  C   UNL     1      50.053  10.848  10.780  0.00  0.00    +0.000 A 
ATOM      4  C   UNL     1      51.404  10.754  10.412  0.00  0.00    +0.000 A 
ATOM      5  C   UNL     1      52.164   9.633  10.757  0.00  0.00    +0.000 A 
ATOM      6  C   UNL     1      51.516   8.575  11.404  0.00  0.00    +0.000 A 
ATOM      7  C   UNL     1      50.173   8.665  11.782  0.00  0.00    +0.000 A 
BRANCH   5   8
ATOM      8  N   UNL     1      53.505   9.451  10.406  0.00  0.00    +0.000 N 
ATOM      9  H   UNL     1      53.911   8.686  10.938  0.00  0.00    +0.000 HD
BRANCH   8  10
ATOM     10  C   UNL     1      53.857   9.363   8.993  0.00  0.00    +0.000 C 
BRANCH  10  11
ATOM     11  C   UNL     1      53.761   7.930   8.502  0.00  0.00    +0.000 A 
ATOM     12  C   UNL     1      52.616   7.502   7.811  0.00  0.00    +0.000 A 
ATOM     13  C   UNL     1      52.543   6.212   7.274  0.00  0.00    +0.000 A 
ATOM     14  C   UNL     1      53.620   5.339   7.418  0.00  0.00    +0.000 A 
ATOM     15 CL   UNL     1      53.536   3.758   6.742  0.00  0.00    +0.000 Cl
ATOM     16  C   UNL     1      54.766   5.744   8.093  0.00  0.00    +0.000 A 
ATOM     17  C   UNL     1      54.839   7.035   8.623  0.00  0.00    +0.000 A 
ENDBRANCH  10  11
ENDBRANCH   8  10
ENDBRANCH   5   8
ENDBRANCH   1   2
BRANCH   1  20
ATOM     18  C   UNL     1      46.068   8.445  12.351  0.00  0.00    +0.000 C 
ATOM     19  O   UNL     1      45.362   9.416  12.611  0.00  0.00    +0.000 OA
ATOM     20  N   UNL     1      47.379   8.603  11.988  0.00  0.00    +0.000 N 
ATOM     21  H   UNL     1      47.970   7.795  11.842  0.00  0.00    +0.000 HD
BRANCH  18  29
ATOM     22  C   UNL     1      47.353   5.445  13.459  0.00  0.00    +0.000 A 
ATOM     23  N   UNL     1      47.596   4.165  13.809  0.00  0.00    +0.000 NA
ATOM     24  C   UNL     1      46.635   3.262  13.599  0.00  0.00    +0.000 A 
ATOM     25  N   UNL     1      45.435   3.479  13.070  0.00  0.00    +0.000 NA
ATOM     26  C   UNL     1      45.231   4.767  12.741  0.00  0.00    +0.000 A 
ATOM     27  S   UNL     1      43.752   5.225  12.047  0.00  0.00    +0.000 S 
ATOM     28  C   UNL     1      44.252   6.844  11.935  0.00  0.00    +0.000 A 
ATOM     29  C   UNL     1      45.535   7.074  12.418  0.00  0.00    +0.000 A 
ATOM     30  C   UNL     1      46.121   5.825  12.900  0.00  0.00    +0.000 A 
BRANCH  22  32
ATOM     31  C   UNL     1      48.506   6.627  15.111  0.00  0.00    +0.000 C 
ATOM     32  O   UNL     1      48.332   6.381  13.717  0.00  0.00    +0.000 OA
ENDBRANCH  22  32
ENDBRANCH  18  29
ENDBRANCH   1  20
TORSDOF 7
ENDMDL
