MODEL 1
REMARK VINA RESULT:    -8.224      0.000      0.000
REMARK INTER + INTRA:         -12.108
REMARK INTER:                 -11.350
REMARK INTRA:                  -0.758
REMARK UNBOUND:                -0.758
REMARK  Name = 
REMARK  10 active torsions:
REMARK  status: ('A' for Active; 'I' for Inactive)
REMARK    1  A    between atoms: C_1  and  C_2
REMARK    2  A    between atoms: C_2  and  C_3
REMARK    3  A    between atoms: C_2  and  C_4
REMARK    4  A    between atoms: C_2  and  C_5
REMARK    5  A    between atoms: C_7  and  O_8
REMARK    6  A    between atoms: O_8  and  C_9
REMARK    7  A    between atoms: C_9  and  C_10
REMARK    8  A    between atoms: C_13  and  C_14
REMARK    9  A    between atoms: C_14  and  N_15
REMARK   10  A    between atoms: C_19  and  C_20
REMARK                            x       y       z     vdW  Elec       q    Type
REMARK                         _______ _______ _______ _____ _____    ______ ____
ROOT
ATOM      1  C   UNL     1      46.586   6.565  12.906  0.00  0.00    +0.000 A 
ATOM      2  C   UNL     1      45.582   6.035  12.105  0.00  0.00    +0.000 A 
ATOM      3  C   UNL     1      45.133   4.767  12.416  0.00  0.00    +0.000 A 
ATOM      4  N   UNL     1      45.619   4.039  13.424  0.00  0.00    +0.000 NA
ATOM      5  C   UNL     1      46.591   4.617  14.139  0.00  0.00    +0.000 A 
ATOM      6  N   UNL     1      47.103   5.854  13.935  0.00  0.00    +0.000 NA
ENDROOT
BRANCH   5   7
ATOM      7  C   UNL     1      47.168   3.798  15.267  0.00  0.00    +0.000 C 
ATOM      8  N   UNL     1      46.832   4.205  16.534  0.00  0.00    +0.000 N 
ATOM      9  O   UNL     1      47.897   2.829  15.100  0.00  0.00    +0.000 OA
ATOM     10  H   UNL     1      46.239   5.013  16.673  0.00  0.00    +0.000 HD
ATOM     11  H   UNL     1      47.206   3.696  17.322  0.00  0.00    +0.000 HD
ENDBRANCH   5   7
BRANCH   1  13
ATOM     12  C   UNL     1      46.038   8.886  12.089  0.00  0.00    +0.000 C 
ATOM     13  C   UNL     1      47.145   7.973  12.651  0.00  0.00    +0.000 C 
ATOM     14  C   UNL     1      48.316   7.908  11.652  0.00  0.00    +0.000 C 
ATOM     15  C   UNL     1      47.678   8.623  13.949  0.00  0.00    +0.000 C 
ENDBRANCH   1  13
BRANCH   3  16
ATOM     16  O   UNL     1      44.125   4.229  11.635  0.00  0.00    +0.000 OA
BRANCH  16  17
ATOM     17  C   UNL     1      44.151   4.764  10.301  0.00  0.00    +0.000 C 
BRANCH  17  18
ATOM     18  C   UNL     1      44.899   3.863   9.345  0.00  0.00    +0.000 A 
ATOM     19  C   UNL     1      45.698   4.433   8.340  0.00  0.00    +0.000 A 
ATOM     20  C   UNL     1      46.464   3.630   7.491  0.00  0.00    +0.000 A 
ATOM     21  C   UNL     1      46.457   2.237   7.634  0.00  0.00    +0.000 A 
ATOM     22  C   UNL     1      45.667   1.669   8.647  0.00  0.00    +0.000 A 
ATOM     23  C   UNL     1      44.903   2.474   9.497  0.00  0.00    +0.000 A 
BRANCH  21  24
ATOM     24  C   UNL     1      47.253   1.357   6.706  0.00  0.00    +0.000 C 
BRANCH  24  25
ATOM     25  N   UNL     1      48.510   1.980   6.310  0.00  0.00    +0.000 NA
ATOM     26  H   UNL     1      48.534   2.052   5.294  0.00  0.00    +0.000 HD
ATOM     27  H   UNL     1      49.281   1.371   6.575  0.00  0.00    +0.000 HD
ENDBRANCH  24  25
ENDBRANCH  21  24
ENDBRANCH  17  18
ENDBRANCH  16  17
ENDBRANCH   3  16
TORSDOF 7
ENDMDL
MODEL 2
REMARK VINA RESULT:    -8.158      0.210      1.025
REMARK INTER + INTRA:         -12.016
REMARK INTER:                 -11.302
REMARK INTRA:                  -0.715
REMARK UNBOUND:                -0.758
REMARK  Name = 
REMARK  10 active torsions:
REMARK  status: ('A' for Active; 'I' for Inactive)
REMARK    1  A    between atoms: C_1  and  C_2
REMARK    2  A    between atoms: C_2  and  C_3
REMARK    3  A    between atoms: C_2  and  C_4
REMARK    4  A    between atoms: C_2  and  C_5
REMARK    5  A    between atoms: C_7  and  O_8
REMARK    6  A    between atoms: O_8  and  C_9
REMARK    7  A    between atoms: C_9  and  C_10
REMARK    8  A    between atoms: C_13  and  C_14
REMARK    9  A    between atoms: C_14  and  N_15
REMARK   10  A    between atoms: C_19  and  C_20
REMARK                            x       y       z     vdW  Elec       q    Type
REMARK                         _______ _______ _______ _____ _____    ______ ____
ROOT
ATOM      1  C   UNL     1      46.504   6.555  12.938  0.00  0.00    +0.000 A 
ATOM      2  C   UNL     1      45.494   5.976  12.180  0.00  0.00    +0.000 A 
ATOM      3  C   UNL     1      45.079   4.711  12.545  0.00  0.00    +0.000 A 
ATOM      4  N   UNL     1      45.604   4.029  13.565  0.00  0.00    +0.000 NA
ATOM      5  C   UNL     1      46.579   4.653  14.237  0.00  0.00    +0.000 A 
ATOM      6  N   UNL     1      47.060   5.892  13.978  0.00  0.00    +0.000 NA
ENDROOT
BRANCH   5   7
ATOM      7  C   UNL     1      47.199   3.886  15.378  0.00  0.00    +0.000 C 
ATOM      8  N   UNL     1      47.052   4.444  16.624  0.00  0.00    +0.000 N 
ATOM      9  O   UNL     1      47.806   2.832  15.240  0.00  0.00    +0.000 OA
ATOM     10  H   UNL     1      46.560   5.321  16.737  0.00  0.00    +0.000 HD
ATOM     11  H   UNL     1      47.463   3.975  17.418  0.00  0.00    +0.000 HD
ENDBRANCH   5   7
BRANCH   1  13
ATOM     12  C   UNL     1      45.905   8.813  11.992  0.00  0.00    +0.000 C 
ATOM     13  C   UNL     1      47.027   7.964  12.622  0.00  0.00    +0.000 C 
ATOM     14  C   UNL     1      48.220   7.884  11.650  0.00  0.00    +0.000 C 
ATOM     15  C   UNL     1      47.512   8.697  13.894  0.00  0.00    +0.000 C 
ENDBRANCH   1  13
BRANCH   3  16
ATOM     16  O   UNL     1      44.065   4.126  11.806  0.00  0.00    +0.000 OA
BRANCH  16  17
ATOM     17  C   UNL     1      44.006   4.664  10.476  0.00  0.00    +0.000 C 
BRANCH  17  18
ATOM     18  C   UNL     1      44.912   3.920   9.521  0.00  0.00    +0.000 A 
ATOM     19  C   UNL     1      44.922   2.515   9.530  0.00  0.00    +0.000 A 
ATOM     20  C   UNL     1      45.687   1.798   8.607  0.00  0.00    +0.000 A 
ATOM     21  C   UNL     1      46.454   2.469   7.646  0.00  0.00    +0.000 A 
ATOM     22  C   UNL     1      46.433   3.873   7.631  0.00  0.00    +0.000 A 
ATOM     23  C   UNL     1      45.666   4.589   8.553  0.00  0.00    +0.000 A 
BRANCH  21  24
ATOM     24  C   UNL     1      47.308   1.709   6.665  0.00  0.00    +0.000 C 
BRANCH  24  25
ATOM     25  N   UNL     1      48.574   2.386   6.407  0.00  0.00    +0.000 NA
ATOM     26  H   UNL     1      49.266   2.050   7.074  0.00  0.00    +0.000 HD
ATOM     27  H   UNL     1      48.460   3.381   6.582  0.00  0.00    +0.000 HD
ENDBRANCH  24  25
ENDBRANCH  21  24
ENDBRANCH  17  18
ENDBRANCH  16  17
ENDBRANCH   3  16
TORSDOF 7
ENDMDL
MODEL 3
REMARK VINA RESULT:    -7.720      2.227      3.483
REMARK INTER + INTRA:         -11.412
REMARK INTER:                 -10.617
REMARK INTRA:                  -0.795
REMARK UNBOUND:                -0.758
REMARK  Name = 
REMARK  10 active torsions:
REMARK  status: ('A' for Active; 'I' for Inactive)
REMARK    1  A    between atoms: C_1  and  C_2
REMARK    2  A    between atoms: C_2  and  C_3
REMARK    3  A    between atoms: C_2  and  C_4
REMARK    4  A    between atoms: C_2  and  C_5
REMARK    5  A    between atoms: C_7  and  O_8
REMARK    6  A    between atoms: O_8  and  C_9
REMARK    7  A    between atoms: C_9  and  C_10
REMARK    8  A    between atoms: C_13  and  C_14
REMARK    9  A    between atoms: C_14  and  N_15
REMARK   10  A    between atoms: C_19  and  C_20
REMARK                            x       y       z     vdW  Elec       q    Type
REMARK                         _______ _______ _______ _____ _____    ______ ____
ROOT
ATOM      1  C   UNL     1      46.625   6.898  12.814  0.00  0.00    +0.000 A 
ATOM      2  C   UNL     1      46.078   5.641  12.583  0.00  0.00    +0.000 A 
ATOM      3  C   UNL     1      44.910   5.589  11.849  0.00  0.00    +0.000 A 
ATOM      4  N   UNL     1      44.291   6.670  11.370  0.00  0.00    +0.000 NA
ATOM      5  C   UNL     1      44.876   7.841  11.646  0.00  0.00    +0.000 A 
ATOM      6  N   UNL     1      46.022   8.015  12.346  0.00  0.00    +0.000 NA
ENDROOT
BRANCH   5   7
ATOM      7  C   UNL     1      44.175   9.075  11.134  0.00  0.00    +0.000 C 
ATOM      8  N   UNL     1      42.871   8.902  10.741  0.00  0.00    +0.000 N 
ATOM      9  O   UNL     1      44.705  10.176  11.056  0.00  0.00    +0.000 OA
ATOM     10  H   UNL     1      42.436   7.989  10.795  0.00  0.00    +0.000 HD
ATOM     11  H   UNL     1      42.364   9.695  10.377  0.00  0.00    +0.000 HD
ENDBRANCH   5   7
BRANCH   1  13
ATOM     12  C   UNL     1      49.140   6.970  12.660  0.00  0.00    +0.000 C 
ATOM     13  C   UNL     1      47.929   7.063  13.608  0.00  0.00    +0.000 C 
ATOM     14  C   UNL     1      48.036   5.969  14.689  0.00  0.00    +0.000 C 
ATOM     15  C   UNL     1      47.997   8.432  14.325  0.00  0.00    +0.000 C 
ENDBRANCH   1  13
BRANCH   3  16
ATOM     16  O   UNL     1      44.360   4.343  11.600  0.00  0.00    +0.000 OA
BRANCH  16  17
ATOM     17  C   UNL     1      43.778   4.277  10.289  0.00  0.00    +0.000 C 
BRANCH  17  18
ATOM     18  C   UNL     1      44.690   3.588   9.298  0.00  0.00    +0.000 A 
ATOM     19  C   UNL     1      45.422   4.359   8.380  0.00  0.00    +0.000 A 
ATOM     20  C   UNL     1      46.333   3.759   7.506  0.00  0.00    +0.000 A 
ATOM     21  C   UNL     1      46.540   2.375   7.537  0.00  0.00    +0.000 A 
ATOM     22  C   UNL     1      45.817   1.607   8.464  0.00  0.00    +0.000 A 
ATOM     23  C   UNL     1      44.908   2.208   9.339  0.00  0.00    +0.000 A 
BRANCH  21  24
ATOM     24  C   UNL     1      47.496   1.711   6.580  0.00  0.00    +0.000 C 
BRANCH  24  25
ATOM     25  N   UNL     1      48.666   2.541   6.315  0.00  0.00    +0.000 NA
ATOM     26  H   UNL     1      48.473   3.129   5.507  0.00  0.00    +0.000 HD
ATOM     27  H   UNL     1      49.447   1.942   6.058  0.00  0.00    +0.000 HD
ENDBRANCH  24  25
ENDBRANCH  21  24
ENDBRANCH  17  18
ENDBRANCH  16  17
ENDBRANCH   3  16
TORSDOF 7
ENDMDL
MODEL 4
REMARK VINA RESULT:    -6.756      2.996      7.168
REMARK INTER + INTRA:         -10.082
REMARK INTER:                  -9.440
REMARK INTRA:                  -0.642
REMARK UNBOUND:                -0.758
REMARK  Name = 
REMARK  10 active torsions:
REMARK  status: ('A' for Active; 'I' for Inactive)
REMARK    1  A    between atoms: C_1  and  C_2
REMARK    2  A    between atoms: C_2  and  C_3
REMARK    3  A    between atoms: C_2  and  C_4
REMARK    4  A    between atoms: C_2  and  C_5
REMARK    5  A    between atoms: C_7  and  O_8
REMARK    6  A    between atoms: O_8  and  C_9
REMARK    7  A    between atoms: C_9  and  C_10
REMARK    8  A    between atoms: C_13  and  C_14
REMARK    9  A    between atoms: C_14  and  N_15
REMARK   10  A    between atoms: C_19  and  C_20
REMARK                            x       y       z     vdW  Elec       q    Type
REMARK                         _______ _______ _______ _____ _____    ______ ____
ROOT
ATOM      1  C   UNL     1      46.423   5.768  12.628  0.00  0.00    +0.000 A 
ATOM      2  C   UNL     1      47.093   5.039  13.603  0.00  0.00    +0.000 A 
ATOM      3  C   UNL     1      46.769   3.702  13.722  0.00  0.00    +0.000 A 
ATOM      4  N   UNL     1      45.853   3.095  12.965  0.00  0.00    +0.000 NA
ATOM      5  C   UNL     1      45.246   3.870  12.058  0.00  0.00    +0.000 A 
ATOM      6  N   UNL     1      45.486   5.185  11.845  0.00  0.00    +0.000 NA
ENDROOT
BRANCH   5   7
ATOM      7  C   UNL     1      44.189   3.205  11.212  0.00  0.00    +0.000 C 
ATOM      8  N   UNL     1      44.651   2.458  10.157  0.00  0.00    +0.000 N 
ATOM      9  O   UNL     1      42.987   3.307  11.420  0.00  0.00    +0.000 OA
ATOM     10  H   UNL     1      45.645   2.382   9.978  0.00  0.00    +0.000 HD
ATOM     11  H   UNL     1      43.981   2.005   9.553  0.00  0.00    +0.000 HD
ENDBRANCH   5   7
BRANCH   1  13
ATOM     12  C   UNL     1      45.475   7.965  11.836  0.00  0.00    +0.000 C 
ATOM     13  C   UNL     1      46.720   7.259  12.407  0.00  0.00    +0.000 C 
ATOM     14  C   UNL     1      47.901   7.427  11.432  0.00  0.00    +0.000 C 
ATOM     15  C   UNL     1      47.101   7.971  13.726  0.00  0.00    +0.000 C 
ENDBRANCH   1  13
BRANCH   3  16
ATOM     16  O   UNL     1      47.437   2.959  14.681  0.00  0.00    +0.000 OA
BRANCH  16  17
ATOM     17  C   UNL     1      47.462   3.637  15.947  0.00  0.00    +0.000 C 
BRANCH  17  18
ATOM     18  C   UNL     1      48.785   3.461  16.658  0.00  0.00    +0.000 A 
ATOM     19  C   UNL     1      49.402   2.199  16.669  0.00  0.00    +0.000 A 
ATOM     20  C   UNL     1      50.661   2.021  17.248  0.00  0.00    +0.000 A 
ATOM     21  C   UNL     1      51.338   3.105  17.821  0.00  0.00    +0.000 A 
ATOM     22  C   UNL     1      50.726   4.368  17.798  0.00  0.00    +0.000 A 
ATOM     23  C   UNL     1      49.467   4.545  17.217  0.00  0.00    +0.000 A 
BRANCH  21  24
ATOM     24  C   UNL     1      52.683   2.922  18.476  0.00  0.00    +0.000 C 
BRANCH  24  25
ATOM     25  N   UNL     1      52.782   3.659  19.731  0.00  0.00    +0.000 NA
ATOM     26  H   UNL     1      51.987   4.292  19.802  0.00  0.00    +0.000 HD
ATOM     27  H   UNL     1      53.616   4.241  19.709  0.00  0.00    +0.000 HD
ENDBRANCH  24  25
ENDBRANCH  21  24
ENDBRANCH  17  18
ENDBRANCH  16  17
ENDBRANCH   3  16
TORSDOF 7
ENDMDL
MODEL 5
REMARK VINA RESULT:    -6.550      3.233      7.378
REMARK INTER + INTRA:          -9.798
REMARK INTER:                  -9.205
REMARK INTRA:                  -0.592
REMARK UNBOUND:                -0.758
REMARK  Name = 
REMARK  10 active torsions:
REMARK  status: ('A' for Active; 'I' for Inactive)
REMARK    1  A    between atoms: C_1  and  C_2
REMARK    2  A    between atoms: C_2  and  C_3
REMARK    3  A    between atoms: C_2  and  C_4
REMARK    4  A    between atoms: C_2  and  C_5
REMARK    5  A    between atoms: C_7  and  O_8
REMARK    6  A    between atoms: O_8  and  C_9
REMARK    7  A    between atoms: C_9  and  C_10
REMARK    8  A    between atoms: C_13  and  C_14
REMARK    9  A    between atoms: C_14  and  N_15
REMARK   10  A    between atoms: C_19  and  C_20
REMARK                            x       y       z     vdW  Elec       q    Type
REMARK                         _______ _______ _______ _____ _____    ______ ____
ROOT
ATOM      1  C   UNL     1      45.345   4.890  12.248  0.00  0.00    +0.000 A 
ATOM      2  C   UNL     1      45.865   3.893  13.064  0.00  0.00    +0.000 A 
ATOM      3  C   UNL     1      46.879   4.252  13.928  0.00  0.00    +0.000 A 
ATOM      4  N   UNL     1      47.379   5.487  14.006  0.00  0.00    +0.000 NA
ATOM      5  C   UNL     1      46.831   6.386  13.179  0.00  0.00    +0.000 A 
ATOM      6  N   UNL     1      45.829   6.153  12.299  0.00  0.00    +0.000 NA
ENDROOT
BRANCH   5   7
ATOM      7  C   UNL     1      47.402   7.781  13.237  0.00  0.00    +0.000 C 
ATOM      8  N   UNL     1      46.713   8.677  14.015  0.00  0.00    +0.000 N 
ATOM      9  O   UNL     1      48.411   8.129  12.637  0.00  0.00    +0.000 OA
ATOM     10  H   UNL     1      45.873   8.393  14.503  0.00  0.00    +0.000 HD
ATOM     11  H   UNL     1      47.048   9.628  14.074  0.00  0.00    +0.000 HD
ENDBRANCH   5   7
BRANCH   1  13
ATOM     12  C   UNL     1      43.133   5.700  11.349  0.00  0.00    +0.000 C 
ATOM     13  C   UNL     1      44.205   4.596  11.261  0.00  0.00    +0.000 C 
ATOM     14  C   UNL     1      43.566   3.231  11.578  0.00  0.00    +0.000 C 
ATOM     15  C   UNL     1      44.709   4.545   9.800  0.00  0.00    +0.000 C 
ENDBRANCH   1  13
BRANCH   3  16
ATOM     16  O   UNL     1      47.400   3.271  14.755  0.00  0.00    +0.000 OA
BRANCH  16  17
ATOM     17  C   UNL     1      47.412   3.693  16.128  0.00  0.00    +0.000 C 
BRANCH  17  18
ATOM     18  C   UNL     1      48.761   3.479  16.776  0.00  0.00    +0.000 A 
ATOM     19  C   UNL     1      49.344   2.200  16.753  0.00  0.00    +0.000 A 
ATOM     20  C   UNL     1      50.624   1.987  17.271  0.00  0.00    +0.000 A 
ATOM     21  C   UNL     1      51.356   3.049  17.815  0.00  0.00    +0.000 A 
ATOM     22  C   UNL     1      50.777   4.328  17.826  0.00  0.00    +0.000 A 
ATOM     23  C   UNL     1      49.498   4.542  17.305  0.00  0.00    +0.000 A 
BRANCH  21  24
ATOM     24  C   UNL     1      52.724   2.827  18.406  0.00  0.00    +0.000 C 
BRANCH  24  25
ATOM     25  N   UNL     1      53.047   1.409  18.514  0.00  0.00    +0.000 NA
ATOM     26  H   UNL     1      52.462   0.890  17.862  0.00  0.00    +0.000 HD
ATOM     27  H   UNL     1      52.803   1.083  19.446  0.00  0.00    +0.000 HD
ENDBRANCH  24  25
ENDBRANCH  21  24
ENDBRANCH  17  18
ENDBRANCH  16  17
ENDBRANCH   3  16
TORSDOF 7
ENDMDL
MODEL 6
REMARK VINA RESULT:    -6.543      2.413      4.200
REMARK INTER + INTRA:          -9.788
REMARK INTER:                  -9.188
REMARK INTRA:                  -0.600
REMARK UNBOUND:                -0.758
REMARK  Name = 
REMARK  10 active torsions:
REMARK  status: ('A' for Active; 'I' for Inactive)
REMARK    1  A    between atoms: C_1  and  C_2
REMARK    2  A    between atoms: C_2  and  C_3
REMARK    3  A    between atoms: C_2  and  C_4
REMARK    4  A    between atoms: C_2  and  C_5
REMARK    5  A    between atoms: C_7  and  O_8
REMARK    6  A    between atoms: O_8  and  C_9
REMARK    7  A    between atoms: C_9  and  C_10
REMARK    8  A    between atoms: C_13  and  C_14
REMARK    9  A    between atoms: C_14  and  N_15
REMARK   10  A    between atoms: C_19  and  C_20
REMARK                            x       y       z     vdW  Elec       q    Type
REMARK                         _______ _______ _______ _____ _____    ______ ____
ROOT
ATOM      1  C   UNL     1      48.113   4.922  16.268  0.00  0.00    +0.000 A 
ATOM      2  C   UNL     1      47.062   4.259  15.646  0.00  0.00    +0.000 A 
ATOM      3  C   UNL     1      46.715   4.679  14.378  0.00  0.00    +0.000 A 
ATOM      4  N   UNL     1      47.326   5.679  13.740  0.00  0.00    +0.000 NA
ATOM      5  C   UNL     1      48.320   6.273  14.411  0.00  0.00    +0.000 A 
ATOM      6  N   UNL     1      48.753   5.943  15.651  0.00  0.00    +0.000 NA
ENDROOT
BRANCH   5   7
ATOM      7  C   UNL     1      49.004   7.422  13.714  0.00  0.00    +0.000 C 
ATOM      8  N   UNL     1      49.236   7.254  12.371  0.00  0.00    +0.000 N 
ATOM      9  O   UNL     1      49.349   8.452  14.278  0.00  0.00    +0.000 OA
ATOM     10  H   UNL     1      48.962   6.398  11.907  0.00  0.00    +0.000 HD
ATOM     11  H   UNL     1      49.705   7.990  11.863  0.00  0.00    +0.000 HD
ENDBRANCH   5   7
BRANCH   1  13
ATOM     12  C   UNL     1      48.220   3.052  17.954  0.00  0.00    +0.000 C 
ATOM     13  C   UNL     1      48.583   4.523  17.674  0.00  0.00    +0.000 C 
ATOM     14  C   UNL     1      47.923   5.427  18.733  0.00  0.00    +0.000 C 
ATOM     15  C   UNL     1      50.115   4.667  17.830  0.00  0.00    +0.000 C 
ENDBRANCH   1  13
BRANCH   3  16
ATOM     16  O   UNL     1      45.677   4.020  13.741  0.00  0.00    +0.000 OA
BRANCH  16  17
ATOM     17  C   UNL     1      44.926   4.911  12.901  0.00  0.00    +0.000 C 
BRANCH  17  18
ATOM     18  C   UNL     1      45.033   4.537  11.440  0.00  0.00    +0.000 A 
ATOM     19  C   UNL     1      45.532   5.475  10.520  0.00  0.00    +0.000 A 
ATOM     20  C   UNL     1      45.718   5.134   9.178  0.00  0.00    +0.000 A 
ATOM     21  C   UNL     1      45.419   3.843   8.725  0.00  0.00    +0.000 A 
ATOM     22  C   UNL     1      44.933   2.903   9.648  0.00  0.00    +0.000 A 
ATOM     23  C   UNL     1      44.749   3.244  10.991  0.00  0.00    +0.000 A 
BRANCH  21  24
ATOM     24  C   UNL     1      45.585   3.471   7.275  0.00  0.00    +0.000 C 
BRANCH  24  25
ATOM     25  N   UNL     1      46.752   4.110   6.679  0.00  0.00    +0.000 NA
ATOM     26  H   UNL     1      46.842   5.049   7.063  0.00  0.00    +0.000 HD
ATOM     27  H   UNL     1      46.597   4.219   5.679  0.00  0.00    +0.000 HD
ENDBRANCH  24  25
ENDBRANCH  21  24
ENDBRANCH  17  18
ENDBRANCH  16  17
ENDBRANCH   3  16
TORSDOF 7
ENDMDL
MODEL 7
REMARK VINA RESULT:    -6.060      3.146      5.038
REMARK INTER + INTRA:          -9.121
REMARK INTER:                  -8.479
REMARK INTRA:                  -0.642
REMARK UNBOUND:                -0.758
REMARK  Name = 
REMARK  10 active torsions:
REMARK  status: ('A' for Active; 'I' for Inactive)
REMARK    1  A    between atoms: C_1  and  C_2
REMARK    2  A    between atoms: C_2  and  C_3
REMARK    3  A    between atoms: C_2  and  C_4
REMARK    4  A    between atoms: C_2  and  C_5
REMARK    5  A    between atoms: C_7  and  O_8
REMARK    6  A    between atoms: O_8  and  C_9
REMARK    7  A    between atoms: C_9  and  C_10
REMARK    8  A    between atoms: C_13  and  C_14
REMARK    9  A    between atoms: C_14  and  N_15
REMARK   10  A    between atoms: C_19  and  C_20
REMARK                            x       y       z     vdW  Elec       q    Type
REMARK                         _______ _______ _______ _____ _____    ______ ____
ROOT
ATOM      1  C   UNL     1      48.451   7.045  17.673  0.00  0.00    +0.000 A 
ATOM      2  C   UNL     1      48.660   7.220  16.310  0.00  0.00    +0.000 A 
ATOM      3  C   UNL     1      48.524   6.107  15.504  0.00  0.00    +0.000 A 
ATOM      4  N   UNL     1      48.219   4.894  15.968  0.00  0.00    +0.000 NA
ATOM      5  C   UNL     1      48.045   4.807  17.293  0.00  0.00    +0.000 A 
ATOM      6  N   UNL     1      48.142   5.828  18.177  0.00  0.00    +0.000 NA
ENDROOT
BRANCH   5   7
ATOM      7  C   UNL     1      47.724   3.438  17.836  0.00  0.00    +0.000 C 
ATOM      8  N   UNL     1      48.645   2.908  18.706  0.00  0.00    +0.000 N 
ATOM      9  O   UNL     1      46.717   2.807  17.540  0.00  0.00    +0.000 OA
ATOM     10  H   UNL     1      49.482   3.425  18.942  0.00  0.00    +0.000 HD
ATOM     11  H   UNL     1      48.481   1.987  19.086  0.00  0.00    +0.000 HD
ENDBRANCH   5   7
BRANCH   1  13
ATOM     12  C   UNL     1      48.095   9.522  17.970  0.00  0.00    +0.000 C 
ATOM     13  C   UNL     1      48.565   8.222  18.652  0.00  0.00    +0.000 C 
ATOM     14  C   UNL     1      50.023   8.385  19.121  0.00  0.00    +0.000 C 
ATOM     15  C   UNL     1      47.692   8.010  19.911  0.00  0.00    +0.000 C 
ENDBRANCH   1  13
BRANCH   3  16
ATOM     16  O   UNL     1      48.718   6.268  14.143  0.00  0.00    +0.000 OA
BRANCH  16  17
ATOM     17  C   UNL     1      47.703   7.102  13.563  0.00  0.00    +0.000 C 
BRANCH  17  18
ATOM     18  C   UNL     1      46.756   6.316  12.685  0.00  0.00    +0.000 A 
ATOM     19  C   UNL     1      45.858   5.410  13.273  0.00  0.00    +0.000 A 
ATOM     20  C   UNL     1      44.917   4.728  12.498  0.00  0.00    +0.000 A 
ATOM     21  C   UNL     1      44.844   4.944  11.116  0.00  0.00    +0.000 A 
ATOM     22  C   UNL     1      45.734   5.859  10.531  0.00  0.00    +0.000 A 
ATOM     23  C   UNL     1      46.674   6.542  11.308  0.00  0.00    +0.000 A 
BRANCH  21  24
ATOM     24  C   UNL     1      43.855   4.192  10.264  0.00  0.00    +0.000 C 
BRANCH  24  25
ATOM     25  N   UNL     1      44.119   4.367   8.841  0.00  0.00    +0.000 NA
ATOM     26  H   UNL     1      43.948   5.340   8.593  0.00  0.00    +0.000 HD
ATOM     27  H   UNL     1      43.454   3.811   8.309  0.00  0.00    +0.000 HD
ENDBRANCH  24  25
ENDBRANCH  21  24
ENDBRANCH  17  18
ENDBRANCH  16  17
ENDBRANCH   3  16
TORSDOF 7
ENDMDL
MODEL 8
REMARK VINA RESULT:    -5.993      3.343      7.924
REMARK INTER + INTRA:          -9.029
REMARK INTER:                  -8.348
REMARK INTRA:                  -0.681
REMARK UNBOUND:                -0.758
REMARK  Name = 
REMARK  10 active torsions:
REMARK  status: ('A' for Active; 'I' for Inactive)
REMARK    1  A    between atoms: C_1  and  C_2
REMARK    2  A    between atoms: C_2  and  C_3
REMARK    3  A    between atoms: C_2  and  C_4
REMARK    4  A    between atoms: C_2  and  C_5
REMARK    5  A    between atoms: C_7  and  O_8
REMARK    6  A    between atoms: O_8  and  C_9
REMARK    7  A    between atoms: C_9  and  C_10
REMARK    8  A    between atoms: C_13  and  C_14
REMARK    9  A    between atoms: C_14  and  N_15
REMARK   10  A    between atoms: C_19  and  C_20
REMARK                            x       y       z     vdW  Elec       q    Type
REMARK                         _______ _______ _______ _____ _____    ______ ____
ROOT
ATOM      1  C   UNL     1      44.822   5.751  12.211  0.00  0.00    +0.000 A 
ATOM      2  C   UNL     1      45.952   5.232  12.830  0.00  0.00    +0.000 A 
ATOM      3  C   UNL     1      46.891   6.136  13.285  0.00  0.00    +0.000 A 
ATOM      4  N   UNL     1      46.769   7.457  13.149  0.00  0.00    +0.000 NA
ATOM      5  C   UNL     1      45.657   7.875  12.533  0.00  0.00    +0.000 A 
ATOM      6  N   UNL     1      44.666   7.086  12.055  0.00  0.00    +0.000 NA
ENDROOT
BRANCH   5   7
ATOM      7  C   UNL     1      45.515   9.366  12.349  0.00  0.00    +0.000 C 
ATOM      8  N   UNL     1      44.235   9.857  12.417  0.00  0.00    +0.000 N 
ATOM      9  O   UNL     1      46.458  10.119  12.146  0.00  0.00    +0.000 OA
ATOM     10  H   UNL     1      43.453   9.232  12.573  0.00  0.00    +0.000 HD
ATOM     11  H   UNL     1      44.087  10.847  12.285  0.00  0.00    +0.000 HD
ENDBRANCH   5   7
BRANCH   1  13
ATOM     12  C   UNL     1      43.675   3.525  12.501  0.00  0.00    +0.000 C 
ATOM     13  C   UNL     1      43.712   4.830  11.682  0.00  0.00    +0.000 C 
ATOM     14  C   UNL     1      43.958   4.500  10.197  0.00  0.00    +0.000 C 
ATOM     15  C   UNL     1      42.318   5.491  11.787  0.00  0.00    +0.000 C 
ENDBRANCH   1  13
BRANCH   3  16
ATOM     16  O   UNL     1      48.018   5.634  13.914  0.00  0.00    +0.000 OA
BRANCH  16  17
ATOM     17  C   UNL     1      48.640   6.625  14.747  0.00  0.00    +0.000 C 
BRANCH  17  18
ATOM     18  C   UNL     1      48.609   6.239  16.208  0.00  0.00    +0.000 A 
ATOM     19  C   UNL     1      48.177   4.953  16.575  0.00  0.00    +0.000 A 
ATOM     20  C   UNL     1      48.212   4.539  17.909  0.00  0.00    +0.000 A 
ATOM     21  C   UNL     1      48.690   5.397  18.907  0.00  0.00    +0.000 A 
ATOM     22  C   UNL     1      49.133   6.677  18.537  0.00  0.00    +0.000 A 
ATOM     23  C   UNL     1      49.100   7.090  17.203  0.00  0.00    +0.000 A 
BRANCH  21  24
ATOM     24  C   UNL     1      48.705   4.975  20.353  0.00  0.00    +0.000 C 
BRANCH  24  25
ATOM     25  N   UNL     1      48.383   3.561  20.511  0.00  0.00    +0.000 NA
ATOM     26  H   UNL     1      47.887   3.244  19.680  0.00  0.00    +0.000 HD
ATOM     27  H   UNL     1      47.741   3.451  21.292  0.00  0.00    +0.000 HD
ENDBRANCH  24  25
ENDBRANCH  21  24
ENDBRANCH  17  18
ENDBRANCH  16  17
ENDBRANCH   3  16
TORSDOF 7
ENDMDL
MODEL 9
REMARK VINA RESULT:    -5.782      3.068      6.259
REMARK INTER + INTRA:          -8.738
REMARK INTER:                  -8.132
REMARK INTRA:                  -0.606
REMARK UNBOUND:                -0.758
REMARK  Name = 
REMARK  10 active torsions:
REMARK  status: ('A' for Active; 'I' for Inactive)
REMARK    1  A    between atoms: C_1  and  C_2
REMARK    2  A    between atoms: C_2  and  C_3
REMARK    3  A    between atoms: C_2  and  C_4
REMARK    4  A    between atoms: C_2  and  C_5
REMARK    5  A    between atoms: C_7  and  O_8
REMARK    6  A    between atoms: O_8  and  C_9
REMARK    7  A    between atoms: C_9  and  C_10
REMARK    8  A    between atoms: C_13  and  C_14
REMARK    9  A    between atoms: C_14  and  N_15
REMARK   10  A    between atoms: C_19  and  C_20
REMARK                            x       y       z     vdW  Elec       q    Type
REMARK                         _______ _______ _______ _____ _____    ______ ____
ROOT
ATOM      1  C   UNL     1      45.149   4.822  12.383  0.00  0.00    +0.000 A 
ATOM      2  C   UNL     1      45.871   5.868  11.822  0.00  0.00    +0.000 A 
ATOM      3  C   UNL     1      47.062   6.209  12.431  0.00  0.00    +0.000 A 
ATOM      4  N   UNL     1      47.536   5.597  13.518  0.00  0.00    +0.000 NA
ATOM      5  C   UNL     1      46.776   4.608  14.003  0.00  0.00    +0.000 A 
ATOM      6  N   UNL     1      45.599   4.181  13.487  0.00  0.00    +0.000 NA
ENDROOT
BRANCH   5   7
ATOM      7  C   UNL     1      47.284   3.922  15.247  0.00  0.00    +0.000 C 
ATOM      8  N   UNL     1      47.122   4.616  16.420  0.00  0.00    +0.000 N 
ATOM      9  O   UNL     1      47.817   2.820  15.247  0.00  0.00    +0.000 OA
ATOM     10  H   UNL     1      46.692   5.532  16.419  0.00  0.00    +0.000 HD
ATOM     11  H   UNL     1      47.460   4.204  17.278  0.00  0.00    +0.000 HD
ENDBRANCH   5   7
BRANCH   1  13
ATOM     12  C   UNL     1      43.877   4.464  10.237  0.00  0.00    +0.000 C 
ATOM     13  C   UNL     1      43.819   4.357  11.773  0.00  0.00    +0.000 C 
ATOM     14  C   UNL     1      42.659   5.221  12.306  0.00  0.00    +0.000 C 
ATOM     15  C   UNL     1      43.504   2.886  12.131  0.00  0.00    +0.000 C 
ENDBRANCH   1  13
BRANCH   3  16
ATOM     16  O   UNL     1      47.798   7.242  11.877  0.00  0.00    +0.000 OA
BRANCH  16  17
ATOM     17  C   UNL     1      48.595   7.911  12.867  0.00  0.00    +0.000 C 
BRANCH  17  18
ATOM     18  C   UNL     1      50.049   7.994  12.464  0.00  0.00    +0.000 A 
ATOM     19  C   UNL     1      50.424   7.657  11.153  0.00  0.00    +0.000 A 
ATOM     20  C   UNL     1      51.747   7.799  10.727  0.00  0.00    +0.000 A 
ATOM     21  C   UNL     1      52.725   8.292  11.600  0.00  0.00    +0.000 A 
ATOM     22  C   UNL     1      52.347   8.640  12.906  0.00  0.00    +0.000 A 
ATOM     23  C   UNL     1      51.023   8.499  13.331  0.00  0.00    +0.000 A 
BRANCH  21  24
ATOM     24  C   UNL     1      54.162   8.421  11.163  0.00  0.00    +0.000 C 
BRANCH  24  25
ATOM     25  N   UNL     1      55.089   8.010  12.210  0.00  0.00    +0.000 NA
ATOM     26  H   UNL     1      55.638   8.818  12.497  0.00  0.00    +0.000 HD
ATOM     27  H   UNL     1      55.745   7.334  11.826  0.00  0.00    +0.000 HD
ENDBRANCH  24  25
ENDBRANCH  21  24
ENDBRANCH  17  18
ENDBRANCH  16  17
ENDBRANCH   3  16
TORSDOF 7
ENDMDL
