MODEL 1
REMARK VINA RESULT:    -7.846      0.000      0.000
REMARK INTER + INTRA:         -10.639
REMARK INTER:                  -9.910
REMARK INTRA:                  -0.729
REMARK UNBOUND:                -0.729
REMARK  Name = 
REMARK  6 active torsions:
REMARK  status: ('A' for Active; 'I' for Inactive)
REMARK    1  A    between atoms: C_1  and  O_2
REMARK    2  A    between atoms: O_2  and  C_3
REMARK    3  A    between atoms: C_5  and  C_6
REMARK    4  A    between atoms: C_6  and  N_7
REMARK    5  A    between atoms: C_12  and  C_13
REMARK    6  A    between atoms: C_21  and  O_22
REMARK                            x       y       z     vdW  Elec       q    Type
REMARK                         _______ _______ _______ _____ _____    ______ ____
ROOT
ATOM      1  N   UNL     1      44.454   3.886  10.379  0.00  0.00    +0.000 N 
ATOM      2  C   UNL     1      43.908   2.987  11.267  0.00  0.00    +0.000 A 
ATOM      3  C   UNL     1      44.436   3.245  12.513  0.00  0.00    +0.000 A 
ATOM      4  C   UNL     1      45.298   4.356  12.387  0.00  0.00    +0.000 A 
ATOM      5  N   UNL     1      46.035   4.962  13.349  0.00  0.00    +0.000 NA
ATOM      6  C   UNL     1      46.765   6.023  12.908  0.00  0.00    +0.000 A 
ATOM      7  C   UNL     1      46.786   6.509  11.604  0.00  0.00    +0.000 A 
ATOM      8  C   UNL     1      46.023   5.871  10.629  0.00  0.00    +0.000 A 
ATOM      9  C   UNL     1      45.278   4.767  11.052  0.00  0.00    +0.000 A 
ENDROOT
BRANCH   6  10
ATOM     10  C   UNL     1      47.622   6.696  13.939  0.00  0.00    +0.000 C 
ATOM     11  N   UNL     1      47.351   8.019  14.161  0.00  0.00    +0.000 N 
ATOM     12  O   UNL     1      48.503   6.111  14.555  0.00  0.00    +0.000 OA
ATOM     13  H   UNL     1      46.599   8.469  13.650  0.00  0.00    +0.000 HD
ATOM     14  H   UNL     1      47.870   8.524  14.864  0.00  0.00    +0.000 HD
ENDBRANCH   6  10
BRANCH   1  15
ATOM     15  C   UNL     1      44.189   3.889   8.942  0.00  0.00    +0.000 C 
BRANCH  15  18
ATOM     16  C   UNL     1      46.790   1.389   7.660  0.00  0.00    +0.000 A 
ATOM     17  C   UNL     1      45.707   1.945   8.348  0.00  0.00    +0.000 A 
ATOM     18  C   UNL     1      45.339   3.292   8.161  0.00  0.00    +0.000 A 
ATOM     19  C   UNL     1      46.052   4.067   7.236  0.00  0.00    +0.000 A 
ATOM     20  C   UNL     1      47.126   3.518   6.532  0.00  0.00    +0.000 A 
ATOM     21  C   UNL     1      47.491   2.190   6.752  0.00  0.00    +0.000 A 
BRANCH  16  23
ATOM     22  C   UNL     1      46.408  -0.939   7.305  0.00  0.00    +0.000 C 
ATOM     23  O   UNL     1      47.234   0.101   7.809  0.00  0.00    +0.000 OA
ENDBRANCH  16  23
BRANCH  21  24
ATOM     24  O   UNL     1      48.555   1.655   6.074  0.00  0.00    +0.000 OA
ATOM     25  H   UNL     1      48.450   1.833   5.126  0.00  0.00    +0.000 HD
ENDBRANCH  21  24
ENDBRANCH  15  18
ENDBRANCH   1  15
TORSDOF 5
ENDMDL
MODEL 2
REMARK VINA RESULT:    -7.548      2.075      6.525
REMARK INTER + INTRA:         -10.263
REMARK INTER:                  -9.754
REMARK INTRA:                  -0.508
REMARK UNBOUND:                -0.729
REMARK  Name = 
REMARK  6 active torsions:
REMARK  status: ('A' for Active; 'I' for Inactive)
REMARK    1  A    between atoms: C_1  and  O_2
REMARK    2  A    between atoms: O_2  and  C_3
REMARK    3  A    between atoms: C_5  and  C_6
REMARK    4  A    between atoms: C_6  and  N_7
REMARK    5  A    between atoms: C_12  and  C_13
REMARK    6  A    between atoms: C_21  and  O_22
REMARK                            x       y       z     vdW  Elec       q    Type
REMARK                         _______ _______ _______ _____ _____    ______ ____
ROOT
ATOM      1  N   UNL     1      43.993   4.336  10.366  0.00  0.00    +0.000 N 
ATOM      2  C   UNL     1      43.517   3.230  11.037  0.00  0.00    +0.000 A 
ATOM      3  C   UNL     1      44.089   2.112  10.471  0.00  0.00    +0.000 A 
ATOM      4  C   UNL     1      44.965   2.550   9.454  0.00  0.00    +0.000 A 
ATOM      5  N   UNL     1      45.740   1.803   8.631  0.00  0.00    +0.000 NA
ATOM      6  C   UNL     1      46.485   2.529   7.755  0.00  0.00    +0.000 A 
ATOM      7  C   UNL     1      46.513   3.917   7.667  0.00  0.00    +0.000 A 
ATOM      8  C   UNL     1      45.708   4.669   8.520  0.00  0.00    +0.000 A 
ATOM      9  C   UNL     1      44.918   3.946   9.419  0.00  0.00    +0.000 A 
ENDROOT
BRANCH   6  10
ATOM     10  C   UNL     1      47.329   1.733   6.803  0.00  0.00    +0.000 C 
ATOM     11  N   UNL     1      48.363   2.412   6.218  0.00  0.00    +0.000 N 
ATOM     12  O   UNL     1      47.122   0.550   6.563  0.00  0.00    +0.000 OA
ATOM     13  H   UNL     1      48.520   3.386   6.455  0.00  0.00    +0.000 HD
ATOM     14  H   UNL     1      48.987   1.927   5.591  0.00  0.00    +0.000 HD
ENDBRANCH   6  10
BRANCH   1  15
ATOM     15  C   UNL     1      43.567   5.707  10.634  0.00  0.00    +0.000 C 
BRANCH  15  18
ATOM     16  C   UNL     1      46.356   6.378  13.170  0.00  0.00    +0.000 A 
ATOM     17  C   UNL     1      45.461   5.718  12.321  0.00  0.00    +0.000 A 
ATOM     18  C   UNL     1      44.555   6.437  11.517  0.00  0.00    +0.000 A 
ATOM     19  C   UNL     1      44.589   7.837  11.543  0.00  0.00    +0.000 A 
ATOM     20  C   UNL     1      45.490   8.508  12.375  0.00  0.00    +0.000 A 
ATOM     21  C   UNL     1      46.359   7.777  13.184  0.00  0.00    +0.000 A 
BRANCH  16  23
ATOM     22  C   UNL     1      46.867   4.494  14.541  0.00  0.00    +0.000 C 
ATOM     23  O   UNL     1      47.244   5.755  14.008  0.00  0.00    +0.000 OA
ENDBRANCH  16  23
BRANCH  21  24
ATOM     24  O   UNL     1      47.231   8.433  14.013  0.00  0.00    +0.000 OA
ATOM     25  H   UNL     1      47.660   9.150  13.520  0.00  0.00    +0.000 HD
ENDBRANCH  21  24
ENDBRANCH  15  18
ENDBRANCH   1  15
TORSDOF 5
ENDMDL
MODEL 3
REMARK VINA RESULT:    -7.092      2.489      6.943
REMARK INTER + INTRA:          -9.686
REMARK INTER:                  -9.150
REMARK INTRA:                  -0.536
REMARK UNBOUND:                -0.729
REMARK  Name = 
REMARK  6 active torsions:
REMARK  status: ('A' for Active; 'I' for Inactive)
REMARK    1  A    between atoms: C_1  and  O_2
REMARK    2  A    between atoms: O_2  and  C_3
REMARK    3  A    between atoms: C_5  and  C_6
REMARK    4  A    between atoms: C_6  and  N_7
REMARK    5  A    between atoms: C_12  and  C_13
REMARK    6  A    between atoms: C_21  and  O_22
REMARK                            x       y       z     vdW  Elec       q    Type
REMARK                         _______ _______ _______ _____ _____    ______ ____
ROOT
ATOM      1  N   UNL     1      44.054   4.236  10.286  0.00  0.00    +0.000 N 
ATOM      2  C   UNL     1      43.634   3.044  10.836  0.00  0.00    +0.000 A 
ATOM      3  C   UNL     1      44.273   2.021  10.170  0.00  0.00    +0.000 A 
ATOM      4  C   UNL     1      45.132   2.607   9.215  0.00  0.00    +0.000 A 
ATOM      5  N   UNL     1      45.956   1.990   8.333  0.00  0.00    +0.000 NA
ATOM      6  C   UNL     1      46.668   2.840   7.545  0.00  0.00    +0.000 A 
ATOM      7  C   UNL     1      46.619   4.230   7.597  0.00  0.00    +0.000 A 
ATOM      8  C   UNL     1      45.765   4.846   8.509  0.00  0.00    +0.000 A 
ATOM      9  C   UNL     1      45.008   3.995   9.318  0.00  0.00    +0.000 A 
ENDROOT
BRANCH   6  10
ATOM     10  C   UNL     1      47.564   2.191   6.532  0.00  0.00    +0.000 C 
ATOM     11  N   UNL     1      47.874   2.955   5.440  0.00  0.00    +0.000 N 
ATOM     12  O   UNL     1      48.003   1.055   6.664  0.00  0.00    +0.000 OA
ATOM     13  H   UNL     1      47.513   3.901   5.371  0.00  0.00    +0.000 HD
ATOM     14  H   UNL     1      48.498   2.589   4.735  0.00  0.00    +0.000 HD
ENDBRANCH   6  10
BRANCH   1  15
ATOM     15  C   UNL     1      43.548   5.548  10.683  0.00  0.00    +0.000 C 
BRANCH  15  18
ATOM     16  C   UNL     1      45.532   8.423  12.251  0.00  0.00    +0.000 A 
ATOM     17  C   UNL     1      44.584   7.712  11.509  0.00  0.00    +0.000 A 
ATOM     18  C   UNL     1      44.556   6.303  11.522  0.00  0.00    +0.000 A 
ATOM     19  C   UNL     1      45.471   5.615  12.329  0.00  0.00    +0.000 A 
ATOM     20  C   UNL     1      46.412   6.315  13.087  0.00  0.00    +0.000 A 
ATOM     21  C   UNL     1      46.442   7.709  13.038  0.00  0.00    +0.000 A 
BRANCH  16  23
ATOM     22  C   UNL     1      44.616  10.542  11.649  0.00  0.00    +0.000 C 
ATOM     23  O   UNL     1      45.649   9.789  12.266  0.00  0.00    +0.000 OA
ENDBRANCH  16  23
BRANCH  21  24
ATOM     24  O   UNL     1      47.376   8.396  13.768  0.00  0.00    +0.000 OA
ATOM     25  H   UNL     1      47.953   8.888  13.163  0.00  0.00    +0.000 HD
ENDBRANCH  21  24
ENDBRANCH  15  18
ENDBRANCH   1  15
TORSDOF 5
ENDMDL
MODEL 4
REMARK VINA RESULT:    -6.974      1.206      1.961
REMARK INTER + INTRA:          -9.538
REMARK INTER:                  -8.932
REMARK INTRA:                  -0.606
REMARK UNBOUND:                -0.729
REMARK  Name = 
REMARK  6 active torsions:
REMARK  status: ('A' for Active; 'I' for Inactive)
REMARK    1  A    between atoms: C_1  and  O_2
REMARK    2  A    between atoms: O_2  and  C_3
REMARK    3  A    between atoms: C_5  and  C_6
REMARK    4  A    between atoms: C_6  and  N_7
REMARK    5  A    between atoms: C_12  and  C_13
REMARK    6  A    between atoms: C_21  and  O_22
REMARK                            x       y       z     vdW  Elec       q    Type
REMARK                         _______ _______ _______ _____ _____    ______ ____
ROOT
ATOM      1  N   UNL     1      44.210   4.735  10.812  0.00  0.00    +0.000 N 
ATOM      2  C   UNL     1      43.363   4.224  11.771  0.00  0.00    +0.000 A 
ATOM      3  C   UNL     1      43.889   4.527  13.008  0.00  0.00    +0.000 A 
ATOM      4  C   UNL     1      45.068   5.275  12.797  0.00  0.00    +0.000 A 
ATOM      5  N   UNL     1      45.916   5.787  13.721  0.00  0.00    +0.000 NA
ATOM      6  C   UNL     1      46.967   6.472  13.195  0.00  0.00    +0.000 A 
ATOM      7  C   UNL     1      47.202   6.685  11.840  0.00  0.00    +0.000 A 
ATOM      8  C   UNL     1      46.320   6.149  10.904  0.00  0.00    +0.000 A 
ATOM      9  C   UNL     1      45.241   5.424  11.418  0.00  0.00    +0.000 A 
ENDROOT
BRANCH   6  10
ATOM     10  C   UNL     1      47.947   7.023  14.188  0.00  0.00    +0.000 C 
ATOM     11  N   UNL     1      48.092   6.298  15.340  0.00  0.00    +0.000 N 
ATOM     12  O   UNL     1      48.589   8.047  13.991  0.00  0.00    +0.000 OA
ATOM     13  H   UNL     1      47.563   5.442  15.463  0.00  0.00    +0.000 HD
ATOM     14  H   UNL     1      48.758   6.597  16.037  0.00  0.00    +0.000 HD
ENDBRANCH   6  10
BRANCH   1  15
ATOM     15  C   UNL     1      44.025   4.561   9.373  0.00  0.00    +0.000 C 
BRANCH  15  18
ATOM     16  C   UNL     1      46.751   2.670   7.462  0.00  0.00    +0.000 A 
ATOM     17  C   UNL     1      45.977   3.704   7.998  0.00  0.00    +0.000 A 
ATOM     18  C   UNL     1      44.877   3.433   8.834  0.00  0.00    +0.000 A 
ATOM     19  C   UNL     1      44.588   2.102   9.163  0.00  0.00    +0.000 A 
ATOM     20  C   UNL     1      45.364   1.061   8.647  0.00  0.00    +0.000 A 
ATOM     21  C   UNL     1      46.432   1.350   7.798  0.00  0.00    +0.000 A 
BRANCH  16  23
ATOM     22  C   UNL     1      47.550   2.832   5.220  0.00  0.00    +0.000 C 
ATOM     23  O   UNL     1      47.814   2.847   6.615  0.00  0.00    +0.000 OA
ENDBRANCH  16  23
BRANCH  21  24
ATOM     24  O   UNL     1      47.184   0.329   7.277  0.00  0.00    +0.000 OA
ATOM     25  H   UNL     1      47.006   0.255   6.327  0.00  0.00    +0.000 HD
ENDBRANCH  21  24
ENDBRANCH  15  18
ENDBRANCH   1  15
TORSDOF 5
ENDMDL
MODEL 5
REMARK VINA RESULT:    -6.215      2.116      3.687
REMARK INTER + INTRA:          -8.579
REMARK INTER:                  -8.123
REMARK INTRA:                  -0.456
REMARK UNBOUND:                -0.729
REMARK  Name = 
REMARK  6 active torsions:
REMARK  status: ('A' for Active; 'I' for Inactive)
REMARK    1  A    between atoms: C_1  and  O_2
REMARK    2  A    between atoms: O_2  and  C_3
REMARK    3  A    between atoms: C_5  and  C_6
REMARK    4  A    between atoms: C_6  and  N_7
REMARK    5  A    between atoms: C_12  and  C_13
REMARK    6  A    between atoms: C_21  and  O_22
REMARK                            x       y       z     vdW  Elec       q    Type
REMARK                         _______ _______ _______ _____ _____    ______ ____
ROOT
ATOM      1  N   UNL     1      44.239   6.869  11.731  0.00  0.00    +0.000 N 
ATOM      2  C   UNL     1      44.271   8.182  11.319  0.00  0.00    +0.000 A 
ATOM      3  C   UNL     1      45.420   8.757  11.819  0.00  0.00    +0.000 A 
ATOM      4  C   UNL     1      46.124   7.755  12.522  0.00  0.00    +0.000 A 
ATOM      5  N   UNL     1      47.304   7.860  13.179  0.00  0.00    +0.000 NA
ATOM      6  C   UNL     1      47.728   6.702  13.755  0.00  0.00    +0.000 A 
ATOM      7  C   UNL     1      47.069   5.477  13.698  0.00  0.00    +0.000 A 
ATOM      8  C   UNL     1      45.856   5.389  13.019  0.00  0.00    +0.000 A 
ATOM      9  C   UNL     1      45.388   6.570  12.434  0.00  0.00    +0.000 A 
ENDROOT
BRANCH   6  10
ATOM     10  C   UNL     1      49.014   6.789  14.522  0.00  0.00    +0.000 C 
ATOM     11  N   UNL     1      50.060   7.371  13.858  0.00  0.00    +0.000 N 
ATOM     12  O   UNL     1      49.132   6.379  15.670  0.00  0.00    +0.000 OA
ATOM     13  H   UNL     1      49.924   7.720  12.916  0.00  0.00    +0.000 HD
ATOM     14  H   UNL     1      50.946   7.489  14.329  0.00  0.00    +0.000 HD
ENDBRANCH   6  10
BRANCH   1  15
ATOM     15  C   UNL     1      43.140   5.946  11.455  0.00  0.00    +0.000 C 
BRANCH  15  18
ATOM     16  C   UNL     1      44.634   3.592   8.831  0.00  0.00    +0.000 A 
ATOM     17  C   UNL     1      44.213   4.750   9.491  0.00  0.00    +0.000 A 
ATOM     18  C   UNL     1      43.626   4.687  10.770  0.00  0.00    +0.000 A 
ATOM     19  C   UNL     1      43.506   3.442  11.400  0.00  0.00    +0.000 A 
ATOM     20  C   UNL     1      43.938   2.279  10.757  0.00  0.00    +0.000 A 
ATOM     21  C   UNL     1      44.490   2.360   9.479  0.00  0.00    +0.000 A 
BRANCH  16  23
ATOM     22  C   UNL     1      46.565   3.856   7.455  0.00  0.00    +0.000 C 
ATOM     23  O   UNL     1      45.181   3.562   7.574  0.00  0.00    +0.000 OA
ENDBRANCH  16  23
BRANCH  21  24
ATOM     24  O   UNL     1      44.898   1.219   8.840  0.00  0.00    +0.000 OA
ATOM     25  H   UNL     1      44.143   0.616   8.752  0.00  0.00    +0.000 HD
ENDBRANCH  21  24
ENDBRANCH  15  18
ENDBRANCH   1  15
TORSDOF 5
ENDMDL
MODEL 6
REMARK VINA RESULT:    -6.001      1.722      2.229
REMARK INTER + INTRA:          -8.309
REMARK INTER:                  -8.734
REMARK INTRA:                   0.426
REMARK UNBOUND:                -0.729
REMARK  Name = 
REMARK  6 active torsions:
REMARK  status: ('A' for Active; 'I' for Inactive)
REMARK    1  A    between atoms: C_1  and  O_2
REMARK    2  A    between atoms: O_2  and  C_3
REMARK    3  A    between atoms: C_5  and  C_6
REMARK    4  A    between atoms: C_6  and  N_7
REMARK    5  A    between atoms: C_12  and  C_13
REMARK    6  A    between atoms: C_21  and  O_22
REMARK                            x       y       z     vdW  Elec       q    Type
REMARK                         _______ _______ _______ _____ _____    ______ ____
ROOT
ATOM      1  N   UNL     1      45.543   4.782  12.133  0.00  0.00    +0.000 N 
ATOM      2  C   UNL     1      45.728   3.816  13.096  0.00  0.00    +0.000 A 
ATOM      3  C   UNL     1      46.795   4.195  13.881  0.00  0.00    +0.000 A 
ATOM      4  C   UNL     1      47.248   5.446  13.405  0.00  0.00    +0.000 A 
ATOM      5  N   UNL     1      48.273   6.200  13.868  0.00  0.00    +0.000 NA
ATOM      6  C   UNL     1      48.454   7.370  13.196  0.00  0.00    +0.000 A 
ATOM      7  C   UNL     1      47.681   7.822  12.131  0.00  0.00    +0.000 A 
ATOM      8  C   UNL     1      46.632   7.032  11.668  0.00  0.00    +0.000 A 
ATOM      9  C   UNL     1      46.436   5.816  12.330  0.00  0.00    +0.000 A 
ENDROOT
BRANCH   6  10
ATOM     10  C   UNL     1      49.604   8.215  13.658  0.00  0.00    +0.000 C 
ATOM     11  N   UNL     1      50.848   7.684  13.453  0.00  0.00    +0.000 N 
ATOM     12  O   UNL     1      49.454   9.313  14.179  0.00  0.00    +0.000 OA
ATOM     13  H   UNL     1      50.939   6.782  12.998  0.00  0.00    +0.000 HD
ATOM     14  H   UNL     1      51.666   8.215  13.713  0.00  0.00    +0.000 HD
ENDBRANCH   6  10
BRANCH   1  15
ATOM     15  C   UNL     1      44.544   4.704  11.069  0.00  0.00    +0.000 C 
BRANCH  15  18
ATOM     16  C   UNL     1      45.661   2.048   8.547  0.00  0.00    +0.000 A 
ATOM     17  C   UNL     1      45.111   2.659   9.679  0.00  0.00    +0.000 A 
ATOM     18  C   UNL     1      45.107   4.060   9.821  0.00  0.00    +0.000 A 
ATOM     19  C   UNL     1      45.627   4.847   8.785  0.00  0.00    +0.000 A 
ATOM     20  C   UNL     1      46.164   4.249   7.643  0.00  0.00    +0.000 A 
ATOM     21  C   UNL     1      46.184   2.859   7.535  0.00  0.00    +0.000 A 
BRANCH  16  23
ATOM     22  C   UNL     1      46.893   0.190   7.699  0.00  0.00    +0.000 C 
ATOM     23  O   UNL     1      45.736   0.694   8.348  0.00  0.00    +0.000 OA
ENDBRANCH  16  23
BRANCH  21  24
ATOM     24  O   UNL     1      46.727   2.270   6.422  0.00  0.00    +0.000 OA
ATOM     25  H   UNL     1      46.085   1.647   6.047  0.00  0.00    +0.000 HD
ENDBRANCH  21  24
ENDBRANCH  15  18
ENDBRANCH   1  15
TORSDOF 5
ENDMDL
MODEL 7
REMARK VINA RESULT:    -5.936      2.098      3.817
REMARK INTER + INTRA:          -8.226
REMARK INTER:                  -7.850
REMARK INTRA:                  -0.376
REMARK UNBOUND:                -0.729
REMARK  Name = 
REMARK  6 active torsions:
REMARK  status: ('A' for Active; 'I' for Inactive)
REMARK    1  A    between atoms: C_1  and  O_2
REMARK    2  A    between atoms: O_2  and  C_3
REMARK    3  A    between atoms: C_5  and  C_6
REMARK    4  A    between atoms: C_6  and  N_7
REMARK    5  A    between atoms: C_12  and  C_13
REMARK    6  A    between atoms: C_21  and  O_22
REMARK                            x       y       z     vdW  Elec       q    Type
REMARK                         _______ _______ _______ _____ _____    ______ ____
ROOT
ATOM      1  N   UNL     1      46.340   6.484  11.779  0.00  0.00    +0.000 N 
ATOM      2  C   UNL     1      47.373   7.278  11.333  0.00  0.00    +0.000 A 
ATOM      3  C   UNL     1      48.375   7.242  12.278  0.00  0.00    +0.000 A 
ATOM      4  C   UNL     1      47.955   6.373  13.309  0.00  0.00    +0.000 A 
ATOM      5  N   UNL     1      48.614   6.033  14.443  0.00  0.00    +0.000 NA
ATOM      6  C   UNL     1      47.941   5.158  15.239  0.00  0.00    +0.000 A 
ATOM      7  C   UNL     1      46.693   4.607  14.967  0.00  0.00    +0.000 A 
ATOM      8  C   UNL     1      46.030   4.969  13.796  0.00  0.00    +0.000 A 
ATOM      9  C   UNL     1      46.692   5.881  12.970  0.00  0.00    +0.000 A 
ENDROOT
BRANCH   6  10
ATOM     10  C   UNL     1      48.625   4.787  16.522  0.00  0.00    +0.000 C 
ATOM     11  N   UNL     1      47.966   3.877  17.302  0.00  0.00    +0.000 N 
ATOM     12  O   UNL     1      49.706   5.255  16.857  0.00  0.00    +0.000 OA
ATOM     13  H   UNL     1      47.083   3.491  16.985  0.00  0.00    +0.000 HD
ATOM     14  H   UNL     1      48.386   3.561  18.164  0.00  0.00    +0.000 HD
ENDBRANCH   6  10
BRANCH   1  15
ATOM     15  C   UNL     1      45.067   6.320  11.079  0.00  0.00    +0.000 C 
BRANCH  15  18
ATOM     16  C   UNL     1      45.349   3.509   8.495  0.00  0.00    +0.000 A 
ATOM     17  C   UNL     1      45.471   4.750   9.128  0.00  0.00    +0.000 A 
ATOM     18  C   UNL     1      44.962   4.960  10.424  0.00  0.00    +0.000 A 
ATOM     19  C   UNL     1      44.362   3.888  11.098  0.00  0.00    +0.000 A 
ATOM     20  C   UNL     1      44.249   2.640  10.483  0.00  0.00    +0.000 A 
ATOM     21  C   UNL     1      44.734   2.461   9.188  0.00  0.00    +0.000 A 
BRANCH  16  23
ATOM     22  C   UNL     1      47.080   2.667   7.086  0.00  0.00    +0.000 C 
ATOM     23  O   UNL     1      45.785   3.232   7.225  0.00  0.00    +0.000 OA
ENDBRANCH  16  23
BRANCH  21  24
ATOM     24  O   UNL     1      44.608   1.240   8.576  0.00  0.00    +0.000 OA
ATOM     25  H   UNL     1      44.462   0.560   9.251  0.00  0.00    +0.000 HD
ENDBRANCH  21  24
ENDBRANCH  15  18
ENDBRANCH   1  15
TORSDOF 5
ENDMDL
MODEL 8
REMARK VINA RESULT:    -5.826      2.388      3.984
REMARK INTER + INTRA:          -8.087
REMARK INTER:                  -7.647
REMARK INTRA:                  -0.441
REMARK UNBOUND:                -0.729
REMARK  Name = 
REMARK  6 active torsions:
REMARK  status: ('A' for Active; 'I' for Inactive)
REMARK    1  A    between atoms: C_1  and  O_2
REMARK    2  A    between atoms: O_2  and  C_3
REMARK    3  A    between atoms: C_5  and  C_6
REMARK    4  A    between atoms: C_6  and  N_7
REMARK    5  A    between atoms: C_12  and  C_13
REMARK    6  A    between atoms: C_21  and  O_22
REMARK                            x       y       z     vdW  Elec       q    Type
REMARK                         _______ _______ _______ _____ _____    ______ ____
ROOT
ATOM      1  N   UNL     1      46.093   6.145  12.788  0.00  0.00    +0.000 N 
ATOM      2  C   UNL     1      46.171   5.250  13.831  0.00  0.00    +0.000 A 
ATOM      3  C   UNL     1      47.415   5.375  14.409  0.00  0.00    +0.000 A 
ATOM      4  C   UNL     1      48.100   6.401  13.721  0.00  0.00    +0.000 A 
ATOM      5  N   UNL     1      49.352   6.870  13.941  0.00  0.00    +0.000 NA
ATOM      6  C   UNL     1      49.725   7.879  13.108  0.00  0.00    +0.000 A 
ATOM      7  C   UNL     1      48.935   8.442  12.110  0.00  0.00    +0.000 A 
ATOM      8  C   UNL     1      47.651   7.946  11.898  0.00  0.00    +0.000 A 
ATOM      9  C   UNL     1      47.250   6.896  12.728  0.00  0.00    +0.000 A 
ENDROOT
BRANCH   6  10
ATOM     10  C   UNL     1      51.119   8.399  13.298  0.00  0.00    +0.000 C 
ATOM     11  N   UNL     1      52.037   7.985  12.372  0.00  0.00    +0.000 N 
ATOM     12  O   UNL     1      51.428   9.152  14.214  0.00  0.00    +0.000 OA
ATOM     13  H   UNL     1      51.744   7.379  11.612  0.00  0.00    +0.000 HD
ATOM     14  H   UNL     1      52.987   8.322  12.424  0.00  0.00    +0.000 HD
ENDBRANCH   6  10
BRANCH   1  15
ATOM     15  C   UNL     1      44.948   6.265  11.889  0.00  0.00    +0.000 C 
BRANCH  15  18
ATOM     16  C   UNL     1      45.166   4.012   8.800  0.00  0.00    +0.000 A 
ATOM     17  C   UNL     1      45.308   5.105   9.661  0.00  0.00    +0.000 A 
ATOM     18  C   UNL     1      44.821   5.060  10.982  0.00  0.00    +0.000 A 
ATOM     19  C   UNL     1      44.224   3.879  11.444  0.00  0.00    +0.000 A 
ATOM     20  C   UNL     1      44.091   2.776  10.599  0.00  0.00    +0.000 A 
ATOM     21  C   UNL     1      44.555   2.851   9.285  0.00  0.00    +0.000 A 
BRANCH  16  23
ATOM     22  C   UNL     1      46.927   3.618   7.240  0.00  0.00    +0.000 C 
ATOM     23  O   UNL     1      45.580   3.986   7.494  0.00  0.00    +0.000 OA
ENDBRANCH  16  23
BRANCH  21  24
ATOM     24  O   UNL     1      44.409   1.774   8.450  0.00  0.00    +0.000 OA
ATOM     25  H   UNL     1      44.597   2.051   7.539  0.00  0.00    +0.000 HD
ENDBRANCH  21  24
ENDBRANCH  15  18
ENDBRANCH   1  15
TORSDOF 5
ENDMDL
MODEL 9
REMARK VINA RESULT:    -5.725      4.167      8.347
REMARK INTER + INTRA:          -7.960
REMARK INTER:                  -7.274
REMARK INTRA:                  -0.686
REMARK UNBOUND:                -0.729
REMARK  Name = 
REMARK  6 active torsions:
REMARK  status: ('A' for Active; 'I' for Inactive)
REMARK    1  A    between atoms: C_1  and  O_2
REMARK    2  A    between atoms: O_2  and  C_3
REMARK    3  A    between atoms: C_5  and  C_6
REMARK    4  A    between atoms: C_6  and  N_7
REMARK    5  A    between atoms: C_12  and  C_13
REMARK    6  A    between atoms: C_21  and  O_22
REMARK                            x       y       z     vdW  Elec       q    Type
REMARK                         _______ _______ _______ _____ _____    ______ ____
ROOT
ATOM      1  N   UNL     1      47.507   7.105  13.657  0.00  0.00    +0.000 N 
ATOM      2  C   UNL     1      46.837   8.265  13.338  0.00  0.00    +0.000 A 
ATOM      3  C   UNL     1      45.639   7.918  12.754  0.00  0.00    +0.000 A 
ATOM      4  C   UNL     1      45.560   6.508  12.751  0.00  0.00    +0.000 A 
ATOM      5  N   UNL     1      44.564   5.722  12.277  0.00  0.00    +0.000 NA
ATOM      6  C   UNL     1      44.784   4.388  12.431  0.00  0.00    +0.000 A 
ATOM      7  C   UNL     1      45.901   3.812  13.029  0.00  0.00    +0.000 A 
ATOM      8  C   UNL     1      46.916   4.637  13.509  0.00  0.00    +0.000 A 
ATOM      9  C   UNL     1      46.723   6.011  13.347  0.00  0.00    +0.000 A 
ENDROOT
BRANCH   6  10
ATOM     10  C   UNL     1      43.717   3.486  11.884  0.00  0.00    +0.000 C 
ATOM     11  N   UNL     1      43.681   2.224  12.413  0.00  0.00    +0.000 N 
ATOM     12  O   UNL     1      42.919   3.844  11.027  0.00  0.00    +0.000 OA
ATOM     13  H   UNL     1      44.342   1.966  13.138  0.00  0.00    +0.000 HD
ATOM     14  H   UNL     1      42.968   1.577  12.111  0.00  0.00    +0.000 HD
ENDBRANCH   6  10
BRANCH   1  15
ATOM     15  C   UNL     1      48.848   7.060  14.235  0.00  0.00    +0.000 C 
BRANCH  15  18
ATOM     16  C   UNL     1      48.699   5.644  17.790  0.00  0.00    +0.000 A 
ATOM     17  C   UNL     1      48.778   5.733  16.396  0.00  0.00    +0.000 A 
ATOM     18  C   UNL     1      48.802   6.982  15.746  0.00  0.00    +0.000 A 
ATOM     19  C   UNL     1      48.789   8.149  16.520  0.00  0.00    +0.000 A 
ATOM     20  C   UNL     1      48.727   8.074  17.914  0.00  0.00    +0.000 A 
ATOM     21  C   UNL     1      48.675   6.827  18.537  0.00  0.00    +0.000 A 
BRANCH  16  23
ATOM     22  C   UNL     1      48.446   3.272  17.762  0.00  0.00    +0.000 C 
ATOM     23  O   UNL     1      48.636   4.472  18.497  0.00  0.00    +0.000 OA
ENDBRANCH  16  23
BRANCH  21  24
ATOM     24  O   UNL     1      48.597   6.752  19.903  0.00  0.00    +0.000 OA
ATOM     25  H   UNL     1      48.315   5.859  20.157  0.00  0.00    +0.000 HD
ENDBRANCH  21  24
ENDBRANCH  15  18
ENDBRANCH   1  15
TORSDOF 5
ENDMDL
