MODEL 1
REMARK VINA RESULT:    -8.314      0.000      0.000
REMARK INTER + INTRA:         -10.352
REMARK INTER:                  -9.772
REMARK INTRA:                  -0.580
REMARK UNBOUND:                -0.580
REMARK  Name = 
REMARK  3 active torsions:
REMARK  status: ('A' for Active; 'I' for Inactive)
REMARK    1  A    between atoms: C_2  and  C_4
REMARK    2  A    between atoms: N_8  and  C_9
REMARK    3  A    between atoms: C_9  and  C_10
REMARK                            x       y       z     vdW  Elec       q    Type
REMARK                         _______ _______ _______ _____ _____    ______ ____
ROOT
ATOM      1  C   UNL     1      46.594   2.753   7.422  0.00  0.00    +0.000 A 
ATOM      2  C   UNL     1      46.281   4.085   7.665  0.00  0.00    +0.000 A 
ATOM      3  C   UNL     1      45.445   4.408   8.739  0.00  0.00    +0.000 A 
ATOM      4  C   UNL     1      44.931   3.397   9.542  0.00  0.00    +0.000 A 
ATOM      5  N   UNL     1      44.014   3.622  10.572  0.00  0.00    +0.000 N 
ATOM      6  N   UNL     1      45.220   2.099   9.306  0.00  0.00    +0.000 NA
ATOM      7  C   UNL     1      46.035   1.800   8.259  0.00  0.00    +0.000 A 
ATOM      8  H   UNL     1      43.871   2.724  11.030  0.00  0.00    +0.000 HD
ENDROOT
BRANCH   1  10
ATOM      9  N   UNL     1      47.333   2.995   5.119  0.00  0.00    +0.000 N 
ATOM     10  C   UNL     1      47.449   2.316   6.299  0.00  0.00    +0.000 C 
ATOM     11  O   UNL     1      48.252   1.394   6.423  0.00  0.00    +0.000 OA
ATOM     12  H   UNL     1      47.976   2.737   4.381  0.00  0.00    +0.000 HD
ATOM     13  H   UNL     1      46.873   3.893   5.046  0.00  0.00    +0.000 HD
ENDBRANCH   1  10
BRANCH   5  14
ATOM     14  C   UNL     1      43.948   4.819  11.423  0.00  0.00    +0.000 C 
ATOM     15  C   UNL     1      42.652   4.964  12.218  0.00  0.00    +0.000 C 
ATOM     16  C   UNL     1      42.989   5.971  11.172  0.00  0.00    +0.000 C 
BRANCH  14  17
ATOM     17  C   UNL     1      45.254   5.160  12.141  0.00  0.00    +0.000 A 
ATOM     18  C   UNL     1      46.005   6.296  11.786  0.00  0.00    +0.000 A 
ATOM     19  C   UNL     1      47.141   6.675  12.507  0.00  0.00    +0.000 A 
ATOM     20  C   UNL     1      47.560   5.916  13.596  0.00  0.00    +0.000 A 
ATOM     21  C   UNL     1      46.862   4.764  13.944  0.00  0.00    +0.000 A 
ATOM     22  C   UNL     1      45.731   4.387  13.217  0.00  0.00    +0.000 A 
ENDBRANCH  14  17
ENDBRANCH   5  14
TORSDOF 3
ENDMDL
MODEL 2
REMARK VINA RESULT:    -6.581      3.523      6.188
REMARK INTER + INTRA:          -8.316
REMARK INTER:                  -7.887
REMARK INTRA:                  -0.429
REMARK UNBOUND:                -0.580
REMARK  Name = 
REMARK  3 active torsions:
REMARK  status: ('A' for Active; 'I' for Inactive)
REMARK    1  A    between atoms: C_2  and  C_4
REMARK    2  A    between atoms: N_8  and  C_9
REMARK    3  A    between atoms: C_9  and  C_10
REMARK                            x       y       z     vdW  Elec       q    Type
REMARK                         _______ _______ _______ _____ _____    ______ ____
ROOT
ATOM      1  C   UNL     1      48.239   6.645  13.840  0.00  0.00    +0.000 A 
ATOM      2  C   UNL     1      47.418   5.564  14.140  0.00  0.00    +0.000 A 
ATOM      3  C   UNL     1      46.337   5.273  13.303  0.00  0.00    +0.000 A 
ATOM      4  C   UNL     1      46.090   6.068  12.190  0.00  0.00    +0.000 A 
ATOM      5  N   UNL     1      44.980   5.908  11.358  0.00  0.00    +0.000 N 
ATOM      6  N   UNL     1      46.876   7.127  11.898  0.00  0.00    +0.000 NA
ATOM      7  C   UNL     1      47.925   7.398  12.721  0.00  0.00    +0.000 A 
ATOM      8  H   UNL     1      45.095   6.572  10.595  0.00  0.00    +0.000 HD
ENDROOT
BRANCH   1  10
ATOM      9  N   UNL     1      50.529   7.438  14.036  0.00  0.00    +0.000 N 
ATOM     10  C   UNL     1      49.390   7.041  14.679  0.00  0.00    +0.000 C 
ATOM     11  O   UNL     1      49.322   7.039  15.906  0.00  0.00    +0.000 OA
ATOM     12  H   UNL     1      51.284   7.778  14.620  0.00  0.00    +0.000 HD
ATOM     13  H   UNL     1      50.550   7.681  13.055  0.00  0.00    +0.000 HD
ENDBRANCH   1  10
BRANCH   5  14
ATOM     14  C   UNL     1      44.319   4.635  11.037  0.00  0.00    +0.000 C 
ATOM     15  C   UNL     1      42.797   4.655  11.172  0.00  0.00    +0.000 C 
ATOM     16  C   UNL     1      43.604   3.780  12.070  0.00  0.00    +0.000 C 
BRANCH  14  17
ATOM     17  C   UNL     1      44.906   3.901   9.831  0.00  0.00    +0.000 A 
ATOM     18  C   UNL     1      45.525   4.604   8.781  0.00  0.00    +0.000 A 
ATOM     19  C   UNL     1      46.159   3.937   7.728  0.00  0.00    +0.000 A 
ATOM     20  C   UNL     1      46.179   2.546   7.698  0.00  0.00    +0.000 A 
ATOM     21  C   UNL     1      45.539   1.824   8.699  0.00  0.00    +0.000 A 
ATOM     22  C   UNL     1      44.902   2.496   9.746  0.00  0.00    +0.000 A 
ENDBRANCH  14  17
ENDBRANCH   5  14
TORSDOF 3
ENDMDL
MODEL 3
REMARK VINA RESULT:    -5.652      3.934      6.726
REMARK INTER + INTRA:          -7.223
REMARK INTER:                  -7.663
REMARK INTRA:                   0.439
REMARK UNBOUND:                -0.580
REMARK  Name = 
REMARK  3 active torsions:
REMARK  status: ('A' for Active; 'I' for Inactive)
REMARK    1  A    between atoms: C_2  and  C_4
REMARK    2  A    between atoms: N_8  and  C_9
REMARK    3  A    between atoms: C_9  and  C_10
REMARK                            x       y       z     vdW  Elec       q    Type
REMARK                         _______ _______ _______ _____ _____    ______ ____
ROOT
ATOM      1  C   UNL     1      48.432   5.743  15.575  0.00  0.00    +0.000 A 
ATOM      2  C   UNL     1      48.089   6.285  14.343  0.00  0.00    +0.000 A 
ATOM      3  C   UNL     1      47.064   5.697  13.597  0.00  0.00    +0.000 A 
ATOM      4  C   UNL     1      46.407   4.575  14.089  0.00  0.00    +0.000 A 
ATOM      5  N   UNL     1      45.441   3.869  13.369  0.00  0.00    +0.000 N 
ATOM      6  N   UNL     1      46.742   4.035  15.281  0.00  0.00    +0.000 NA
ATOM      7  C   UNL     1      47.741   4.619  15.996  0.00  0.00    +0.000 A 
ATOM      8  H   UNL     1      45.084   3.150  13.996  0.00  0.00    +0.000 HD
ENDROOT
BRANCH   1  10
ATOM      9  N   UNL     1      49.820   7.609  16.285  0.00  0.00    +0.000 N 
ATOM     10  C   UNL     1      49.517   6.284  16.422  0.00  0.00    +0.000 C 
ATOM     11  O   UNL     1      50.110   5.578  17.235  0.00  0.00    +0.000 OA
ATOM     12  H   UNL     1      50.512   7.984  16.922  0.00  0.00    +0.000 HD
ATOM     13  H   UNL     1      49.212   8.266  15.815  0.00  0.00    +0.000 HD
ENDBRANCH   1  10
BRANCH   5  14
ATOM     14  C   UNL     1      44.487   4.445  12.410  0.00  0.00    +0.000 C 
ATOM     15  C   UNL     1      44.029   5.864  12.742  0.00  0.00    +0.000 C 
ATOM     16  C   UNL     1      43.038   4.750  12.752  0.00  0.00    +0.000 C 
BRANCH  14  17
ATOM     17  C   UNL     1      44.792   4.131  10.945  0.00  0.00    +0.000 A 
ATOM     18  C   UNL     1      44.344   2.939  10.347  0.00  0.00    +0.000 A 
ATOM     19  C   UNL     1      44.524   2.693   8.983  0.00  0.00    +0.000 A 
ATOM     20  C   UNL     1      45.170   3.633   8.185  0.00  0.00    +0.000 A 
ATOM     21  C   UNL     1      45.661   4.802   8.756  0.00  0.00    +0.000 A 
ATOM     22  C   UNL     1      45.483   5.040  10.122  0.00  0.00    +0.000 A 
ENDBRANCH  14  17
ENDBRANCH   5  14
TORSDOF 3
ENDMDL
MODEL 4
REMARK VINA RESULT:    -5.351      3.330      4.821
REMARK INTER + INTRA:          -6.870
REMARK INTER:                  -6.235
REMARK INTRA:                  -0.635
REMARK UNBOUND:                -0.580
REMARK  Name = 
REMARK  3 active torsions:
REMARK  status: ('A' for Active; 'I' for Inactive)
REMARK    1  A    between atoms: C_2  and  C_4
REMARK    2  A    between atoms: N_8  and  C_9
REMARK    3  A    between atoms: C_9  and  C_10
REMARK                            x       y       z     vdW  Elec       q    Type
REMARK                         _______ _______ _______ _____ _____    ______ ____
ROOT
ATOM      1  C   UNL     1      44.208   4.122  11.427  0.00  0.00    +0.000 A 
ATOM      2  C   UNL     1      44.856   4.987  10.553  0.00  0.00    +0.000 A 
ATOM      3  C   UNL     1      45.165   6.283  10.975  0.00  0.00    +0.000 A 
ATOM      4  C   UNL     1      44.816   6.695  12.256  0.00  0.00    +0.000 A 
ATOM      5  N   UNL     1      44.999   7.999  12.723  0.00  0.00    +0.000 N 
ATOM      6  N   UNL     1      44.176   5.865  13.107  0.00  0.00    +0.000 NA
ATOM      7  C   UNL     1      43.882   4.607  12.683  0.00  0.00    +0.000 A 
ATOM      8  H   UNL     1      44.724   7.993  13.704  0.00  0.00    +0.000 HD
ENDROOT
BRANCH   1  10
ATOM      9  N   UNL     1      44.490   2.158  10.024  0.00  0.00    +0.000 N 
ATOM     10  C   UNL     1      43.821   2.743  11.061  0.00  0.00    +0.000 C 
ATOM     11  O   UNL     1      42.950   2.135  11.679  0.00  0.00    +0.000 OA
ATOM     12  H   UNL     1      44.269   1.188   9.831  0.00  0.00    +0.000 HD
ATOM     13  H   UNL     1      45.357   2.522   9.654  0.00  0.00    +0.000 HD
ENDBRANCH   1  10
BRANCH   5  14
ATOM     14  C   UNL     1      46.093   8.905  12.346  0.00  0.00    +0.000 C 
ATOM     15  C   UNL     1      45.764  10.391  12.480  0.00  0.00    +0.000 C 
ATOM     16  C   UNL     1      46.041   9.818  11.132  0.00  0.00    +0.000 C 
BRANCH  14  17
ATOM     17  C   UNL     1      47.480   8.450  12.801  0.00  0.00    +0.000 A 
ATOM     18  C   UNL     1      48.448   8.025  11.872  0.00  0.00    +0.000 A 
ATOM     19  C   UNL     1      49.751   7.710  12.268  0.00  0.00    +0.000 A 
ATOM     20  C   UNL     1      50.114   7.803  13.608  0.00  0.00    +0.000 A 
ATOM     21  C   UNL     1      49.167   8.179  14.555  0.00  0.00    +0.000 A 
ATOM     22  C   UNL     1      47.864   8.487  14.155  0.00  0.00    +0.000 A 
ENDBRANCH  14  17
ENDBRANCH   5  14
TORSDOF 3
ENDMDL
MODEL 5
REMARK VINA RESULT:    -5.320      4.743      7.741
REMARK INTER + INTRA:          -6.833
REMARK INTER:                  -6.922
REMARK INTRA:                   0.089
REMARK UNBOUND:                -0.580
REMARK  Name = 
REMARK  3 active torsions:
REMARK  status: ('A' for Active; 'I' for Inactive)
REMARK    1  A    between atoms: C_2  and  C_4
REMARK    2  A    between atoms: N_8  and  C_9
REMARK    3  A    between atoms: C_9  and  C_10
REMARK                            x       y       z     vdW  Elec       q    Type
REMARK                         _______ _______ _______ _____ _____    ______ ____
ROOT
ATOM      1  C   UNL     1      48.408   4.299  17.581  0.00  0.00    +0.000 A 
ATOM      2  C   UNL     1      48.401   5.566  17.011  0.00  0.00    +0.000 A 
ATOM      3  C   UNL     1      47.978   5.720  15.687  0.00  0.00    +0.000 A 
ATOM      4  C   UNL     1      47.580   4.607  14.955  0.00  0.00    +0.000 A 
ATOM      5  N   UNL     1      47.237   4.657  13.602  0.00  0.00    +0.000 N 
ATOM      6  N   UNL     1      47.595   3.371  15.498  0.00  0.00    +0.000 NA
ATOM      7  C   UNL     1      48.008   3.236  16.786  0.00  0.00    +0.000 A 
ATOM      8  H   UNL     1      46.921   3.722  13.351  0.00  0.00    +0.000 HD
ENDROOT
BRANCH   1  10
ATOM      9  N   UNL     1      48.307   2.970  19.614  0.00  0.00    +0.000 N 
ATOM     10  C   UNL     1      48.860   4.037  18.964  0.00  0.00    +0.000 C 
ATOM     11  O   UNL     1      49.715   4.735  19.503  0.00  0.00    +0.000 OA
ATOM     12  H   UNL     1      48.678   2.756  20.532  0.00  0.00    +0.000 HD
ATOM     13  H   UNL     1      47.792   2.243  19.137  0.00  0.00    +0.000 HD
ENDBRANCH   1  10
BRANCH   5  14
ATOM     14  C   UNL     1      46.585   5.783  12.918  0.00  0.00    +0.000 C 
ATOM     15  C   UNL     1      47.530   6.667  12.105  0.00  0.00    +0.000 C 
ATOM     16  C   UNL     1      46.824   7.237  13.288  0.00  0.00    +0.000 C 
BRANCH  14  17
ATOM     17  C   UNL     1      45.228   5.449  12.298  0.00  0.00    +0.000 A 
ATOM     18  C   UNL     1      45.136   4.765  11.072  0.00  0.00    +0.000 A 
ATOM     19  C   UNL     1      43.902   4.361  10.552  0.00  0.00    +0.000 A 
ATOM     20  C   UNL     1      42.728   4.645  11.244  0.00  0.00    +0.000 A 
ATOM     21  C   UNL     1      42.785   5.358  12.437  0.00  0.00    +0.000 A 
ATOM     22  C   UNL     1      44.020   5.764  12.949  0.00  0.00    +0.000 A 
ENDBRANCH  14  17
ENDBRANCH   5  14
TORSDOF 3
ENDMDL
