MODEL 1
REMARK VINA RESULT:    -7.202      0.000      0.000
REMARK INTER + INTRA:         -12.525
REMARK INTER:                 -11.202
REMARK INTRA:                  -1.323
REMARK UNBOUND:                -1.323
REMARK  Name = 
REMARK  10 active torsions:
REMARK  status: ('A' for Active; 'I' for Inactive)
REMARK    1  A    between atoms: N_1  and  C_2
REMARK    2  A    between atoms: C_2  and  C_3
REMARK    3  A    between atoms: C_3  and  N_4
REMARK    4  A    between atoms: N_4  and  C_5
REMARK    5  A    between atoms: C_5  and  C_6
REMARK    6  A    between atoms: C_9  and  C_10
REMARK    7  A    between atoms: C_10  and  N_11
REMARK    8  A    between atoms: N_11  and  C_12
REMARK    9  A    between atoms: C_12  and  C_13
REMARK   10  A    between atoms: C_20  and  C_22
REMARK                            x       y       z     vdW  Elec       q    Type
REMARK                         _______ _______ _______ _____ _____    ______ ____
ROOT
ATOM      1  N   UNL     1      46.045   7.038  11.776  0.00  0.00    +0.000 N 
ATOM      2  C   UNL     1      44.748   6.611  11.406  0.00  0.00    +0.000 C 
ATOM      3  O   UNL     1      43.864   7.423  11.151  0.00  0.00    +0.000 OA
ENDROOT
BRANCH   2   4
ATOM      4  C   UNL     1      44.442   5.173  11.348  0.00  0.00    +0.000 A 
ATOM      5  C   UNL     1      43.664   4.478  12.262  0.00  0.00    +0.000 A 
ATOM      6  S   UNL     1      43.487   2.818  11.906  0.00  0.00    +0.000 S 
ATOM      7  C   UNL     1      44.277   3.007  10.414  0.00  0.00    +0.000 A 
ATOM      8  N   UNL     1      44.361   1.973   9.541  0.00  0.00    +0.000 NA
ATOM      9  C   UNL     1      44.919   2.270   8.414  0.00  0.00    +0.000 A 
ATOM     10  N   UNL     1      45.427   3.509   8.105  0.00  0.00    +0.000 N 
ATOM     11  C   UNL     1      45.481   4.552   9.009  0.00  0.00    +0.000 A 
ATOM     12  O   UNL     1      46.136   5.558   8.765  0.00  0.00    +0.000 OA
ATOM     13  C   UNL     1      44.766   4.290  10.246  0.00  0.00    +0.000 A 
ATOM     14  H   UNL     1      45.903   3.666   7.228  0.00  0.00    +0.000 HD
ENDBRANCH   2   4
BRANCH   1  15
ATOM     15  C   UNL     1      46.252   8.502  11.842  0.00  0.00    +0.000 C 
BRANCH  15  16
ATOM     16  C   UNL     1      45.535   9.184  13.030  0.00  0.00    +0.000 C 
BRANCH  16  17
ATOM     17  N   UNL     1      44.411  10.034  12.608  0.00  0.00    +0.000 NA
ATOM     18  H   UNL     1      43.671   9.439  12.237  0.00  0.00    +0.000 HD
ATOM     19  H   UNL     1      44.715  10.601  11.814  0.00  0.00    +0.000 HD
ENDBRANCH  16  17
ENDBRANCH  15  16
ENDBRANCH   1  15
BRANCH   1  20
ATOM     20  C   UNL     1      47.117   6.090  12.110  0.00  0.00    +0.000 C 
BRANCH  20  21
ATOM     21  C   UNL     1      47.410   5.742  13.544  0.00  0.00    +0.000 A 
ATOM     22  C   UNL     1      48.257   6.562  14.304  0.00  0.00    +0.000 A 
ATOM     23  C   UNL     1      48.580   6.225  15.618  0.00  0.00    +0.000 A 
ATOM     24  C   UNL     1      48.069   5.055  16.191  0.00  0.00    +0.000 A 
ATOM     25  C   UNL     1      47.138   4.296  15.469  0.00  0.00    +0.000 A 
ATOM     26  C   UNL     1      46.808   4.637  14.156  0.00  0.00    +0.000 A 
BRANCH  24  27
ATOM     27  C   UNL     1      48.595   4.562  17.517  0.00  0.00    +0.000 C 
BRANCH  27  28
ATOM     28  N   UNL     1      49.964   4.064  17.417  0.00  0.00    +0.000 NA
ATOM     29  H   UNL     1      50.455   4.326  18.272  0.00  0.00    +0.000 HD
BRANCH  28  30
ATOM     30  C   UNL     1      49.957   2.604  17.319  0.00  0.00    +0.000 C 
BRANCH  30  31
ATOM     31  C   UNL     1      51.329   2.093  17.532  0.00  0.00    +0.000 A 
ATOM     32  C   UNL     1      52.507   2.704  17.901  0.00  0.00    +0.000 A 
ATOM     33  N   UNL     1      53.530   1.793  17.966  0.00  0.00    +0.000 NA
ATOM     34  C   UNL     1      52.990   0.639  17.647  0.00  0.00    +0.000 A 
ATOM     35  N   UNL     1      51.658   0.768  17.390  0.00  0.00    +0.000 N 
ATOM     36  H   UNL     1      51.015   0.041  17.104  0.00  0.00    +0.000 HD
ENDBRANCH  30  31
ENDBRANCH  28  30
ENDBRANCH  27  28
ENDBRANCH  24  27
ENDBRANCH  20  21
ENDBRANCH   1  20
TORSDOF 10
ENDMDL
MODEL 2
REMARK VINA RESULT:    -7.189      2.676      3.573
REMARK INTER + INTRA:         -12.504
REMARK INTER:                 -10.799
REMARK INTRA:                  -1.705
REMARK UNBOUND:                -1.323
REMARK  Name = 
REMARK  10 active torsions:
REMARK  status: ('A' for Active; 'I' for Inactive)
REMARK    1  A    between atoms: N_1  and  C_2
REMARK    2  A    between atoms: C_2  and  C_3
REMARK    3  A    between atoms: C_3  and  N_4
REMARK    4  A    between atoms: N_4  and  C_5
REMARK    5  A    between atoms: C_5  and  C_6
REMARK    6  A    between atoms: C_9  and  C_10
REMARK    7  A    between atoms: C_10  and  N_11
REMARK    8  A    between atoms: N_11  and  C_12
REMARK    9  A    between atoms: C_12  and  C_13
REMARK   10  A    between atoms: C_20  and  C_22
REMARK                            x       y       z     vdW  Elec       q    Type
REMARK                         _______ _______ _______ _____ _____    ______ ____
ROOT
ATOM      1  N   UNL     1      46.212   6.957  11.869  0.00  0.00    +0.000 N 
ATOM      2  C   UNL     1      44.900   6.596  11.484  0.00  0.00    +0.000 C 
ATOM      3  O   UNL     1      44.062   7.452  11.216  0.00  0.00    +0.000 OA
ENDROOT
BRANCH   2   4
ATOM      4  C   UNL     1      44.520   5.176  11.426  0.00  0.00    +0.000 A 
ATOM      5  C   UNL     1      43.754   4.508  12.369  0.00  0.00    +0.000 A 
ATOM      6  S   UNL     1      43.478   2.863  12.005  0.00  0.00    +0.000 S 
ATOM      7  C   UNL     1      44.202   3.034  10.478  0.00  0.00    +0.000 A 
ATOM      8  N   UNL     1      44.192   2.008   9.591  0.00  0.00    +0.000 NA
ATOM      9  C   UNL     1      44.709   2.292   8.441  0.00  0.00    +0.000 A 
ATOM     10  N   UNL     1      45.263   3.509   8.121  0.00  0.00    +0.000 N 
ATOM     11  C   UNL     1      45.412   4.536   9.032  0.00  0.00    +0.000 A 
ATOM     12  O   UNL     1      46.104   5.511   8.767  0.00  0.00    +0.000 OA
ATOM     13  C   UNL     1      44.745   4.293  10.300  0.00  0.00    +0.000 A 
ATOM     14  H   UNL     1      45.703   3.653   7.223  0.00  0.00    +0.000 HD
ENDBRANCH   2   4
BRANCH   1  15
ATOM     15  C   UNL     1      46.495   8.408  11.934  0.00  0.00    +0.000 C 
BRANCH  15  16
ATOM     16  C   UNL     1      45.822   9.125  13.127  0.00  0.00    +0.000 C 
BRANCH  16  17
ATOM     17  N   UNL     1      44.622   9.882  12.738  0.00  0.00    +0.000 NA
ATOM     18  H   UNL     1      44.429   9.706  11.753  0.00  0.00    +0.000 HD
ATOM     19  H   UNL     1      44.840  10.879  12.789  0.00  0.00    +0.000 HD
ENDBRANCH  16  17
ENDBRANCH  15  16
ENDBRANCH   1  15
BRANCH   1  20
ATOM     20  C   UNL     1      47.230   5.954  12.218  0.00  0.00    +0.000 C 
BRANCH  20  21
ATOM     21  C   UNL     1      47.440   5.546  13.650  0.00  0.00    +0.000 A 
ATOM     22  C   UNL     1      46.960   4.308  14.103  0.00  0.00    +0.000 A 
ATOM     23  C   UNL     1      47.101   3.938  15.440  0.00  0.00    +0.000 A 
ATOM     24  C   UNL     1      47.716   4.805  16.350  0.00  0.00    +0.000 A 
ATOM     25  C   UNL     1      48.291   5.991  15.875  0.00  0.00    +0.000 A 
ATOM     26  C   UNL     1      48.157   6.359  14.535  0.00  0.00    +0.000 A 
BRANCH  24  27
ATOM     27  C   UNL     1      47.663   4.519  17.831  0.00  0.00    +0.000 C 
BRANCH  27  28
ATOM     28  N   UNL     1      46.670   5.343  18.516  0.00  0.00    +0.000 NA
ATOM     29  H   UNL     1      45.933   4.724  18.855  0.00  0.00    +0.000 HD
BRANCH  28  30
ATOM     30  C   UNL     1      47.282   6.004  19.669  0.00  0.00    +0.000 C 
BRANCH  30  31
ATOM     31  C   UNL     1      47.869   7.292  19.239  0.00  0.00    +0.000 A 
ATOM     32  C   UNL     1      49.126   7.838  19.375  0.00  0.00    +0.000 A 
ATOM     33  N   UNL     1      49.183   9.082  18.800  0.00  0.00    +0.000 NA
ATOM     34  C   UNL     1      47.983   9.296  18.313  0.00  0.00    +0.000 A 
ATOM     35  N   UNL     1      47.157   8.237  18.542  0.00  0.00    +0.000 N 
ATOM     36  H   UNL     1      46.181   8.153  18.290  0.00  0.00    +0.000 HD
ENDBRANCH  30  31
ENDBRANCH  28  30
ENDBRANCH  27  28
ENDBRANCH  24  27
ENDBRANCH  20  21
ENDBRANCH   1  20
TORSDOF 10
ENDMDL
MODEL 3
REMARK VINA RESULT:    -6.760      4.003      8.250
REMARK INTER + INTRA:         -11.836
REMARK INTER:                 -10.398
REMARK INTRA:                  -1.438
REMARK UNBOUND:                -1.323
REMARK  Name = 
REMARK  10 active torsions:
REMARK  status: ('A' for Active; 'I' for Inactive)
REMARK    1  A    between atoms: N_1  and  C_2
REMARK    2  A    between atoms: C_2  and  C_3
REMARK    3  A    between atoms: C_3  and  N_4
REMARK    4  A    between atoms: N_4  and  C_5
REMARK    5  A    between atoms: C_5  and  C_6
REMARK    6  A    between atoms: C_9  and  C_10
REMARK    7  A    between atoms: C_10  and  N_11
REMARK    8  A    between atoms: N_11  and  C_12
REMARK    9  A    between atoms: C_12  and  C_13
REMARK   10  A    between atoms: C_20  and  C_22
REMARK                            x       y       z     vdW  Elec       q    Type
REMARK                         _______ _______ _______ _____ _____    ______ ____
ROOT
ATOM      1  N   UNL     1      48.996   7.588  13.603  0.00  0.00    +0.000 N 
ATOM      2  C   UNL     1      49.794   7.875  14.734  0.00  0.00    +0.000 C 
ATOM      3  O   UNL     1      51.019   7.825  14.673  0.00  0.00    +0.000 OA
ENDROOT
BRANCH   2   4
ATOM      4  C   UNL     1      49.152   8.216  16.014  0.00  0.00    +0.000 A 
ATOM      5  C   UNL     1      48.764   9.488  16.406  0.00  0.00    +0.000 A 
ATOM      6  S   UNL     1      48.034   9.550  17.947  0.00  0.00    +0.000 S 
ATOM      7  C   UNL     1      48.029   7.855  18.063  0.00  0.00    +0.000 A 
ATOM      8  N   UNL     1      47.425   7.236  19.107  0.00  0.00    +0.000 NA
ATOM      9  C   UNL     1      47.428   5.945  19.035  0.00  0.00    +0.000 A 
ATOM     10  N   UNL     1      48.014   5.228  18.020  0.00  0.00    +0.000 N 
ATOM     11  C   UNL     1      48.751   5.810  17.008  0.00  0.00    +0.000 A 
ATOM     12  O   UNL     1      49.435   5.125  16.257  0.00  0.00    +0.000 OA
ATOM     13  C   UNL     1      48.677   7.261  16.995  0.00  0.00    +0.000 A 
ATOM     14  H   UNL     1      48.032   4.218  18.048  0.00  0.00    +0.000 HD
ENDBRANCH   2   4
BRANCH   1  15
ATOM     15  C   UNL     1      49.726   7.222  12.369  0.00  0.00    +0.000 C 
BRANCH  15  16
ATOM     16  C   UNL     1      49.897   8.390  11.371  0.00  0.00    +0.000 C 
BRANCH  16  17
ATOM     17  N   UNL     1      50.691   9.500  11.920  0.00  0.00    +0.000 NA
ATOM     18  H   UNL     1      50.124  10.348  11.904  0.00  0.00    +0.000 HD
ATOM     19  H   UNL     1      51.465   9.691  11.280  0.00  0.00    +0.000 HD
ENDBRANCH  16  17
ENDBRANCH  15  16
ENDBRANCH   1  15
BRANCH   1  20
ATOM     20  C   UNL     1      47.527   7.617  13.652  0.00  0.00    +0.000 C 
BRANCH  20  21
ATOM     21  C   UNL     1      46.719   6.524  13.010  0.00  0.00    +0.000 A 
ATOM     22  C   UNL     1      46.519   5.311  13.686  0.00  0.00    +0.000 A 
ATOM     23  C   UNL     1      45.817   4.268  13.082  0.00  0.00    +0.000 A 
ATOM     24  C   UNL     1      45.311   4.417  11.786  0.00  0.00    +0.000 A 
ATOM     25  C   UNL     1      45.416   5.664  11.155  0.00  0.00    +0.000 A 
ATOM     26  C   UNL     1      46.112   6.711  11.763  0.00  0.00    +0.000 A 
BRANCH  24  27
ATOM     27  C   UNL     1      44.761   3.226  11.040  0.00  0.00    +0.000 C 
BRANCH  27  28
ATOM     28  N   UNL     1      44.898   3.372   9.593  0.00  0.00    +0.000 NA
ATOM     29  H   UNL     1      45.785   3.843   9.410  0.00  0.00    +0.000 HD
BRANCH  28  30
ATOM     30  C   UNL     1      44.940   2.051   8.962  0.00  0.00    +0.000 C 
BRANCH  30  31
ATOM     31  C   UNL     1      46.139   1.960   8.100  0.00  0.00    +0.000 A 
ATOM     32  C   UNL     1      46.877   0.893   7.636  0.00  0.00    +0.000 A 
ATOM     33  N   UNL     1      47.918   1.324   6.853  0.00  0.00    +0.000 NA
ATOM     34  C   UNL     1      47.819   2.633   6.830  0.00  0.00    +0.000 A 
ATOM     35  N   UNL     1      46.750   3.064   7.558  0.00  0.00    +0.000 N 
ATOM     36  H   UNL     1      46.462   4.020   7.720  0.00  0.00    +0.000 HD
ENDBRANCH  30  31
ENDBRANCH  28  30
ENDBRANCH  27  28
ENDBRANCH  24  27
ENDBRANCH  20  21
ENDBRANCH   1  20
TORSDOF 10
ENDMDL
MODEL 4
REMARK VINA RESULT:    -6.600      4.054      8.395
REMARK INTER + INTRA:         -11.588
REMARK INTER:                 -10.168
REMARK INTRA:                  -1.420
REMARK UNBOUND:                -1.323
REMARK  Name = 
REMARK  10 active torsions:
REMARK  status: ('A' for Active; 'I' for Inactive)
REMARK    1  A    between atoms: N_1  and  C_2
REMARK    2  A    between atoms: C_2  and  C_3
REMARK    3  A    between atoms: C_3  and  N_4
REMARK    4  A    between atoms: N_4  and  C_5
REMARK    5  A    between atoms: C_5  and  C_6
REMARK    6  A    between atoms: C_9  and  C_10
REMARK    7  A    between atoms: C_10  and  N_11
REMARK    8  A    between atoms: N_11  and  C_12
REMARK    9  A    between atoms: C_12  and  C_13
REMARK   10  A    between atoms: C_20  and  C_22
REMARK                            x       y       z     vdW  Elec       q    Type
REMARK                         _______ _______ _______ _____ _____    ______ ____
ROOT
ATOM      1  N   UNL     1      48.879   7.304  13.952  0.00  0.00    +0.000 N 
ATOM      2  C   UNL     1      49.585   6.918  15.115  0.00  0.00    +0.000 C 
ATOM      3  O   UNL     1      50.813   6.909  15.135  0.00  0.00    +0.000 OA
ENDROOT
BRANCH   2   4
ATOM      4  C   UNL     1      48.844   6.498  16.315  0.00  0.00    +0.000 A 
ATOM      5  C   UNL     1      48.522   5.191  16.645  0.00  0.00    +0.000 A 
ATOM      6  S   UNL     1      47.665   5.034  18.113  0.00  0.00    +0.000 S 
ATOM      7  C   UNL     1      47.867   6.685  18.459  0.00  0.00    +0.000 A 
ATOM      8  N   UNL     1      47.462   7.195  19.649  0.00  0.00    +0.000 NA
ATOM      9  C   UNL     1      47.741   8.446  19.815  0.00  0.00    +0.000 A 
ATOM     10  N   UNL     1      48.364   9.232  18.875  0.00  0.00    +0.000 N 
ATOM     11  C   UNL     1      48.675   8.789  17.604  0.00  0.00    +0.000 A 
ATOM     12  O   UNL     1      49.023   9.578  16.734  0.00  0.00    +0.000 OA
ATOM     13  C   UNL     1      48.476   7.362  17.419  0.00  0.00    +0.000 A 
ATOM     14  H   UNL     1      48.506  10.218  19.041  0.00  0.00    +0.000 HD
ENDBRANCH   2   4
BRANCH   1  15
ATOM     15  C   UNL     1      49.706   7.677  12.783  0.00  0.00    +0.000 C 
BRANCH  15  16
ATOM     16  C   UNL     1      49.842   9.203  12.573  0.00  0.00    +0.000 C 
BRANCH  16  17
ATOM     17  N   UNL     1      49.402   9.983  13.740  0.00  0.00    +0.000 NA
ATOM     18  H   UNL     1      48.484  10.380  13.542  0.00  0.00    +0.000 HD
ATOM     19  H   UNL     1      50.021  10.791  13.839  0.00  0.00    +0.000 HD
ENDBRANCH  16  17
ENDBRANCH  15  16
ENDBRANCH   1  15
BRANCH   1  20
ATOM     20  C   UNL     1      47.410   7.303  13.891  0.00  0.00    +0.000 C 
BRANCH  20  21
ATOM     21  C   UNL     1      46.682   6.321  13.015  0.00  0.00    +0.000 A 
ATOM     22  C   UNL     1      46.345   6.674  11.699  0.00  0.00    +0.000 A 
ATOM     23  C   UNL     1      45.625   5.795  10.891  0.00  0.00    +0.000 A 
ATOM     24  C   UNL     1      45.219   4.551  11.389  0.00  0.00    +0.000 A 
ATOM     25  C   UNL     1      45.650   4.157  12.663  0.00  0.00    +0.000 A 
ATOM     26  C   UNL     1      46.379   5.034  13.470  0.00  0.00    +0.000 A 
BRANCH  24  27
ATOM     27  C   UNL     1      44.247   3.697  10.612  0.00  0.00    +0.000 C 
BRANCH  27  28
ATOM     28  N   UNL     1      44.664   3.511   9.225  0.00  0.00    +0.000 NA
ATOM     29  H   UNL     1      45.533   4.028   9.089  0.00  0.00    +0.000 HD
BRANCH  28  30
ATOM     30  C   UNL     1      44.928   2.093   8.972  0.00  0.00    +0.000 C 
BRANCH  30  31
ATOM     31  C   UNL     1      46.123   1.965   8.108  0.00  0.00    +0.000 A 
ATOM     32  C   UNL     1      46.861   0.881   7.689  0.00  0.00    +0.000 A 
ATOM     33  N   UNL     1      47.897   1.277   6.882  0.00  0.00    +0.000 NA
ATOM     34  C   UNL     1      47.795   2.584   6.802  0.00  0.00    +0.000 A 
ATOM     35  N   UNL     1      46.729   3.045   7.515  0.00  0.00    +0.000 N 
ATOM     36  H   UNL     1      46.441   4.007   7.636  0.00  0.00    +0.000 HD
ENDBRANCH  30  31
ENDBRANCH  28  30
ENDBRANCH  27  28
ENDBRANCH  24  27
ENDBRANCH  20  21
ENDBRANCH   1  20
TORSDOF 10
ENDMDL
MODEL 5
REMARK VINA RESULT:    -6.555      3.286      8.284
REMARK INTER + INTRA:         -11.518
REMARK INTER:                 -10.051
REMARK INTRA:                  -1.467
REMARK UNBOUND:                -1.323
REMARK  Name = 
REMARK  10 active torsions:
REMARK  status: ('A' for Active; 'I' for Inactive)
REMARK    1  A    between atoms: N_1  and  C_2
REMARK    2  A    between atoms: C_2  and  C_3
REMARK    3  A    between atoms: C_3  and  N_4
REMARK    4  A    between atoms: N_4  and  C_5
REMARK    5  A    between atoms: C_5  and  C_6
REMARK    6  A    between atoms: C_9  and  C_10
REMARK    7  A    between atoms: C_10  and  N_11
REMARK    8  A    between atoms: N_11  and  C_12
REMARK    9  A    between atoms: C_12  and  C_13
REMARK   10  A    between atoms: C_20  and  C_22
REMARK                            x       y       z     vdW  Elec       q    Type
REMARK                         _______ _______ _______ _____ _____    ______ ____
ROOT
ATOM      1  N   UNL     1      48.641   7.382  15.682  0.00  0.00    +0.000 N 
ATOM      2  C   UNL     1      48.464   6.867  16.988  0.00  0.00    +0.000 C 
ATOM      3  O   UNL     1      48.319   7.617  17.949  0.00  0.00    +0.000 OA
ENDROOT
BRANCH   2   4
ATOM      4  C   UNL     1      48.478   5.412  17.207  0.00  0.00    +0.000 A 
ATOM      5  C   UNL     1      47.377   4.574  17.114  0.00  0.00    +0.000 A 
ATOM      6  S   UNL     1      47.726   2.930  17.415  0.00  0.00    +0.000 S 
ATOM      7  C   UNL     1      49.393   3.250  17.485  0.00  0.00    +0.000 A 
ATOM      8  N   UNL     1      50.286   2.236  17.602  0.00  0.00    +0.000 NA
ATOM      9  C   UNL     1      51.523   2.609  17.568  0.00  0.00    +0.000 A 
ATOM     10  N   UNL     1      51.935   3.916  17.458  0.00  0.00    +0.000 N 
ATOM     11  C   UNL     1      51.064   4.988  17.468  0.00  0.00    +0.000 A 
ATOM     12  O   UNL     1      51.482   6.133  17.590  0.00  0.00    +0.000 OA
ATOM     13  C   UNL     1      49.665   4.603  17.394  0.00  0.00    +0.000 A 
ATOM     14  H   UNL     1      52.917   4.150  17.493  0.00  0.00    +0.000 HD
ENDBRANCH   2   4
BRANCH   1  15
ATOM     15  C   UNL     1      48.648   8.856  15.561  0.00  0.00    +0.000 C 
BRANCH  15  16
ATOM     16  C   UNL     1      50.064   9.473  15.491  0.00  0.00    +0.000 C 
BRANCH  16  17
ATOM     17  N   UNL     1      50.989   8.898  16.480  0.00  0.00    +0.000 NA
ATOM     18  H   UNL     1      51.245   7.957  16.182  0.00  0.00    +0.000 HD
ATOM     19  H   UNL     1      50.481   8.765  17.357  0.00  0.00    +0.000 HD
ENDBRANCH  16  17
ENDBRANCH  15  16
ENDBRANCH   1  15
BRANCH   1  20
ATOM     20  C   UNL     1      48.841   6.509  14.516  0.00  0.00    +0.000 C 
BRANCH  20  21
ATOM     21  C   UNL     1      47.705   6.221  13.573  0.00  0.00    +0.000 A 
ATOM     22  C   UNL     1      46.952   5.046  13.723  0.00  0.00    +0.000 A 
ATOM     23  C   UNL     1      45.930   4.739  12.826  0.00  0.00    +0.000 A 
ATOM     24  C   UNL     1      45.650   5.597  11.756  0.00  0.00    +0.000 A 
ATOM     25  C   UNL     1      46.328   6.821  11.671  0.00  0.00    +0.000 A 
ATOM     26  C   UNL     1      47.346   7.133  12.575  0.00  0.00    +0.000 A 
BRANCH  24  27
ATOM     27  C   UNL     1      44.714   5.164  10.654  0.00  0.00    +0.000 C 
BRANCH  27  28
ATOM     28  N   UNL     1      45.405   5.001   9.377  0.00  0.00    +0.000 NA
ATOM     29  H   UNL     1      46.353   4.680   9.574  0.00  0.00    +0.000 HD
BRANCH  28  30
ATOM     30  C   UNL     1      44.731   3.981   8.573  0.00  0.00    +0.000 C 
BRANCH  30  31
ATOM     31  C   UNL     1      45.742   3.080   7.979  0.00  0.00    +0.000 A 
ATOM     32  C   UNL     1      46.697   3.262   7.003  0.00  0.00    +0.000 A 
ATOM     33  N   UNL     1      47.408   2.107   6.794  0.00  0.00    +0.000 NA
ATOM     34  C   UNL     1      46.903   1.231   7.631  0.00  0.00    +0.000 A 
ATOM     35  N   UNL     1      45.902   1.776   8.379  0.00  0.00    +0.000 N 
ATOM     36  H   UNL     1      45.337   1.314   9.079  0.00  0.00    +0.000 HD
ENDBRANCH  30  31
ENDBRANCH  28  30
ENDBRANCH  27  28
ENDBRANCH  24  27
ENDBRANCH  20  21
ENDBRANCH   1  20
TORSDOF 10
ENDMDL
MODEL 6
REMARK VINA RESULT:    -6.523      3.373      8.311
REMARK INTER + INTRA:         -11.468
REMARK INTER:                  -9.763
REMARK INTRA:                  -1.705
REMARK UNBOUND:                -1.323
REMARK  Name = 
REMARK  10 active torsions:
REMARK  status: ('A' for Active; 'I' for Inactive)
REMARK    1  A    between atoms: N_1  and  C_2
REMARK    2  A    between atoms: C_2  and  C_3
REMARK    3  A    between atoms: C_3  and  N_4
REMARK    4  A    between atoms: N_4  and  C_5
REMARK    5  A    between atoms: C_5  and  C_6
REMARK    6  A    between atoms: C_9  and  C_10
REMARK    7  A    between atoms: C_10  and  N_11
REMARK    8  A    between atoms: N_11  and  C_12
REMARK    9  A    between atoms: C_12  and  C_13
REMARK   10  A    between atoms: C_20  and  C_22
REMARK                            x       y       z     vdW  Elec       q    Type
REMARK                         _______ _______ _______ _____ _____    ______ ____
ROOT
ATOM      1  N   UNL     1      48.949   7.545  16.643  0.00  0.00    +0.000 N 
ATOM      2  C   UNL     1      48.615   6.791  17.793  0.00  0.00    +0.000 C 
ATOM      3  O   UNL     1      48.443   7.336  18.879  0.00  0.00    +0.000 OA
ENDROOT
BRANCH   2   4
ATOM      4  C   UNL     1      48.494   5.327  17.697  0.00  0.00    +0.000 A 
ATOM      5  C   UNL     1      47.319   4.631  17.457  0.00  0.00    +0.000 A 
ATOM      6  S   UNL     1      47.515   2.936  17.391  0.00  0.00    +0.000 S 
ATOM      7  C   UNL     1      49.205   3.083  17.483  0.00  0.00    +0.000 A 
ATOM      8  N   UNL     1      50.000   1.992  17.357  0.00  0.00    +0.000 NA
ATOM      9  C   UNL     1      51.266   2.250  17.370  0.00  0.00    +0.000 A 
ATOM     10  N   UNL     1      51.797   3.508  17.530  0.00  0.00    +0.000 N 
ATOM     11  C   UNL     1      51.031   4.626  17.791  0.00  0.00    +0.000 A 
ATOM     12  O   UNL     1      51.555   5.676  18.144  0.00  0.00    +0.000 OA
ATOM     13  C   UNL     1      49.601   4.393  17.675  0.00  0.00    +0.000 A 
ATOM     14  H   UNL     1      52.798   3.640  17.587  0.00  0.00    +0.000 HD
ENDBRANCH   2   4
BRANCH   1  15
ATOM     15  C   UNL     1      49.083   9.005  16.841  0.00  0.00    +0.000 C 
BRANCH  15  16
ATOM     16  C   UNL     1      50.545   9.486  16.990  0.00  0.00    +0.000 C 
BRANCH  16  17
ATOM     17  N   UNL     1      51.280   8.765  18.041  0.00  0.00    +0.000 NA
ATOM     18  H   UNL     1      50.650   8.594  18.824  0.00  0.00    +0.000 HD
ATOM     19  H   UNL     1      52.000   9.386  18.415  0.00  0.00    +0.000 HD
ENDBRANCH  16  17
ENDBRANCH  15  16
ENDBRANCH   1  15
BRANCH   1  20
ATOM     20  C   UNL     1      49.184   6.916  15.335  0.00  0.00    +0.000 C 
BRANCH  20  21
ATOM     21  C   UNL     1      48.092   6.869  14.303  0.00  0.00    +0.000 A 
ATOM     22  C   UNL     1      47.685   8.048  13.659  0.00  0.00    +0.000 A 
ATOM     23  C   UNL     1      46.638   8.028  12.738  0.00  0.00    +0.000 A 
ATOM     24  C   UNL     1      45.973   6.830  12.452  0.00  0.00    +0.000 A 
ATOM     25  C   UNL     1      46.451   5.638  13.012  0.00  0.00    +0.000 A 
ATOM     26  C   UNL     1      47.504   5.655  13.928  0.00  0.00    +0.000 A 
BRANCH  24  27
ATOM     27  C   UNL     1      44.698   6.839  11.644  0.00  0.00    +0.000 C 
BRANCH  27  28
ATOM     28  N   UNL     1      43.607   6.152  12.329  0.00  0.00    +0.000 NA
ATOM     29  H   UNL     1      43.045   6.857  12.807  0.00  0.00    +0.000 HD
BRANCH  28  30
ATOM     30  C   UNL     1      42.756   5.471  11.351  0.00  0.00    +0.000 C 
BRANCH  30  31
ATOM     31  C   UNL     1      43.556   4.457  10.630  0.00  0.00    +0.000 A 
ATOM     32  C   UNL     1      44.150   3.279  11.028  0.00  0.00    +0.000 A 
ATOM     33  N   UNL     1      44.793   2.677   9.977  0.00  0.00    +0.000 NA
ATOM     34  C   UNL     1      44.593   3.468   8.948  0.00  0.00    +0.000 A 
ATOM     35  N   UNL     1      43.839   4.550   9.290  0.00  0.00    +0.000 N 
ATOM     36  H   UNL     1      43.559   5.317   8.694  0.00  0.00    +0.000 HD
ENDBRANCH  30  31
ENDBRANCH  28  30
ENDBRANCH  27  28
ENDBRANCH  24  27
ENDBRANCH  20  21
ENDBRANCH   1  20
TORSDOF 10
ENDMDL
MODEL 7
REMARK VINA RESULT:    -6.183      3.461      8.300
REMARK INTER + INTRA:         -10.940
REMARK INTER:                  -9.720
REMARK INTRA:                  -1.220
REMARK UNBOUND:                -1.323
REMARK  Name = 
REMARK  10 active torsions:
REMARK  status: ('A' for Active; 'I' for Inactive)
REMARK    1  A    between atoms: N_1  and  C_2
REMARK    2  A    between atoms: C_2  and  C_3
REMARK    3  A    between atoms: C_3  and  N_4
REMARK    4  A    between atoms: N_4  and  C_5
REMARK    5  A    between atoms: C_5  and  C_6
REMARK    6  A    between atoms: C_9  and  C_10
REMARK    7  A    between atoms: C_10  and  N_11
REMARK    8  A    between atoms: N_11  and  C_12
REMARK    9  A    between atoms: C_12  and  C_13
REMARK   10  A    between atoms: C_20  and  C_22
REMARK                            x       y       z     vdW  Elec       q    Type
REMARK                         _______ _______ _______ _____ _____    ______ ____
ROOT
ATOM      1  N   UNL     1      48.722   8.065  14.576  0.00  0.00    +0.000 N 
ATOM      2  C   UNL     1      49.597   8.350  15.652  0.00  0.00    +0.000 C 
ATOM      3  O   UNL     1      49.466   9.372  16.319  0.00  0.00    +0.000 OA
ENDROOT
BRANCH   2   4
ATOM      4  C   UNL     1      50.695   7.423  15.965  0.00  0.00    +0.000 A 
ATOM      5  C   UNL     1      52.037   7.644  15.694  0.00  0.00    +0.000 A 
ATOM      6  S   UNL     1      53.067   6.378  16.194  0.00  0.00    +0.000 S 
ATOM      7  C   UNL     1      51.782   5.578  16.967  0.00  0.00    +0.000 A 
ATOM      8  N   UNL     1      52.008   4.463  17.706  0.00  0.00    +0.000 NA
ATOM      9  C   UNL     1      50.960   3.997  18.301  0.00  0.00    +0.000 A 
ATOM     10  N   UNL     1      49.701   4.539  18.189  0.00  0.00    +0.000 N 
ATOM     11  C   UNL     1      49.402   5.591  17.347  0.00  0.00    +0.000 A 
ATOM     12  O   UNL     1      48.238   5.895  17.114  0.00  0.00    +0.000 OA
ATOM     13  C   UNL     1      50.572   6.210  16.748  0.00  0.00    +0.000 A 
ATOM     14  H   UNL     1      48.910   4.096  18.635  0.00  0.00    +0.000 HD
ENDBRANCH   2   4
BRANCH   1  15
ATOM     15  C   UNL     1      47.669   9.070  14.312  0.00  0.00    +0.000 C 
BRANCH  15  16
ATOM     16  C   UNL     1      47.962   9.981  13.098  0.00  0.00    +0.000 C 
BRANCH  16  17
ATOM     17  N   UNL     1      46.746  10.584  12.528  0.00  0.00    +0.000 NA
ATOM     18  H   UNL     1      45.941  10.272  13.070  0.00  0.00    +0.000 HD
ATOM     19  H   UNL     1      46.600  10.195  11.594  0.00  0.00    +0.000 HD
ENDBRANCH  16  17
ENDBRANCH  15  16
ENDBRANCH   1  15
BRANCH   1  20
ATOM     20  C   UNL     1      48.869   6.861  13.745  0.00  0.00    +0.000 C 
BRANCH  20  21
ATOM     21  C   UNL     1      47.656   6.135  13.232  0.00  0.00    +0.000 A 
ATOM     22  C   UNL     1      47.073   5.116  14.001  0.00  0.00    +0.000 A 
ATOM     23  C   UNL     1      45.981   4.398  13.517  0.00  0.00    +0.000 A 
ATOM     24  C   UNL     1      45.458   4.680  12.249  0.00  0.00    +0.000 A 
ATOM     25  C   UNL     1      45.970   5.768  11.530  0.00  0.00    +0.000 A 
ATOM     26  C   UNL     1      47.059   6.493  12.018  0.00  0.00    +0.000 A 
BRANCH  24  27
ATOM     27  C   UNL     1      44.437   3.761  11.623  0.00  0.00    +0.000 C 
BRANCH  27  28
ATOM     28  N   UNL     1      45.047   2.807  10.701  0.00  0.00    +0.000 NA
ATOM     29  H   UNL     1      44.736   1.873  10.967  0.00  0.00    +0.000 HD
BRANCH  28  30
ATOM     30  C   UNL     1      44.590   3.072   9.336  0.00  0.00    +0.000 C 
BRANCH  30  31
ATOM     31  C   UNL     1      45.633   2.643   8.379  0.00  0.00    +0.000 A 
ATOM     32  C   UNL     1      46.344   3.314   7.408  0.00  0.00    +0.000 A 
ATOM     33  N   UNL     1      47.215   2.469   6.769  0.00  0.00    +0.000 NA
ATOM     34  C   UNL     1      47.047   1.299   7.340  0.00  0.00    +0.000 A 
ATOM     35  N   UNL     1      46.111   1.357   8.328  0.00  0.00    +0.000 N 
ATOM     36  H   UNL     1      45.780   0.596   8.907  0.00  0.00    +0.000 HD
ENDBRANCH  30  31
ENDBRANCH  28  30
ENDBRANCH  27  28
ENDBRANCH  24  27
ENDBRANCH  20  21
ENDBRANCH   1  20
TORSDOF 10
ENDMDL
MODEL 8
REMARK VINA RESULT:    -6.122      3.919      7.921
REMARK INTER + INTRA:         -10.844
REMARK INTER:                  -8.403
REMARK INTRA:                  -2.442
REMARK UNBOUND:                -1.323
REMARK  Name = 
REMARK  10 active torsions:
REMARK  status: ('A' for Active; 'I' for Inactive)
REMARK    1  A    between atoms: N_1  and  C_2
REMARK    2  A    between atoms: C_2  and  C_3
REMARK    3  A    between atoms: C_3  and  N_4
REMARK    4  A    between atoms: N_4  and  C_5
REMARK    5  A    between atoms: C_5  and  C_6
REMARK    6  A    between atoms: C_9  and  C_10
REMARK    7  A    between atoms: C_10  and  N_11
REMARK    8  A    between atoms: N_11  and  C_12
REMARK    9  A    between atoms: C_12  and  C_13
REMARK   10  A    between atoms: C_20  and  C_22
REMARK                            x       y       z     vdW  Elec       q    Type
REMARK                         _______ _______ _______ _____ _____    ______ ____
ROOT
ATOM      1  N   UNL     1      49.881   7.379  19.055  0.00  0.00    +0.000 N 
ATOM      2  C   UNL     1      49.676   6.055  19.508  0.00  0.00    +0.000 C 
ATOM      3  O   UNL     1      49.088   5.832  20.562  0.00  0.00    +0.000 OA
ENDROOT
BRANCH   2   4
ATOM      4  C   UNL     1      50.194   4.925  18.721  0.00  0.00    +0.000 A 
ATOM      5  C   UNL     1      51.464   4.380  18.834  0.00  0.00    +0.000 A 
ATOM      6  S   UNL     1      51.754   3.065  17.786  0.00  0.00    +0.000 S 
ATOM      7  C   UNL     1      50.131   3.049  17.284  0.00  0.00    +0.000 A 
ATOM      8  N   UNL     1      49.672   2.073  16.462  0.00  0.00    +0.000 NA
ATOM      9  C   UNL     1      48.405   2.133  16.218  0.00  0.00    +0.000 A 
ATOM     10  N   UNL     1      47.568   3.109  16.705  0.00  0.00    +0.000 N 
ATOM     11  C   UNL     1      48.014   4.193  17.437  0.00  0.00    +0.000 A 
ATOM     12  O   UNL     1      47.276   5.144  17.659  0.00  0.00    +0.000 OA
ATOM     13  C   UNL     1      49.412   4.100  17.822  0.00  0.00    +0.000 A 
ATOM     14  H   UNL     1      46.595   3.136  16.434  0.00  0.00    +0.000 HD
ENDBRANCH   2   4
BRANCH   1  15
ATOM     15  C   UNL     1      49.357   8.453  19.928  0.00  0.00    +0.000 C 
BRANCH  15  16
ATOM     16  C   UNL     1      47.930   8.921  19.559  0.00  0.00    +0.000 C 
BRANCH  16  17
ATOM     17  N   UNL     1      47.140   7.875  18.890  0.00  0.00    +0.000 NA
ATOM     18  H   UNL     1      47.773   7.268  18.371  0.00  0.00    +0.000 HD
ATOM     19  H   UNL     1      46.557   8.318  18.176  0.00  0.00    +0.000 HD
ENDBRANCH  16  17
ENDBRANCH  15  16
ENDBRANCH   1  15
BRANCH   1  20
ATOM     20  C   UNL     1      50.602   7.678  17.809  0.00  0.00    +0.000 C 
BRANCH  20  21
ATOM     21  C   UNL     1      49.850   7.923  16.531  0.00  0.00    +0.000 A 
ATOM     22  C   UNL     1      49.272   9.179  16.288  0.00  0.00    +0.000 A 
ATOM     23  C   UNL     1      48.527   9.406  15.132  0.00  0.00    +0.000 A 
ATOM     24  C   UNL     1      48.338   8.376  14.202  0.00  0.00    +0.000 A 
ATOM     25  C   UNL     1      49.005   7.159  14.391  0.00  0.00    +0.000 A 
ATOM     26  C   UNL     1      49.759   6.934  15.546  0.00  0.00    +0.000 A 
BRANCH  24  27
ATOM     27  C   UNL     1      47.347   8.539  13.074  0.00  0.00    +0.000 C 
BRANCH  27  28
ATOM     28  N   UNL     1      46.097   7.830  13.334  0.00  0.00    +0.000 NA
ATOM     29  H   UNL     1      45.358   8.527  13.430  0.00  0.00    +0.000 HD
BRANCH  28  30
ATOM     30  C   UNL     1      45.770   6.965  12.200  0.00  0.00    +0.000 C 
BRANCH  30  31
ATOM     31  C   UNL     1      45.852   5.550  12.624  0.00  0.00    +0.000 A 
ATOM     32  C   UNL     1      46.387   4.937  13.736  0.00  0.00    +0.000 A 
ATOM     33  N   UNL     1      46.214   3.578  13.675  0.00  0.00    +0.000 NA
ATOM     34  C   UNL     1      45.579   3.358  12.547  0.00  0.00    +0.000 A 
ATOM     35  N   UNL     1      45.326   4.521  11.883  0.00  0.00    +0.000 N 
ATOM     36  H   UNL     1      44.871   4.630  10.986  0.00  0.00    +0.000 HD
ENDBRANCH  30  31
ENDBRANCH  28  30
ENDBRANCH  27  28
ENDBRANCH  24  27
ENDBRANCH  20  21
ENDBRANCH   1  20
TORSDOF 10
ENDMDL
MODEL 9
REMARK VINA RESULT:    -6.050      3.882      8.277
REMARK INTER + INTRA:         -10.733
REMARK INTER:                  -8.887
REMARK INTRA:                  -1.846
REMARK UNBOUND:                -1.323
REMARK  Name = 
REMARK  10 active torsions:
REMARK  status: ('A' for Active; 'I' for Inactive)
REMARK    1  A    between atoms: N_1  and  C_2
REMARK    2  A    between atoms: C_2  and  C_3
REMARK    3  A    between atoms: C_3  and  N_4
REMARK    4  A    between atoms: N_4  and  C_5
REMARK    5  A    between atoms: C_5  and  C_6
REMARK    6  A    between atoms: C_9  and  C_10
REMARK    7  A    between atoms: C_10  and  N_11
REMARK    8  A    between atoms: N_11  and  C_12
REMARK    9  A    between atoms: C_12  and  C_13
REMARK   10  A    between atoms: C_20  and  C_22
REMARK                            x       y       z     vdW  Elec       q    Type
REMARK                         _______ _______ _______ _____ _____    ______ ____
ROOT
ATOM      1  N   UNL     1      50.333   9.046  13.321  0.00  0.00    +0.000 N 
ATOM      2  C   UNL     1      50.681   9.252  14.677  0.00  0.00    +0.000 C 
ATOM      3  O   UNL     1      50.908  10.379  15.107  0.00  0.00    +0.000 OA
ENDROOT
BRANCH   2   4
ATOM      4  C   UNL     1      50.797   8.099  15.584  0.00  0.00    +0.000 A 
ATOM      5  C   UNL     1      51.927   7.311  15.743  0.00  0.00    +0.000 A 
ATOM      6  S   UNL     1      51.746   6.055  16.884  0.00  0.00    +0.000 S 
ATOM      7  C   UNL     1      50.220   6.640  17.352  0.00  0.00    +0.000 A 
ATOM      8  N   UNL     1      49.555   6.079  18.392  0.00  0.00    +0.000 NA
ATOM      9  C   UNL     1      48.443   6.665  18.692  0.00  0.00    +0.000 A 
ATOM     10  N   UNL     1      47.930   7.745  18.014  0.00  0.00    +0.000 N 
ATOM     11  C   UNL     1      48.506   8.266  16.872  0.00  0.00    +0.000 A 
ATOM     12  O   UNL     1      47.903   9.078  16.181  0.00  0.00    +0.000 OA
ATOM     13  C   UNL     1      49.812   7.705  16.570  0.00  0.00    +0.000 A 
ATOM     14  H   UNL     1      47.027   8.126  18.261  0.00  0.00    +0.000 HD
ENDBRANCH   2   4
BRANCH   1  15
ATOM     15  C   UNL     1      50.274  10.259  12.475  0.00  0.00    +0.000 C 
BRANCH  15  16
ATOM     16  C   UNL     1      48.857  10.863  12.343  0.00  0.00    +0.000 C 
BRANCH  16  17
ATOM     17  N   UNL     1      48.051  10.705  13.564  0.00  0.00    +0.000 NA
ATOM     18  H   UNL     1      47.127  10.363  13.305  0.00  0.00    +0.000 HD
ATOM     19  H   UNL     1      47.885  11.631  13.964  0.00  0.00    +0.000 HD
ENDBRANCH  16  17
ENDBRANCH  15  16
ENDBRANCH   1  15
BRANCH   1  20
ATOM     20  C   UNL     1      50.079   7.707  12.772  0.00  0.00    +0.000 C 
BRANCH  20  21
ATOM     21  C   UNL     1      48.693   7.124  12.788  0.00  0.00    +0.000 A 
ATOM     22  C   UNL     1      47.787   7.444  11.765  0.00  0.00    +0.000 A 
ATOM     23  C   UNL     1      46.482   6.954  11.794  0.00  0.00    +0.000 A 
ATOM     24  C   UNL     1      46.057   6.143  12.853  0.00  0.00    +0.000 A 
ATOM     25  C   UNL     1      46.992   5.737  13.814  0.00  0.00    +0.000 A 
ATOM     26  C   UNL     1      48.301   6.220  13.781  0.00  0.00    +0.000 A 
BRANCH  24  27
ATOM     27  C   UNL     1      44.595   5.805  13.015  0.00  0.00    +0.000 C 
BRANCH  27  28
ATOM     28  N   UNL     1      43.757   6.499  12.041  0.00  0.00    +0.000 NA
ATOM     29  H   UNL     1      44.362   6.828  11.288  0.00  0.00    +0.000 HD
BRANCH  28  30
ATOM     30  C   UNL     1      42.779   5.570  11.474  0.00  0.00    +0.000 C 
BRANCH  30  31
ATOM     31  C   UNL     1      43.486   4.535  10.689  0.00  0.00    +0.000 A 
ATOM     32  C   UNL     1      43.724   3.196  10.908  0.00  0.00    +0.000 A 
ATOM     33  N   UNL     1      44.439   2.651   9.871  0.00  0.00    +0.000 NA
ATOM     34  C   UNL     1      44.633   3.636   9.026  0.00  0.00    +0.000 A 
ATOM     35  N   UNL     1      44.064   4.792   9.470  0.00  0.00    +0.000 N 
ATOM     36  H   UNL     1      44.084   5.699   9.021  0.00  0.00    +0.000 HD
ENDBRANCH  30  31
ENDBRANCH  28  30
ENDBRANCH  27  28
ENDBRANCH  24  27
ENDBRANCH  20  21
ENDBRANCH   1  20
TORSDOF 10
ENDMDL
