MODEL 1
REMARK VINA RESULT:    -8.875      0.000      0.000
REMARK INTER + INTRA:         -13.991
REMARK INTER:                 -12.507
REMARK INTRA:                  -1.484
REMARK UNBOUND:                -1.484
REMARK  Name = 
REMARK  8 active torsions:
REMARK  status: ('A' for Active; 'I' for Inactive)
REMARK    1  A    between atoms: C_1  and  O_2
REMARK    2  A    between atoms: O_2  and  C_3
REMARK    3  A    between atoms: C_10  and  C_11
REMARK    4  A    between atoms: N_13  and  C_14
REMARK    5  A    between atoms: C_14  and  C_15
REMARK    6  A    between atoms: C_18  and  N_19
REMARK    7  A    between atoms: N_19  and  C_20
REMARK    8  A    between atoms: C_20  and  C_21
REMARK                            x       y       z     vdW  Elec       q    Type
REMARK                         _______ _______ _______ _____ _____    ______ ____
ROOT
ATOM      1  C   UNL     1      46.776   7.968  13.194  0.00  0.00    +0.000 C 
ENDROOT
BRANCH   1   2
ATOM      2  C   UNL     1      46.067   7.017  12.264  0.00  0.00    +0.000 A 
ATOM      3  C   UNL     1      44.815   6.483  12.593  0.00  0.00    +0.000 A 
ATOM      4  C   UNL     1      44.147   5.629  11.704  0.00  0.00    +0.000 A 
ATOM      5  C   UNL     1      44.707   5.300  10.467  0.00  0.00    +0.000 A 
ATOM      6  C   UNL     1      45.999   5.761  10.189  0.00  0.00    +0.000 A 
ATOM      7  C   UNL     1      46.668   6.619  11.066  0.00  0.00    +0.000 A 
BRANCH   5   8
ATOM      8  N   UNL     1      44.093   4.476   9.519  0.00  0.00    +0.000 N 
ATOM      9  H   UNL     1      44.186   4.866   8.583  0.00  0.00    +0.000 HD
BRANCH   8  10
ATOM     10  C   UNL     1      44.399   3.049   9.541  0.00  0.00    +0.000 C 
BRANCH  10  11
ATOM     11  C   UNL     1      45.353   2.674   8.422  0.00  0.00    +0.000 A 
ATOM     12  C   UNL     1      45.681   3.628   7.442  0.00  0.00    +0.000 A 
ATOM     13  C   UNL     1      46.631   3.340   6.458  0.00  0.00    +0.000 A 
ATOM     14  C   UNL     1      47.261   2.103   6.452  0.00  0.00    +0.000 A 
ATOM     15  F   UNL     1      48.181   1.835   5.516  0.00  0.00    +0.000 F 
ATOM     16  C   UNL     1      46.960   1.145   7.411  0.00  0.00    +0.000 A 
ATOM     17  C   UNL     1      46.014   1.433   8.398  0.00  0.00    +0.000 A 
ENDBRANCH  10  11
ENDBRANCH   8  10
ENDBRANCH   5   8
ENDBRANCH   1   2
BRANCH   1  20
ATOM     18  C   UNL     1      48.561   6.920  14.512  0.00  0.00    +0.000 C 
ATOM     19  O   UNL     1      49.389   7.154  13.633  0.00  0.00    +0.000 OA
ATOM     20  N   UNL     1      47.253   7.289  14.369  0.00  0.00    +0.000 N 
ATOM     21  H   UNL     1      46.572   7.032  15.069  0.00  0.00    +0.000 HD
BRANCH  18  29
ATOM     22  C   UNL     1      47.275   4.216  16.213  0.00  0.00    +0.000 A 
ATOM     23  N   UNL     1      46.986   3.211  17.064  0.00  0.00    +0.000 NA
ATOM     24  C   UNL     1      47.754   3.066  18.147  0.00  0.00    +0.000 A 
ATOM     25  N   UNL     1      48.796   3.815  18.495  0.00  0.00    +0.000 NA
ATOM     26  C   UNL     1      49.055   4.798  17.617  0.00  0.00    +0.000 A 
ATOM     27  S   UNL     1      50.351   5.855  17.903  0.00  0.00    +0.000 S 
ATOM     28  C   UNL     1      50.026   6.720  16.478  0.00  0.00    +0.000 A 
ATOM     29  C   UNL     1      48.940   6.233  15.758  0.00  0.00    +0.000 A 
ATOM     30  C   UNL     1      48.360   5.079  16.444  0.00  0.00    +0.000 A 
BRANCH  22  32
ATOM     31  C   UNL     1      47.022   3.616  13.966  0.00  0.00    +0.000 C 
ATOM     32  O   UNL     1      46.501   4.343  15.077  0.00  0.00    +0.000 OA
ENDBRANCH  22  32
ENDBRANCH  18  29
ENDBRANCH   1  20
TORSDOF 7
ENDMDL
MODEL 2
REMARK VINA RESULT:    -7.942      2.044      2.856
REMARK INTER + INTRA:         -12.676
REMARK INTER:                 -11.718
REMARK INTRA:                  -0.958
REMARK UNBOUND:                -1.484
REMARK  Name = 
REMARK  8 active torsions:
REMARK  status: ('A' for Active; 'I' for Inactive)
REMARK    1  A    between atoms: C_1  and  O_2
REMARK    2  A    between atoms: O_2  and  C_3
REMARK    3  A    between atoms: C_10  and  C_11
REMARK    4  A    between atoms: N_13  and  C_14
REMARK    5  A    between atoms: C_14  and  C_15
REMARK    6  A    between atoms: C_18  and  N_19
REMARK    7  A    between atoms: N_19  and  C_20
REMARK    8  A    between atoms: C_20  and  C_21
REMARK                            x       y       z     vdW  Elec       q    Type
REMARK                         _______ _______ _______ _____ _____    ______ ____
ROOT
ATOM      1  C   UNL     1      47.567   6.856  13.568  0.00  0.00    +0.000 C 
ENDROOT
BRANCH   1   2
ATOM      2  C   UNL     1      46.654   6.110  12.628  0.00  0.00    +0.000 A 
ATOM      3  C   UNL     1      46.307   6.646  11.382  0.00  0.00    +0.000 A 
ATOM      4  C   UNL     1      45.487   5.928  10.499  0.00  0.00    +0.000 A 
ATOM      5  C   UNL     1      45.008   4.659  10.835  0.00  0.00    +0.000 A 
ATOM      6  C   UNL     1      45.280   4.175  12.119  0.00  0.00    +0.000 A 
ATOM      7  C   UNL     1      46.103   4.881  13.002  0.00  0.00    +0.000 A 
BRANCH   5   8
ATOM      8  N   UNL     1      44.207   3.873  10.001  0.00  0.00    +0.000 N 
ATOM      9  H   UNL     1      43.965   4.377   9.150  0.00  0.00    +0.000 HD
BRANCH   8  10
ATOM     10  C   UNL     1      44.634   2.507   9.717  0.00  0.00    +0.000 C 
BRANCH  10  11
ATOM     11  C   UNL     1      45.594   2.465   8.542  0.00  0.00    +0.000 A 
ATOM     12  C   UNL     1      46.279   1.272   8.249  0.00  0.00    +0.000 A 
ATOM     13  C   UNL     1      47.092   1.178   7.116  0.00  0.00    +0.000 A 
ATOM     14  C   UNL     1      47.220   2.271   6.268  0.00  0.00    +0.000 A 
ATOM     15  F   UNL     1      47.989   2.173   5.176  0.00  0.00    +0.000 F 
ATOM     16  C   UNL     1      46.550   3.458   6.531  0.00  0.00    +0.000 A 
ATOM     17  C   UNL     1      45.733   3.552   7.660  0.00  0.00    +0.000 A 
ENDBRANCH  10  11
ENDBRANCH   8  10
ENDBRANCH   5   8
ENDBRANCH   1   2
BRANCH   1  20
ATOM     18  C   UNL     1      48.690   6.176  15.641  0.00  0.00    +0.000 C 
ATOM     19  O   UNL     1      49.770   6.596  15.230  0.00  0.00    +0.000 OA
ATOM     20  N   UNL     1      47.559   6.266  14.880  0.00  0.00    +0.000 N 
ATOM     21  H   UNL     1      46.694   5.856  15.203  0.00  0.00    +0.000 HD
BRANCH  18  29
ATOM     22  C   UNL     1      48.122   7.429  18.798  0.00  0.00    +0.000 A 
ATOM     23  N   UNL     1      47.916   7.643  20.113  0.00  0.00    +0.000 NA
ATOM     24  C   UNL     1      47.923   6.585  20.928  0.00  0.00    +0.000 A 
ATOM     25  N   UNL     1      48.113   5.314  20.589  0.00  0.00    +0.000 NA
ATOM     26  C   UNL     1      48.305   5.144  19.270  0.00  0.00    +0.000 A 
ATOM     27  S   UNL     1      48.567   3.584  18.658  0.00  0.00    +0.000 S 
ATOM     28  C   UNL     1      48.713   4.176  17.073  0.00  0.00    +0.000 A 
ATOM     29  C   UNL     1      48.566   5.555  16.970  0.00  0.00    +0.000 A 
ATOM     30  C   UNL     1      48.321   6.133  18.291  0.00  0.00    +0.000 A 
BRANCH  22  32
ATOM     31  C   UNL     1      47.568   9.692  18.581  0.00  0.00    +0.000 C 
ATOM     32  O   UNL     1      48.081   8.519  17.952  0.00  0.00    +0.000 OA
ENDBRANCH  22  32
ENDBRANCH  18  29
ENDBRANCH   1  20
TORSDOF 7
ENDMDL
MODEL 3
REMARK VINA RESULT:    -7.887      1.664      2.133
REMARK INTER + INTRA:         -12.599
REMARK INTER:                 -11.406
REMARK INTRA:                  -1.193
REMARK UNBOUND:                -1.484
REMARK  Name = 
REMARK  8 active torsions:
REMARK  status: ('A' for Active; 'I' for Inactive)
REMARK    1  A    between atoms: C_1  and  O_2
REMARK    2  A    between atoms: O_2  and  C_3
REMARK    3  A    between atoms: C_10  and  C_11
REMARK    4  A    between atoms: N_13  and  C_14
REMARK    5  A    between atoms: C_14  and  C_15
REMARK    6  A    between atoms: C_18  and  N_19
REMARK    7  A    between atoms: N_19  and  C_20
REMARK    8  A    between atoms: C_20  and  C_21
REMARK                            x       y       z     vdW  Elec       q    Type
REMARK                         _______ _______ _______ _____ _____    ______ ____
ROOT
ATOM      1  C   UNL     1      48.099   7.565  13.526  0.00  0.00    +0.000 C 
ENDROOT
BRANCH   1   2
ATOM      2  C   UNL     1      47.128   6.599  12.896  0.00  0.00    +0.000 A 
ATOM      3  C   UNL     1      46.892   5.340  13.463  0.00  0.00    +0.000 A 
ATOM      4  C   UNL     1      45.959   4.463  12.891  0.00  0.00    +0.000 A 
ATOM      5  C   UNL     1      45.237   4.826  11.751  0.00  0.00    +0.000 A 
ATOM      6  C   UNL     1      45.551   6.044  11.138  0.00  0.00    +0.000 A 
ATOM      7  C   UNL     1      46.473   6.928  11.706  0.00  0.00    +0.000 A 
BRANCH   5   8
ATOM      8  N   UNL     1      44.276   4.018  11.137  0.00  0.00    +0.000 N 
ATOM      9  H   UNL     1      43.404   4.027  11.662  0.00  0.00    +0.000 HD
BRANCH   8  10
ATOM     10  C   UNL     1      44.046   4.182   9.705  0.00  0.00    +0.000 C 
BRANCH  10  11
ATOM     11  C   UNL     1      45.107   3.464   8.892  0.00  0.00    +0.000 A 
ATOM     12  C   UNL     1      45.246   2.069   9.012  0.00  0.00    +0.000 A 
ATOM     13  C   UNL     1      46.148   1.372   8.203  0.00  0.00    +0.000 A 
ATOM     14  C   UNL     1      46.909   2.061   7.268  0.00  0.00    +0.000 A 
ATOM     15  F   UNL     1      47.762   1.388   6.486  0.00  0.00    +0.000 F 
ATOM     16  C   UNL     1      46.787   3.437   7.126  0.00  0.00    +0.000 A 
ATOM     17  C   UNL     1      45.882   4.135   7.930  0.00  0.00    +0.000 A 
ENDBRANCH  10  11
ENDBRANCH   8  10
ENDBRANCH   5   8
ENDBRANCH   1   2
BRANCH   1  20
ATOM     18  C   UNL     1      49.061   7.080  15.731  0.00  0.00    +0.000 C 
ATOM     19  O   UNL     1      50.113   6.700  15.223  0.00  0.00    +0.000 OA
ATOM     20  N   UNL     1      48.020   7.520  14.962  0.00  0.00    +0.000 N 
ATOM     21  H   UNL     1      47.139   7.766  15.390  0.00  0.00    +0.000 HD
BRANCH  18  29
ATOM     22  C   UNL     1      48.877   4.584  18.097  0.00  0.00    +0.000 A 
ATOM     23  N   UNL     1      48.770   3.827  19.208  0.00  0.00    +0.000 NA
ATOM     24  C   UNL     1      48.574   4.448  20.374  0.00  0.00    +0.000 A 
ATOM     25  N   UNL     1      48.468   5.758  20.575  0.00  0.00    +0.000 NA
ATOM     26  C   UNL     1      48.590   6.475  19.446  0.00  0.00    +0.000 A 
ATOM     27  S   UNL     1      48.479   8.167  19.515  0.00  0.00    +0.000 S 
ATOM     28  C   UNL     1      48.707   8.301  17.837  0.00  0.00    +0.000 A 
ATOM     29  C   UNL     1      48.872   7.080  17.192  0.00  0.00    +0.000 A 
ATOM     30  C   UNL     1      48.802   5.986  18.160  0.00  0.00    +0.000 A 
BRANCH  22  32
ATOM     31  C   UNL     1      47.965   3.260  16.398  0.00  0.00    +0.000 C 
ATOM     32  O   UNL     1      49.113   3.943  16.898  0.00  0.00    +0.000 OA
ENDBRANCH  22  32
ENDBRANCH  18  29
ENDBRANCH   1  20
TORSDOF 7
ENDMDL
MODEL 4
REMARK VINA RESULT:    -7.729      1.570      2.254
REMARK INTER + INTRA:         -12.376
REMARK INTER:                 -11.142
REMARK INTRA:                  -1.235
REMARK UNBOUND:                -1.484
REMARK  Name = 
REMARK  8 active torsions:
REMARK  status: ('A' for Active; 'I' for Inactive)
REMARK    1  A    between atoms: C_1  and  O_2
REMARK    2  A    between atoms: O_2  and  C_3
REMARK    3  A    between atoms: C_10  and  C_11
REMARK    4  A    between atoms: N_13  and  C_14
REMARK    5  A    between atoms: C_14  and  C_15
REMARK    6  A    between atoms: C_18  and  N_19
REMARK    7  A    between atoms: N_19  and  C_20
REMARK    8  A    between atoms: C_20  and  C_21
REMARK                            x       y       z     vdW  Elec       q    Type
REMARK                         _______ _______ _______ _____ _____    ______ ____
ROOT
ATOM      1  C   UNL     1      47.126   7.093  13.520  0.00  0.00    +0.000 C 
ENDROOT
BRANCH   1   2
ATOM      2  C   UNL     1      46.500   5.911  12.826  0.00  0.00    +0.000 A 
ATOM      3  C   UNL     1      46.638   4.615  13.340  0.00  0.00    +0.000 A 
ATOM      4  C   UNL     1      46.019   3.527  12.708  0.00  0.00    +0.000 A 
ATOM      5  C   UNL     1      45.244   3.709  11.560  0.00  0.00    +0.000 A 
ATOM      6  C   UNL     1      45.193   4.991  11.000  0.00  0.00    +0.000 A 
ATOM      7  C   UNL     1      45.799   6.082  11.629  0.00  0.00    +0.000 A 
BRANCH   5   8
ATOM      8  N   UNL     1      44.578   2.679  10.887  0.00  0.00    +0.000 N 
ATOM      9  H   UNL     1      43.811   2.315  11.448  0.00  0.00    +0.000 HD
BRANCH   8  10
ATOM     10  C   UNL     1      44.175   2.905   9.503  0.00  0.00    +0.000 C 
BRANCH  10  11
ATOM     11  C   UNL     1      45.330   2.665   8.548  0.00  0.00    +0.000 A 
ATOM     12  C   UNL     1      45.894   1.380   8.450  0.00  0.00    +0.000 A 
ATOM     13  C   UNL     1      46.892   1.111   7.510  0.00  0.00    +0.000 A 
ATOM     14  C   UNL     1      47.326   2.119   6.659  0.00  0.00    +0.000 A 
ATOM     15  F   UNL     1      48.273   1.853   5.749  0.00  0.00    +0.000 F 
ATOM     16  C   UNL     1      46.782   3.394   6.730  0.00  0.00    +0.000 A 
ATOM     17  C   UNL     1      45.781   3.665   7.667  0.00  0.00    +0.000 A 
ENDBRANCH  10  11
ENDBRANCH   8  10
ENDBRANCH   5   8
ENDBRANCH   1   2
BRANCH   1  20
ATOM     18  C   UNL     1      49.039   7.603  14.971  0.00  0.00    +0.000 C 
ATOM     19  O   UNL     1      48.722   8.789  15.024  0.00  0.00    +0.000 OA
ATOM     20  N   UNL     1      48.304   6.704  14.250  0.00  0.00    +0.000 N 
ATOM     21  H   UNL     1      48.614   5.747  14.161  0.00  0.00    +0.000 HD
BRANCH  18  29
ATOM     22  C   UNL     1      49.542   5.029  17.204  0.00  0.00    +0.000 A 
ATOM     23  N   UNL     1      50.014   4.112  18.072  0.00  0.00    +0.000 NA
ATOM     24  C   UNL     1      51.312   4.151  18.382  0.00  0.00    +0.000 A 
ATOM     25  N   UNL     1      52.219   5.009  17.925  0.00  0.00    +0.000 NA
ATOM     26  C   UNL     1      51.710   5.899  17.056  0.00  0.00    +0.000 A 
ATOM     27  S   UNL     1      52.726   7.073  16.371  0.00  0.00    +0.000 S 
ATOM     28  C   UNL     1      51.441   7.740  15.484  0.00  0.00    +0.000 A 
ATOM     29  C   UNL     1      50.224   7.094  15.681  0.00  0.00    +0.000 A 
ATOM     30  C   UNL     1      50.390   5.990  16.625  0.00  0.00    +0.000 A 
BRANCH  22  32
ATOM     31  C   UNL     1      47.703   3.633  16.828  0.00  0.00    +0.000 C 
ATOM     32  O   UNL     1      48.207   4.967  16.859  0.00  0.00    +0.000 OA
ENDBRANCH  22  32
ENDBRANCH  18  29
ENDBRANCH   1  20
TORSDOF 7
ENDMDL
MODEL 5
REMARK VINA RESULT:    -7.570      2.107      3.568
REMARK INTER + INTRA:         -12.151
REMARK INTER:                 -10.893
REMARK INTRA:                  -1.258
REMARK UNBOUND:                -1.484
REMARK  Name = 
REMARK  8 active torsions:
REMARK  status: ('A' for Active; 'I' for Inactive)
REMARK    1  A    between atoms: C_1  and  O_2
REMARK    2  A    between atoms: O_2  and  C_3
REMARK    3  A    between atoms: C_10  and  C_11
REMARK    4  A    between atoms: N_13  and  C_14
REMARK    5  A    between atoms: C_14  and  C_15
REMARK    6  A    between atoms: C_18  and  N_19
REMARK    7  A    between atoms: N_19  and  C_20
REMARK    8  A    between atoms: C_20  and  C_21
REMARK                            x       y       z     vdW  Elec       q    Type
REMARK                         _______ _______ _______ _____ _____    ______ ____
ROOT
ATOM      1  C   UNL     1      47.359   4.004  15.059  0.00  0.00    +0.000 C 
ENDROOT
BRANCH   1   2
ATOM      2  C   UNL     1      46.640   4.350  13.780  0.00  0.00    +0.000 A 
ATOM      3  C   UNL     1      46.723   5.635  13.230  0.00  0.00    +0.000 A 
ATOM      4  C   UNL     1      46.082   5.937  12.020  0.00  0.00    +0.000 A 
ATOM      5  C   UNL     1      45.355   4.963  11.330  0.00  0.00    +0.000 A 
ATOM      6  C   UNL     1      45.197   3.712  11.937  0.00  0.00    +0.000 A 
ATOM      7  C   UNL     1      45.840   3.400  13.138  0.00  0.00    +0.000 A 
BRANCH   5   8
ATOM      8  N   UNL     1      44.708   5.180  10.110  0.00  0.00    +0.000 N 
ATOM      9  H   UNL     1      45.262   5.786   9.508  0.00  0.00    +0.000 HD
BRANCH   8  10
ATOM     10  C   UNL     1      44.193   4.023   9.384  0.00  0.00    +0.000 C 
BRANCH  10  11
ATOM     11  C   UNL     1      45.293   3.331   8.601  0.00  0.00    +0.000 A 
ATOM     12  C   UNL     1      45.479   1.944   8.743  0.00  0.00    +0.000 A 
ATOM     13  C   UNL     1      46.419   1.268   7.961  0.00  0.00    +0.000 A 
ATOM     14  C   UNL     1      47.172   1.971   7.030  0.00  0.00    +0.000 A 
ATOM     15  F   UNL     1      48.063   1.317   6.272  0.00  0.00    +0.000 F 
ATOM     16  C   UNL     1      47.005   3.339   6.865  0.00  0.00    +0.000 A 
ATOM     17  C   UNL     1      46.062   4.016   7.643  0.00  0.00    +0.000 A 
ENDBRANCH  10  11
ENDBRANCH   8  10
ENDBRANCH   5   8
ENDBRANCH   1   2
BRANCH   1  20
ATOM     18  C   UNL     1      48.552   5.269  16.791  0.00  0.00    +0.000 C 
ATOM     19  O   UNL     1      49.374   4.365  16.928  0.00  0.00    +0.000 OA
ATOM     20  N   UNL     1      47.528   5.165  15.892  0.00  0.00    +0.000 N 
ATOM     21  H   UNL     1      46.822   5.886  15.838  0.00  0.00    +0.000 HD
BRANCH  18  29
ATOM     22  C   UNL     1      48.678   8.613  15.979  0.00  0.00    +0.000 A 
ATOM     23  N   UNL     1      48.738   9.960  15.948  0.00  0.00    +0.000 NA
ATOM     24  C   UNL     1      48.817  10.612  17.111  0.00  0.00    +0.000 A 
ATOM     25  N   UNL     1      48.844  10.077  18.328  0.00  0.00    +0.000 NA
ATOM     26  C   UNL     1      48.773   8.735  18.315  0.00  0.00    +0.000 A 
ATOM     27  S   UNL     1      48.797   7.883  19.782  0.00  0.00    +0.000 S 
ATOM     28  C   UNL     1      48.689   6.392  18.975  0.00  0.00    +0.000 A 
ATOM     29  C   UNL     1      48.631   6.503  17.590  0.00  0.00    +0.000 A 
ATOM     30  C   UNL     1      48.681   7.911  17.197  0.00  0.00    +0.000 A 
BRANCH  22  32
ATOM     31  C   UNL     1      49.816   7.767  14.119  0.00  0.00    +0.000 C 
ATOM     32  O   UNL     1      48.564   7.943  14.778  0.00  0.00    +0.000 OA
ENDBRANCH  22  32
ENDBRANCH  18  29
ENDBRANCH   1  20
TORSDOF 7
ENDMDL
MODEL 6
REMARK VINA RESULT:    -6.838      1.729      2.875
REMARK INTER + INTRA:         -11.120
REMARK INTER:                 -10.241
REMARK INTRA:                  -0.880
REMARK UNBOUND:                -1.484
REMARK  Name = 
REMARK  8 active torsions:
REMARK  status: ('A' for Active; 'I' for Inactive)
REMARK    1  A    between atoms: C_1  and  O_2
REMARK    2  A    between atoms: O_2  and  C_3
REMARK    3  A    between atoms: C_10  and  C_11
REMARK    4  A    between atoms: N_13  and  C_14
REMARK    5  A    between atoms: C_14  and  C_15
REMARK    6  A    between atoms: C_18  and  N_19
REMARK    7  A    between atoms: N_19  and  C_20
REMARK    8  A    between atoms: C_20  and  C_21
REMARK                            x       y       z     vdW  Elec       q    Type
REMARK                         _______ _______ _______ _____ _____    ______ ____
ROOT
ATOM      1  C   UNL     1      47.469   8.411  13.688  0.00  0.00    +0.000 C 
ENDROOT
BRANCH   1   2
ATOM      2  C   UNL     1      46.627   7.633  12.710  0.00  0.00    +0.000 A 
ATOM      3  C   UNL     1      47.202   6.680  11.860  0.00  0.00    +0.000 A 
ATOM      4  C   UNL     1      46.406   5.934  10.980  0.00  0.00    +0.000 A 
ATOM      5  C   UNL     1      45.021   6.115  10.937  0.00  0.00    +0.000 A 
ATOM      6  C   UNL     1      44.469   7.136  11.718  0.00  0.00    +0.000 A 
ATOM      7  C   UNL     1      45.255   7.878  12.605  0.00  0.00    +0.000 A 
BRANCH   5   8
ATOM      8  N   UNL     1      44.158   5.395  10.104  0.00  0.00    +0.000 N 
ATOM      9  H   UNL     1      44.245   5.703   9.138  0.00  0.00    +0.000 HD
BRANCH   8  10
ATOM     10  C   UNL     1      44.150   3.940  10.208  0.00  0.00    +0.000 C 
BRANCH  10  11
ATOM     11  C   UNL     1      44.985   3.306   9.111  0.00  0.00    +0.000 A 
ATOM     12  C   UNL     1      45.553   4.120   8.114  0.00  0.00    +0.000 A 
ATOM     13  C   UNL     1      46.406   3.575   7.150  0.00  0.00    +0.000 A 
ATOM     14  C   UNL     1      46.700   2.218   7.181  0.00  0.00    +0.000 A 
ATOM     15  F   UNL     1      47.529   1.702   6.264  0.00  0.00    +0.000 F 
ATOM     16  C   UNL     1      46.158   1.393   8.157  0.00  0.00    +0.000 A 
ATOM     17  C   UNL     1      45.310   1.937   9.125  0.00  0.00    +0.000 A 
ENDBRANCH  10  11
ENDBRANCH   8  10
ENDBRANCH   5   8
ENDBRANCH   1   2
BRANCH   1  20
ATOM     18  C   UNL     1      48.884   6.949  15.062  0.00  0.00    +0.000 C 
ATOM     19  O   UNL     1      49.765   6.945  14.204  0.00  0.00    +0.000 OA
ATOM     20  N   UNL     1      47.722   7.647  14.881  0.00  0.00    +0.000 N 
ATOM     21  H   UNL     1      46.980   7.587  15.564  0.00  0.00    +0.000 HD
BRANCH  18  29
ATOM     22  C   UNL     1      51.188   7.067  17.619  0.00  0.00    +0.000 A 
ATOM     23  N   UNL     1      51.928   6.902  18.733  0.00  0.00    +0.000 NA
ATOM     24  C   UNL     1      51.548   5.965  19.606  0.00  0.00    +0.000 A 
ATOM     25  N   UNL     1      50.499   5.155  19.504  0.00  0.00    +0.000 NA
ATOM     26  C   UNL     1      49.783   5.359  18.385  0.00  0.00    +0.000 A 
ATOM     27  S   UNL     1      48.408   4.411  18.089  0.00  0.00    +0.000 S 
ATOM     28  C   UNL     1      48.112   5.209  16.620  0.00  0.00    +0.000 A 
ATOM     29  C   UNL     1      49.038   6.204  16.322  0.00  0.00    +0.000 A 
ATOM     30  C   UNL     1      50.039   6.291  17.384  0.00  0.00    +0.000 A 
BRANCH  22  32
ATOM     31  C   UNL     1      52.664   7.678  15.910  0.00  0.00    +0.000 C 
ATOM     32  O   UNL     1      51.563   8.057  16.734  0.00  0.00    +0.000 OA
ENDBRANCH  22  32
ENDBRANCH  18  29
ENDBRANCH   1  20
TORSDOF 7
ENDMDL
MODEL 7
REMARK VINA RESULT:    -6.764      4.651      8.951
REMARK INTER + INTRA:         -11.016
REMARK INTER:                 -10.055
REMARK INTRA:                  -0.961
REMARK UNBOUND:                -1.484
REMARK  Name = 
REMARK  8 active torsions:
REMARK  status: ('A' for Active; 'I' for Inactive)
REMARK    1  A    between atoms: C_1  and  O_2
REMARK    2  A    between atoms: O_2  and  C_3
REMARK    3  A    between atoms: C_10  and  C_11
REMARK    4  A    between atoms: N_13  and  C_14
REMARK    5  A    between atoms: C_14  and  C_15
REMARK    6  A    between atoms: C_18  and  N_19
REMARK    7  A    between atoms: N_19  and  C_20
REMARK    8  A    between atoms: C_20  and  C_21
REMARK                            x       y       z     vdW  Elec       q    Type
REMARK                         _______ _______ _______ _____ _____    ______ ____
ROOT
ATOM      1  C   UNL     1      47.377   3.457  16.809  0.00  0.00    +0.000 C 
ENDROOT
BRANCH   1   2
ATOM      2  C   UNL     1      48.852   3.536  17.110  0.00  0.00    +0.000 A 
ATOM      3  C   UNL     1      49.474   4.766  17.358  0.00  0.00    +0.000 A 
ATOM      4  C   UNL     1      50.839   4.825  17.675  0.00  0.00    +0.000 A 
ATOM      5  C   UNL     1      51.607   3.661  17.761  0.00  0.00    +0.000 A 
ATOM      6  C   UNL     1      50.999   2.448  17.417  0.00  0.00    +0.000 A 
ATOM      7  C   UNL     1      49.638   2.379  17.109  0.00  0.00    +0.000 A 
BRANCH   5   8
ATOM      8  N   UNL     1      52.965   3.636  18.093  0.00  0.00    +0.000 N 
ATOM      9  H   UNL     1      53.258   4.528  18.488  0.00  0.00    +0.000 HD
BRANCH   8  10
ATOM     10  C   UNL     1      53.467   2.509  18.872  0.00  0.00    +0.000 C 
BRANCH  10  11
ATOM     11  C   UNL     1      54.137   1.480  17.980  0.00  0.00    +0.000 A 
ATOM     12  C   UNL     1      53.796   0.121  18.112  0.00  0.00    +0.000 A 
ATOM     13  C   UNL     1      54.324  -0.833  17.239  0.00  0.00    +0.000 A 
ATOM     14  C   UNL     1      55.188  -0.436  16.227  0.00  0.00    +0.000 A 
ATOM     15  F   UNL     1      55.682  -1.352  15.383  0.00  0.00    +0.000 F 
ATOM     16  C   UNL     1      55.537   0.899  16.071  0.00  0.00    +0.000 A 
ATOM     17  C   UNL     1      55.005   1.855  16.940  0.00  0.00    +0.000 A 
ENDBRANCH  10  11
ENDBRANCH   8  10
ENDBRANCH   5   8
ENDBRANCH   1   2
BRANCH   1  20
ATOM     18  C   UNL     1      46.968   4.288  14.536  0.00  0.00    +0.000 C 
ATOM     19  O   UNL     1      47.306   3.211  14.049  0.00  0.00    +0.000 OA
ATOM     20  N   UNL     1      46.978   4.488  15.888  0.00  0.00    +0.000 N 
ATOM     21  H   UNL     1      46.762   5.398  16.270  0.00  0.00    +0.000 HD
BRANCH  18  29
ATOM     22  C   UNL     1      44.142   4.900  12.665  0.00  0.00    +0.000 A 
ATOM     23  N   UNL     1      43.170   5.388  11.869  0.00  0.00    +0.000 NA
ATOM     24  C   UNL     1      43.363   6.582  11.302  0.00  0.00    +0.000 A 
ATOM     25  N   UNL     1      44.428   7.366  11.432  0.00  0.00    +0.000 NA
ATOM     26  C   UNL     1      45.368   6.848  12.240  0.00  0.00    +0.000 A 
ATOM     27  S   UNL     1      46.800   7.715  12.520  0.00  0.00    +0.000 S 
ATOM     28  C   UNL     1      47.400   6.493  13.536  0.00  0.00    +0.000 A 
ATOM     29  C   UNL     1      46.539   5.412  13.687  0.00  0.00    +0.000 A 
ATOM     30  C   UNL     1      45.320   5.628  12.908  0.00  0.00    +0.000 A 
BRANCH  22  32
ATOM     31  C   UNL     1      43.619   2.642  12.350  0.00  0.00    +0.000 C 
ATOM     32  O   UNL     1      43.927   3.682  13.277  0.00  0.00    +0.000 OA
ENDBRANCH  22  32
ENDBRANCH  18  29
ENDBRANCH   1  20
TORSDOF 7
ENDMDL
MODEL 8
REMARK VINA RESULT:    -6.709      1.691      2.431
REMARK INTER + INTRA:         -10.939
REMARK INTER:                  -9.557
REMARK INTRA:                  -1.382
REMARK UNBOUND:                -1.484
REMARK  Name = 
REMARK  8 active torsions:
REMARK  status: ('A' for Active; 'I' for Inactive)
REMARK    1  A    between atoms: C_1  and  O_2
REMARK    2  A    between atoms: O_2  and  C_3
REMARK    3  A    between atoms: C_10  and  C_11
REMARK    4  A    between atoms: N_13  and  C_14
REMARK    5  A    between atoms: C_14  and  C_15
REMARK    6  A    between atoms: C_18  and  N_19
REMARK    7  A    between atoms: N_19  and  C_20
REMARK    8  A    between atoms: C_20  and  C_21
REMARK                            x       y       z     vdW  Elec       q    Type
REMARK                         _______ _______ _______ _____ _____    ______ ____
ROOT
ATOM      1  C   UNL     1      48.484   8.608  14.444  0.00  0.00    +0.000 C 
ENDROOT
BRANCH   1   2
ATOM      2  C   UNL     1      47.491   8.131  13.415  0.00  0.00    +0.000 A 
ATOM      3  C   UNL     1      47.812   7.095  12.528  0.00  0.00    +0.000 A 
ATOM      4  C   UNL     1      46.868   6.633  11.599  0.00  0.00    +0.000 A 
ATOM      5  C   UNL     1      45.586   7.185  11.543  0.00  0.00    +0.000 A 
ATOM      6  C   UNL     1      45.309   8.283  12.366  0.00  0.00    +0.000 A 
ATOM      7  C   UNL     1      46.240   8.744  13.300  0.00  0.00    +0.000 A 
BRANCH   5   8
ATOM      8  N   UNL     1      44.585   6.764  10.662  0.00  0.00    +0.000 N 
ATOM      9  H   UNL     1      44.932   6.734   9.706  0.00  0.00    +0.000 HD
BRANCH   8  10
ATOM     10  C   UNL     1      43.827   5.563  10.999  0.00  0.00    +0.000 C 
BRANCH  10  11
ATOM     11  C   UNL     1      44.293   4.372  10.182  0.00  0.00    +0.000 A 
ATOM     12  C   UNL     1      45.082   4.583   9.037  0.00  0.00    +0.000 A 
ATOM     13  C   UNL     1      45.605   3.501   8.324  0.00  0.00    +0.000 A 
ATOM     14  C   UNL     1      45.350   2.205   8.755  0.00  0.00    +0.000 A 
ATOM     15  F   UNL     1      45.865   1.171   8.076  0.00  0.00    +0.000 F 
ATOM     16  C   UNL     1      44.580   1.969   9.885  0.00  0.00    +0.000 A 
ATOM     17  C   UNL     1      44.060   3.050  10.602  0.00  0.00    +0.000 A 
ENDBRANCH  10  11
ENDBRANCH   8  10
ENDBRANCH   5   8
ENDBRANCH   1   2
BRANCH   1  20
ATOM     18  C   UNL     1      49.547   7.717  16.469  0.00  0.00    +0.000 C 
ATOM     19  O   UNL     1      50.532   8.435  16.305  0.00  0.00    +0.000 OA
ATOM     20  N   UNL     1      48.497   7.744  15.595  0.00  0.00    +0.000 N 
ATOM     21  H   UNL     1      47.725   7.101  15.705  0.00  0.00    +0.000 HD
BRANCH  18  29
ATOM     22  C   UNL     1      48.364   4.504  16.836  0.00  0.00    +0.000 A 
ATOM     23  N   UNL     1      47.979   3.282  17.256  0.00  0.00    +0.000 NA
ATOM     24  C   UNL     1      48.147   2.980  18.546  0.00  0.00    +0.000 A 
ATOM     25  N   UNL     1      48.662   3.761  19.490  0.00  0.00    +0.000 NA
ATOM     26  C   UNL     1      49.040   4.965  19.029  0.00  0.00    +0.000 A 
ATOM     27  S   UNL     1      49.717   6.095  20.099  0.00  0.00    +0.000 S 
ATOM     28  C   UNL     1      49.896   7.239  18.856  0.00  0.00    +0.000 A 
ATOM     29  C   UNL     1      49.453   6.797  17.614  0.00  0.00    +0.000 A 
ATOM     30  C   UNL     1      48.940   5.431  17.721  0.00  0.00    +0.000 A 
BRANCH  22  32
ATOM     31  C   UNL     1      46.958   4.399  14.969  0.00  0.00    +0.000 C 
ATOM     32  O   UNL     1      48.220   4.802  15.496  0.00  0.00    +0.000 OA
ENDBRANCH  22  32
ENDBRANCH  18  29
ENDBRANCH   1  20
TORSDOF 7
ENDMDL
MODEL 9
REMARK VINA RESULT:    -6.225      4.119      8.407
REMARK INTER + INTRA:         -10.257
REMARK INTER:                  -9.046
REMARK INTRA:                  -1.211
REMARK UNBOUND:                -1.484
REMARK  Name = 
REMARK  8 active torsions:
REMARK  status: ('A' for Active; 'I' for Inactive)
REMARK    1  A    between atoms: C_1  and  O_2
REMARK    2  A    between atoms: O_2  and  C_3
REMARK    3  A    between atoms: C_10  and  C_11
REMARK    4  A    between atoms: N_13  and  C_14
REMARK    5  A    between atoms: C_14  and  C_15
REMARK    6  A    between atoms: C_18  and  N_19
REMARK    7  A    between atoms: N_19  and  C_20
REMARK    8  A    between atoms: C_20  and  C_21
REMARK                            x       y       z     vdW  Elec       q    Type
REMARK                         _______ _______ _______ _____ _____    ______ ____
ROOT
ATOM      1  C   UNL     1      49.033   8.220  15.477  0.00  0.00    +0.000 C 
ENDROOT
BRANCH   1   2
ATOM      2  C   UNL     1      49.535   7.149  16.411  0.00  0.00    +0.000 A 
ATOM      3  C   UNL     1      48.717   6.633  17.424  0.00  0.00    +0.000 A 
ATOM      4  C   UNL     1      49.179   5.611  18.264  0.00  0.00    +0.000 A 
ATOM      5  C   UNL     1      50.461   5.076  18.106  0.00  0.00    +0.000 A 
ATOM      6  C   UNL     1      51.303   5.664  17.157  0.00  0.00    +0.000 A 
ATOM      7  C   UNL     1      50.847   6.678  16.309  0.00  0.00    +0.000 A 
BRANCH   5   8
ATOM      8  N   UNL     1      50.984   4.042  18.888  0.00  0.00    +0.000 N 
ATOM      9  H   UNL     1      50.593   3.143  18.612  0.00  0.00    +0.000 HD
BRANCH   8  10
ATOM     10  C   UNL     1      52.432   3.970  19.061  0.00  0.00    +0.000 C 
BRANCH  10  11
ATOM     11  C   UNL     1      53.021   2.806  18.284  0.00  0.00    +0.000 A 
ATOM     12  C   UNL     1      54.403   2.775  18.024  0.00  0.00    +0.000 A 
ATOM     13  C   UNL     1      54.984   1.669  17.397  0.00  0.00    +0.000 A 
ATOM     14  C   UNL     1      54.191   0.588  17.035  0.00  0.00    +0.000 A 
ATOM     15  F   UNL     1      54.754  -0.476  16.447  0.00  0.00    +0.000 F 
ATOM     16  C   UNL     1      52.826   0.590  17.286  0.00  0.00    +0.000 A 
ATOM     17  C   UNL     1      52.243   1.693  17.917  0.00  0.00    +0.000 A 
ENDBRANCH  10  11
ENDBRANCH   8  10
ENDBRANCH   5   8
ENDBRANCH   1   2
BRANCH   1  20
ATOM     18  C   UNL     1      48.017   6.987  13.613  0.00  0.00    +0.000 C 
ATOM     19  O   UNL     1      49.122   6.644  13.198  0.00  0.00    +0.000 OA
ATOM     20  N   UNL     1      47.891   7.766  14.729  0.00  0.00    +0.000 N 
ATOM     21  H   UNL     1      46.981   8.096  15.020  0.00  0.00    +0.000 HD
BRANCH  18  29
ATOM     22  C   UNL     1      46.432   3.959  13.193  0.00  0.00    +0.000 A 
ATOM     23  N   UNL     1      45.618   2.930  12.881  0.00  0.00    +0.000 NA
ATOM     24  C   UNL     1      44.532   3.189  12.149  0.00  0.00    +0.000 A 
ATOM     25  N   UNL     1      44.148   4.371  11.678  0.00  0.00    +0.000 NA
ATOM     26  C   UNL     1      44.980   5.370  12.019  0.00  0.00    +0.000 A 
ATOM     27  S   UNL     1      44.645   6.951  11.501  0.00  0.00    +0.000 S 
ATOM     28  C   UNL     1      46.037   7.550  12.267  0.00  0.00    +0.000 A 
ATOM     29  C   UNL     1      46.780   6.577  12.928  0.00  0.00    +0.000 A 
ATOM     30  C   UNL     1      46.143   5.270  12.777  0.00  0.00    +0.000 A 
BRANCH  22  32
ATOM     31  C   UNL     1      47.278   3.853  15.372  0.00  0.00    +0.000 C 
ATOM     32  O   UNL     1      47.536   3.695  13.978  0.00  0.00    +0.000 OA
ENDBRANCH  22  32
ENDBRANCH  18  29
ENDBRANCH   1  20
TORSDOF 7
ENDMDL
