MODEL 1
REMARK VINA RESULT:    -8.136      0.000      0.000
REMARK INTER + INTRA:         -10.398
REMARK INTER:                 -10.277
REMARK INTRA:                  -0.121
REMARK UNBOUND:                -0.121
REMARK  Name = 
REMARK  5 active torsions:
REMARK  status: ('A' for Active; 'I' for Inactive)
REMARK    1  A    between atoms: N_1  and  C_2
REMARK    2  A    between atoms: C_2  and  C_3
REMARK    3  A    between atoms: C_6  and  C_7
REMARK    4  A    between atoms: C_7  and  N_8
REMARK    5  A    between atoms: C_12  and  C_13
REMARK                            x       y       z     vdW  Elec       q    Type
REMARK                         _______ _______ _______ _____ _____    ______ ____
ROOT
ATOM      1  N   UNL     1      44.533   5.486  10.399  0.00  0.00    +0.000 N 
ATOM      2  C   UNL     1      45.241   5.186  11.574  0.00  0.00    +0.000 A 
ATOM      3  C   UNL     1      45.893   6.204  12.287  0.00  0.00    +0.000 A 
ATOM      4  N   UNL     1      46.580   6.012  13.449  0.00  0.00    +0.000 NA
ATOM      5  C   UNL     1      46.598   4.720  13.877  0.00  0.00    +0.000 A 
ATOM      6  C   UNL     1      45.977   3.700  13.175  0.00  0.00    +0.000 A 
ATOM      7  N   UNL     1      45.300   3.913  12.018  0.00  0.00    +0.000 NA
ATOM      8  H   UNL     1      43.817   6.177  10.606  0.00  0.00    +0.000 HD
ENDROOT
BRANCH   5   9
ATOM      9  C   UNL     1      47.299   4.399  15.149  0.00  0.00    +0.000 C 
ATOM     10  N   UNL     1      47.637   5.454  15.951  0.00  0.00    +0.000 N 
ATOM     11  O   UNL     1      47.563   3.245  15.474  0.00  0.00    +0.000 OA
ATOM     12  H   UNL     1      47.424   6.405  15.673  0.00  0.00    +0.000 HD
ATOM     13  H   UNL     1      48.122   5.271  16.817  0.00  0.00    +0.000 HD
ENDBRANCH   5   9
BRANCH   1  14
ATOM     14  C   UNL     1      43.940   4.306   9.763  0.00  0.00    +0.000 C 
BRANCH  14  18
ATOM     15  C   UNL     1      46.896   2.232   7.351  0.00  0.00    +0.000 A 
ATOM     16  C   UNL     1      46.071   1.515   8.228  0.00  0.00    +0.000 A 
ATOM     17  C   UNL     1      45.107   2.169   8.997  0.00  0.00    +0.000 A 
ATOM     18  C   UNL     1      44.964   3.561   8.931  0.00  0.00    +0.000 A 
ATOM     19  C   UNL     1      45.761   4.271   8.018  0.00  0.00    +0.000 A 
ATOM     20  C   UNL     1      46.720   3.615   7.241  0.00  0.00    +0.000 A 
BRANCH  15  21
ATOM     21  C   UNL     1      47.973   1.523   6.569  0.00  0.00    +0.000 C 
BRANCH  21  22
ATOM     22  N   UNL     1      48.377   2.286   5.394  0.00  0.00    +0.000 NA
ATOM     23  H   UNL     1      48.054   3.245   5.492  0.00  0.00    +0.000 HD
ATOM     24  H   UNL     1      47.906   1.901   4.577  0.00  0.00    +0.000 HD
ENDBRANCH  21  22
ENDBRANCH  15  21
ENDBRANCH  14  18
ENDBRANCH   1  14
TORSDOF 5
ENDMDL
MODEL 2
REMARK VINA RESULT:    -7.948      1.526      2.212
REMARK INTER + INTRA:         -10.159
REMARK INTER:                  -9.917
REMARK INTRA:                  -0.242
REMARK UNBOUND:                -0.121
REMARK  Name = 
REMARK  5 active torsions:
REMARK  status: ('A' for Active; 'I' for Inactive)
REMARK    1  A    between atoms: N_1  and  C_2
REMARK    2  A    between atoms: C_2  and  C_3
REMARK    3  A    between atoms: C_6  and  C_7
REMARK    4  A    between atoms: C_7  and  N_8
REMARK    5  A    between atoms: C_12  and  C_13
REMARK                            x       y       z     vdW  Elec       q    Type
REMARK                         _______ _______ _______ _____ _____    ______ ____
ROOT
ATOM      1  N   UNL     1      45.010   2.860  11.802  0.00  0.00    +0.000 N 
ATOM      2  C   UNL     1      45.775   3.865  12.416  0.00  0.00    +0.000 A 
ATOM      3  C   UNL     1      46.533   3.578  13.562  0.00  0.00    +0.000 A 
ATOM      4  N   UNL     1      47.325   4.480  14.207  0.00  0.00    +0.000 NA
ATOM      5  C   UNL     1      47.320   5.722  13.650  0.00  0.00    +0.000 A 
ATOM      6  C   UNL     1      46.563   6.028  12.532  0.00  0.00    +0.000 A 
ATOM      7  N   UNL     1      45.779   5.114  11.906  0.00  0.00    +0.000 NA
ATOM      8  H   UNL     1      45.617   2.087  11.543  0.00  0.00    +0.000 HD
ENDROOT
BRANCH   5   9
ATOM      9  C   UNL     1      48.170   6.781  14.260  0.00  0.00    +0.000 C 
ATOM     10  N   UNL     1      47.599   8.012  14.424  0.00  0.00    +0.000 N 
ATOM     11  O   UNL     1      49.329   6.567  14.604  0.00  0.00    +0.000 OA
ATOM     12  H   UNL     1      46.645   8.184  14.129  0.00  0.00    +0.000 HD
ATOM     13  H   UNL     1      48.151   8.755  14.826  0.00  0.00    +0.000 HD
ENDBRANCH   5   9
BRANCH   1  14
ATOM     14  C   UNL     1      44.256   3.335  10.639  0.00  0.00    +0.000 C 
BRANCH  14  18
ATOM     15  C   UNL     1      46.516   2.712   6.983  0.00  0.00    +0.000 A 
ATOM     16  C   UNL     1      46.110   4.002   7.351  0.00  0.00    +0.000 A 
ATOM     17  C   UNL     1      45.396   4.217   8.533  0.00  0.00    +0.000 A 
ATOM     18  C   UNL     1      45.045   3.142   9.360  0.00  0.00    +0.000 A 
ATOM     19  C   UNL     1      45.492   1.857   9.012  0.00  0.00    +0.000 A 
ATOM     20  C   UNL     1      46.214   1.644   7.834  0.00  0.00    +0.000 A 
BRANCH  15  21
ATOM     21  C   UNL     1      47.235   2.485   5.678  0.00  0.00    +0.000 C 
BRANCH  21  22
ATOM     22  N   UNL     1      48.496   1.781   5.872  0.00  0.00    +0.000 NA
ATOM     23  H   UNL     1      49.265   2.403   5.637  0.00  0.00    +0.000 HD
ATOM     24  H   UNL     1      48.539   1.002   5.216  0.00  0.00    +0.000 HD
ENDBRANCH  21  22
ENDBRANCH  15  21
ENDBRANCH  14  18
ENDBRANCH   1  14
TORSDOF 5
ENDMDL
MODEL 3
REMARK VINA RESULT:    -7.920      1.841      2.764
REMARK INTER + INTRA:         -10.125
REMARK INTER:                 -10.048
REMARK INTRA:                  -0.077
REMARK UNBOUND:                -0.121
REMARK  Name = 
REMARK  5 active torsions:
REMARK  status: ('A' for Active; 'I' for Inactive)
REMARK    1  A    between atoms: N_1  and  C_2
REMARK    2  A    between atoms: C_2  and  C_3
REMARK    3  A    between atoms: C_6  and  C_7
REMARK    4  A    between atoms: C_7  and  N_8
REMARK    5  A    between atoms: C_12  and  C_13
REMARK                            x       y       z     vdW  Elec       q    Type
REMARK                         _______ _______ _______ _____ _____    ______ ____
ROOT
ATOM      1  N   UNL     1      44.985   3.002  11.569  0.00  0.00    +0.000 N 
ATOM      2  C   UNL     1      45.202   4.331  11.969  0.00  0.00    +0.000 A 
ATOM      3  C   UNL     1      45.950   4.610  13.123  0.00  0.00    +0.000 A 
ATOM      4  N   UNL     1      46.234   5.866  13.571  0.00  0.00    +0.000 NA
ATOM      5  C   UNL     1      45.714   6.861  12.802  0.00  0.00    +0.000 A 
ATOM      6  C   UNL     1      44.956   6.604  11.672  0.00  0.00    +0.000 A 
ATOM      7  N   UNL     1      44.684   5.345  11.245  0.00  0.00    +0.000 NA
ATOM      8  H   UNL     1      45.881   2.543  11.433  0.00  0.00    +0.000 HD
ENDROOT
BRANCH   5   9
ATOM      9  C   UNL     1      45.983   8.274  13.186  0.00  0.00    +0.000 C 
ATOM     10  N   UNL     1      45.031   9.197  12.851  0.00  0.00    +0.000 N 
ATOM     11  O   UNL     1      47.008   8.604  13.776  0.00  0.00    +0.000 OA
ATOM     12  H   UNL     1      44.192   8.918  12.355  0.00  0.00    +0.000 HD
ATOM     13  H   UNL     1      45.187  10.165  13.089  0.00  0.00    +0.000 HD
ENDBRANCH   5   9
BRANCH   1  14
ATOM     14  C   UNL     1      44.158   2.888  10.365  0.00  0.00    +0.000 C 
BRANCH  14  18
ATOM     15  C   UNL     1      46.620   2.709   6.792  0.00  0.00    +0.000 A 
ATOM     16  C   UNL     1      46.008   3.912   7.169  0.00  0.00    +0.000 A 
ATOM     17  C   UNL     1      45.227   3.986   8.324  0.00  0.00    +0.000 A 
ATOM     18  C   UNL     1      45.014   2.850   9.115  0.00  0.00    +0.000 A 
ATOM     19  C   UNL     1      45.665   1.657   8.761  0.00  0.00    +0.000 A 
ATOM     20  C   UNL     1      46.454   1.586   7.609  0.00  0.00    +0.000 A 
BRANCH  15  21
ATOM     21  C   UNL     1      47.414   2.627   5.513  0.00  0.00    +0.000 C 
BRANCH  21  22
ATOM     22  N   UNL     1      48.610   1.810   5.671  0.00  0.00    +0.000 NA
ATOM     23  H   UNL     1      49.244   2.268   6.322  0.00  0.00    +0.000 HD
ATOM     24  H   UNL     1      49.095   1.764   4.776  0.00  0.00    +0.000 HD
ENDBRANCH  21  22
ENDBRANCH  15  21
ENDBRANCH  14  18
ENDBRANCH   1  14
TORSDOF 5
ENDMDL
MODEL 4
REMARK VINA RESULT:    -7.321      2.677      6.612
REMARK INTER + INTRA:          -9.367
REMARK INTER:                  -9.310
REMARK INTRA:                  -0.057
REMARK UNBOUND:                -0.121
REMARK  Name = 
REMARK  5 active torsions:
REMARK  status: ('A' for Active; 'I' for Inactive)
REMARK    1  A    between atoms: N_1  and  C_2
REMARK    2  A    between atoms: C_2  and  C_3
REMARK    3  A    between atoms: C_6  and  C_7
REMARK    4  A    between atoms: C_7  and  N_8
REMARK    5  A    between atoms: C_12  and  C_13
REMARK                            x       y       z     vdW  Elec       q    Type
REMARK                         _______ _______ _______ _____ _____    ______ ____
ROOT
ATOM      1  N   UNL     1      43.821   3.306  10.506  0.00  0.00    +0.000 N 
ATOM      2  C   UNL     1      44.753   3.098   9.476  0.00  0.00    +0.000 A 
ATOM      3  C   UNL     1      45.120   1.796   9.105  0.00  0.00    +0.000 A 
ATOM      4  N   UNL     1      45.993   1.498   8.102  0.00  0.00    +0.000 NA
ATOM      5  C   UNL     1      46.508   2.589   7.472  0.00  0.00    +0.000 A 
ATOM      6  C   UNL     1      46.172   3.881   7.837  0.00  0.00    +0.000 A 
ATOM      7  N   UNL     1      45.302   4.155   8.842  0.00  0.00    +0.000 NA
ATOM      8  H   UNL     1      42.953   2.832  10.273  0.00  0.00    +0.000 HD
ENDROOT
BRANCH   5   9
ATOM      9  C   UNL     1      47.455   2.380   6.342  0.00  0.00    +0.000 C 
ATOM     10  N   UNL     1      47.331   3.218   5.269  0.00  0.00    +0.000 N 
ATOM     11  O   UNL     1      48.311   1.500   6.365  0.00  0.00    +0.000 OA
ATOM     12  H   UNL     1      46.615   3.936   5.253  0.00  0.00    +0.000 HD
ATOM     13  H   UNL     1      47.951   3.097   4.482  0.00  0.00    +0.000 HD
ENDBRANCH   5   9
BRANCH   1  14
ATOM     14  C   UNL     1      43.575   4.724  10.786  0.00  0.00    +0.000 C 
BRANCH  14  18
ATOM     15  C   UNL     1      46.791   6.376  13.192  0.00  0.00    +0.000 A 
ATOM     16  C   UNL     1      46.280   7.097  12.105  0.00  0.00    +0.000 A 
ATOM     17  C   UNL     1      45.235   6.583  11.334  0.00  0.00    +0.000 A 
ATOM     18  C   UNL     1      44.696   5.320  11.612  0.00  0.00    +0.000 A 
ATOM     19  C   UNL     1      45.180   4.619  12.729  0.00  0.00    +0.000 A 
ATOM     20  C   UNL     1      46.220   5.138  13.506  0.00  0.00    +0.000 A 
BRANCH  15  21
ATOM     21  C   UNL     1      47.957   6.914  13.982  0.00  0.00    +0.000 C 
BRANCH  21  22
ATOM     22  N   UNL     1      49.231   6.584  13.357  0.00  0.00    +0.000 NA
ATOM     23  H   UNL     1      49.950   6.524  14.075  0.00  0.00    +0.000 HD
ATOM     24  H   UNL     1      49.500   7.348  12.739  0.00  0.00    +0.000 HD
ENDBRANCH  21  22
ENDBRANCH  15  21
ENDBRANCH  14  18
ENDBRANCH   1  14
TORSDOF 5
ENDMDL
MODEL 5
REMARK VINA RESULT:    -6.544      3.434      7.683
REMARK INTER + INTRA:          -8.387
REMARK INTER:                  -8.044
REMARK INTRA:                  -0.342
REMARK UNBOUND:                -0.121
REMARK  Name = 
REMARK  5 active torsions:
REMARK  status: ('A' for Active; 'I' for Inactive)
REMARK    1  A    between atoms: N_1  and  C_2
REMARK    2  A    between atoms: C_2  and  C_3
REMARK    3  A    between atoms: C_6  and  C_7
REMARK    4  A    between atoms: C_7  and  N_8
REMARK    5  A    between atoms: C_12  and  C_13
REMARK                            x       y       z     vdW  Elec       q    Type
REMARK                         _______ _______ _______ _____ _____    ______ ____
ROOT
ATOM      1  N   UNL     1      47.393   5.319  15.342  0.00  0.00    +0.000 N 
ATOM      2  C   UNL     1      46.739   5.104  14.117  0.00  0.00    +0.000 A 
ATOM      3  C   UNL     1      46.815   6.063  13.096  0.00  0.00    +0.000 A 
ATOM      4  N   UNL     1      46.236   5.929  11.869  0.00  0.00    +0.000 NA
ATOM      5  C   UNL     1      45.548   4.766  11.704  0.00  0.00    +0.000 A 
ATOM      6  C   UNL     1      45.446   3.818  12.708  0.00  0.00    +0.000 A 
ATOM      7  N   UNL     1      46.028   3.974  13.923  0.00  0.00    +0.000 NA
ATOM      8  H   UNL     1      48.385   5.460  15.171  0.00  0.00    +0.000 HD
ENDROOT
BRANCH   5   9
ATOM      9  C   UNL     1      44.896   4.503  10.392  0.00  0.00    +0.000 C 
ATOM     10  N   UNL     1      45.346   5.227   9.322  0.00  0.00    +0.000 N 
ATOM     11  O   UNL     1      43.999   3.675  10.266  0.00  0.00    +0.000 OA
ATOM     12  H   UNL     1      46.081   5.916   9.436  0.00  0.00    +0.000 HD
ATOM     13  H   UNL     1      44.918   5.080   8.420  0.00  0.00    +0.000 HD
ENDBRANCH   5   9
BRANCH   1  14
ATOM     14  C   UNL     1      47.185   4.237  16.307  0.00  0.00    +0.000 C 
BRANCH  14  18
ATOM     15  C   UNL     1      50.959   2.375  17.379  0.00  0.00    +0.000 A 
ATOM     16  C   UNL     1      49.983   1.645  16.688  0.00  0.00    +0.000 A 
ATOM     17  C   UNL     1      48.771   2.238  16.324  0.00  0.00    +0.000 A 
ATOM     18  C   UNL     1      48.495   3.567  16.669  0.00  0.00    +0.000 A 
ATOM     19  C   UNL     1      49.492   4.309  17.322  0.00  0.00    +0.000 A 
ATOM     20  C   UNL     1      50.708   3.718  17.679  0.00  0.00    +0.000 A 
BRANCH  15  21
ATOM     21  C   UNL     1      52.238   1.709  17.818  0.00  0.00    +0.000 C 
BRANCH  21  22
ATOM     22  N   UNL     1      52.021   0.319  18.197  0.00  0.00    +0.000 NA
ATOM     23  H   UNL     1      51.531   0.289  19.088  0.00  0.00    +0.000 HD
ATOM     24  H   UNL     1      52.926  -0.125  18.347  0.00  0.00    +0.000 HD
ENDBRANCH  21  22
ENDBRANCH  15  21
ENDBRANCH  14  18
ENDBRANCH   1  14
TORSDOF 5
ENDMDL
MODEL 6
REMARK VINA RESULT:    -6.455      2.181      3.705
REMARK INTER + INTRA:          -8.273
REMARK INTER:                  -7.978
REMARK INTRA:                  -0.295
REMARK UNBOUND:                -0.121
REMARK  Name = 
REMARK  5 active torsions:
REMARK  status: ('A' for Active; 'I' for Inactive)
REMARK    1  A    between atoms: N_1  and  C_2
REMARK    2  A    between atoms: C_2  and  C_3
REMARK    3  A    between atoms: C_6  and  C_7
REMARK    4  A    between atoms: C_7  and  N_8
REMARK    5  A    between atoms: C_12  and  C_13
REMARK                            x       y       z     vdW  Elec       q    Type
REMARK                         _______ _______ _______ _____ _____    ______ ____
ROOT
ATOM      1  N   UNL     1      46.389   5.677  13.763  0.00  0.00    +0.000 N 
ATOM      2  C   UNL     1      47.127   5.158  14.840  0.00  0.00    +0.000 A 
ATOM      3  C   UNL     1      48.264   5.834  15.310  0.00  0.00    +0.000 A 
ATOM      4  N   UNL     1      49.024   5.421  16.364  0.00  0.00    +0.000 NA
ATOM      5  C   UNL     1      48.594   4.266  16.940  0.00  0.00    +0.000 A 
ATOM      6  C   UNL     1      47.486   3.576  16.477  0.00  0.00    +0.000 A 
ATOM      7  N   UNL     1      46.745   4.003  15.424  0.00  0.00    +0.000 NA
ATOM      8  H   UNL     1      46.075   6.616  13.993  0.00  0.00    +0.000 HD
ENDROOT
BRANCH   5   9
ATOM      9  C   UNL     1      49.336   3.736  18.116  0.00  0.00    +0.000 C 
ATOM     10  N   UNL     1      50.188   2.691  17.890  0.00  0.00    +0.000 N 
ATOM     11  O   UNL     1      49.197   4.210  19.240  0.00  0.00    +0.000 OA
ATOM     12  H   UNL     1      50.290   2.298  16.961  0.00  0.00    +0.000 HD
ATOM     13  H   UNL     1      50.700   2.302  18.668  0.00  0.00    +0.000 HD
ENDBRANCH   5   9
BRANCH   1  14
ATOM     14  C   UNL     1      45.254   4.833  13.380  0.00  0.00    +0.000 C 
BRANCH  14  18
ATOM     15  C   UNL     1      45.257   3.938   9.131  0.00  0.00    +0.000 A 
ATOM     16  C   UNL     1      45.667   5.197   9.588  0.00  0.00    +0.000 A 
ATOM     17  C   UNL     1      45.686   5.492  10.953  0.00  0.00    +0.000 A 
ATOM     18  C   UNL     1      45.264   4.543  11.893  0.00  0.00    +0.000 A 
ATOM     19  C   UNL     1      44.896   3.267  11.436  0.00  0.00    +0.000 A 
ATOM     20  C   UNL     1      44.887   2.970  10.070  0.00  0.00    +0.000 A 
BRANCH  15  21
ATOM     21  C   UNL     1      45.187   3.651   7.653  0.00  0.00    +0.000 C 
BRANCH  21  22
ATOM     22  N   UNL     1      46.418   4.027   6.970  0.00  0.00    +0.000 NA
ATOM     23  H   UNL     1      46.828   4.831   7.440  0.00  0.00    +0.000 HD
ATOM     24  H   UNL     1      46.189   4.327   6.024  0.00  0.00    +0.000 HD
ENDBRANCH  21  22
ENDBRANCH  15  21
ENDBRANCH  14  18
ENDBRANCH   1  14
TORSDOF 5
ENDMDL
MODEL 7
REMARK VINA RESULT:    -6.095      2.761      4.830
REMARK INTER + INTRA:          -7.819
REMARK INTER:                  -7.568
REMARK INTRA:                  -0.251
REMARK UNBOUND:                -0.121
REMARK  Name = 
REMARK  5 active torsions:
REMARK  status: ('A' for Active; 'I' for Inactive)
REMARK    1  A    between atoms: N_1  and  C_2
REMARK    2  A    between atoms: C_2  and  C_3
REMARK    3  A    between atoms: C_6  and  C_7
REMARK    4  A    between atoms: C_7  and  N_8
REMARK    5  A    between atoms: C_12  and  C_13
REMARK                            x       y       z     vdW  Elec       q    Type
REMARK                         _______ _______ _______ _____ _____    ______ ____
ROOT
ATOM      1  N   UNL     1      46.645   4.129  14.933  0.00  0.00    +0.000 N 
ATOM      2  C   UNL     1      47.543   4.252  16.007  0.00  0.00    +0.000 A 
ATOM      3  C   UNL     1      47.628   3.243  16.977  0.00  0.00    +0.000 A 
ATOM      4  N   UNL     1      48.486   3.263  18.036  0.00  0.00    +0.000 NA
ATOM      5  C   UNL     1      49.272   4.373  18.093  0.00  0.00    +0.000 A 
ATOM      6  C   UNL     1      49.187   5.388  17.155  0.00  0.00    +0.000 A 
ATOM      7  N   UNL     1      48.323   5.348  16.109  0.00  0.00    +0.000 NA
ATOM      8  H   UNL     1      46.849   3.274  14.422  0.00  0.00    +0.000 HD
ENDROOT
BRANCH   5   9
ATOM      9  C   UNL     1      50.264   4.489  19.196  0.00  0.00    +0.000 C 
ATOM     10  N   UNL     1      51.478   3.890  19.000  0.00  0.00    +0.000 N 
ATOM     11  O   UNL     1      50.015   5.094  20.235  0.00  0.00    +0.000 OA
ATOM     12  H   UNL     1      51.674   3.385  18.143  0.00  0.00    +0.000 HD
ATOM     13  H   UNL     1      52.171   3.942  19.732  0.00  0.00    +0.000 HD
ENDBRANCH   5   9
BRANCH   1  14
ATOM     14  C   UNL     1      46.661   5.284  14.031  0.00  0.00    +0.000 C 
BRANCH  14  18
ATOM     15  C   UNL     1      44.985   4.337  10.138  0.00  0.00    +0.000 A 
ATOM     16  C   UNL     1      44.877   3.423  11.195  0.00  0.00    +0.000 A 
ATOM     17  C   UNL     1      45.398   3.723  12.455  0.00  0.00    +0.000 A 
ATOM     18  C   UNL     1      46.067   4.933  12.682  0.00  0.00    +0.000 A 
ATOM     19  C   UNL     1      46.135   5.865  11.634  0.00  0.00    +0.000 A 
ATOM     20  C   UNL     1      45.605   5.569  10.374  0.00  0.00    +0.000 A 
BRANCH  15  21
ATOM     21  C   UNL     1      44.470   3.979   8.767  0.00  0.00    +0.000 C 
BRANCH  21  22
ATOM     22  N   UNL     1      45.507   4.104   7.751  0.00  0.00    +0.000 NA
ATOM     23  H   UNL     1      45.174   4.714   7.008  0.00  0.00    +0.000 HD
ATOM     24  H   UNL     1      45.664   3.190   7.330  0.00  0.00    +0.000 HD
ENDBRANCH  21  22
ENDBRANCH  15  21
ENDBRANCH  14  18
ENDBRANCH   1  14
TORSDOF 5
ENDMDL
MODEL 8
REMARK VINA RESULT:    -5.532      4.515      6.130
REMARK INTER + INTRA:          -7.108
REMARK INTER:                  -6.764
REMARK INTRA:                  -0.344
REMARK UNBOUND:                -0.121
REMARK  Name = 
REMARK  5 active torsions:
REMARK  status: ('A' for Active; 'I' for Inactive)
REMARK    1  A    between atoms: N_1  and  C_2
REMARK    2  A    between atoms: C_2  and  C_3
REMARK    3  A    between atoms: C_6  and  C_7
REMARK    4  A    between atoms: C_7  and  N_8
REMARK    5  A    between atoms: C_12  and  C_13
REMARK                            x       y       z     vdW  Elec       q    Type
REMARK                         _______ _______ _______ _____ _____    ______ ____
ROOT
ATOM      1  N   UNL     1      48.247   7.341  14.959  0.00  0.00    +0.000 N 
ATOM      2  C   UNL     1      48.555   6.654  16.145  0.00  0.00    +0.000 A 
ATOM      3  C   UNL     1      48.484   7.312  17.383  0.00  0.00    +0.000 A 
ATOM      4  N   UNL     1      48.738   6.721  18.584  0.00  0.00    +0.000 NA
ATOM      5  C   UNL     1      49.086   5.408  18.495  0.00  0.00    +0.000 A 
ATOM      6  C   UNL     1      49.181   4.749  17.281  0.00  0.00    +0.000 A 
ATOM      7  N   UNL     1      48.926   5.358  16.096  0.00  0.00    +0.000 NA
ATOM      8  H   UNL     1      47.301   7.708  15.020  0.00  0.00    +0.000 HD
ENDROOT
BRANCH   5   9
ATOM      9  C   UNL     1      49.362   4.656  19.749  0.00  0.00    +0.000 C 
ATOM     10  N   UNL     1      48.534   3.605  20.034  0.00  0.00    +0.000 N 
ATOM     11  O   UNL     1      50.287   4.956  20.498  0.00  0.00    +0.000 OA
ATOM     12  H   UNL     1      47.766   3.369  19.416  0.00  0.00    +0.000 HD
ATOM     13  H   UNL     1      48.688   3.080  20.882  0.00  0.00    +0.000 HD
ENDBRANCH   5   9
BRANCH   1  14
ATOM     14  C   UNL     1      48.402   6.517  13.757  0.00  0.00    +0.000 C 
BRANCH  14  18
ATOM     15  C   UNL     1      44.552   5.655  11.942  0.00  0.00    +0.000 A 
ATOM     16  C   UNL     1      45.279   6.788  11.553  0.00  0.00    +0.000 A 
ATOM     17  C   UNL     1      46.525   7.068  12.118  0.00  0.00    +0.000 A 
ATOM     18  C   UNL     1      47.062   6.236  13.109  0.00  0.00    +0.000 A 
ATOM     19  C   UNL     1      46.353   5.077  13.465  0.00  0.00    +0.000 A 
ATOM     20  C   UNL     1      45.110   4.793  12.892  0.00  0.00    +0.000 A 
BRANCH  15  21
ATOM     21  C   UNL     1      43.183   5.395  11.368  0.00  0.00    +0.000 C 
BRANCH  21  22
ATOM     22  N   UNL     1      42.227   6.421  11.765  0.00  0.00    +0.000 NA
ATOM     23  H   UNL     1      42.095   7.070  10.993  0.00  0.00    +0.000 HD
ATOM     24  H   UNL     1      42.625   6.958  12.534  0.00  0.00    +0.000 HD
ENDBRANCH  21  22
ENDBRANCH  15  21
ENDBRANCH  14  18
ENDBRANCH   1  14
TORSDOF 5
ENDMDL
MODEL 9
REMARK VINA RESULT:    -5.290      4.147      8.349
REMARK INTER + INTRA:          -6.802
REMARK INTER:                  -6.485
REMARK INTRA:                  -0.317
REMARK UNBOUND:                -0.121
REMARK  Name = 
REMARK  5 active torsions:
REMARK  status: ('A' for Active; 'I' for Inactive)
REMARK    1  A    between atoms: N_1  and  C_2
REMARK    2  A    between atoms: C_2  and  C_3
REMARK    3  A    between atoms: C_6  and  C_7
REMARK    4  A    between atoms: C_7  and  N_8
REMARK    5  A    between atoms: C_12  and  C_13
REMARK                            x       y       z     vdW  Elec       q    Type
REMARK                         _______ _______ _______ _____ _____    ______ ____
ROOT
ATOM      1  N   UNL     1      47.527   7.275  13.832  0.00  0.00    +0.000 N 
ATOM      2  C   UNL     1      46.575   6.338  13.396  0.00  0.00    +0.000 A 
ATOM      3  C   UNL     1      45.379   6.768  12.803  0.00  0.00    +0.000 A 
ATOM      4  N   UNL     1      44.412   5.933  12.327  0.00  0.00    +0.000 NA
ATOM      5  C   UNL     1      44.694   4.611  12.483  0.00  0.00    +0.000 A 
ATOM      6  C   UNL     1      45.861   4.169  13.084  0.00  0.00    +0.000 A 
ATOM      7  N   UNL     1      46.809   5.019  13.554  0.00  0.00    +0.000 NA
ATOM      8  H   UNL     1      47.804   7.860  13.048  0.00  0.00    +0.000 HD
ENDROOT
BRANCH   5   9
ATOM      9  C   UNL     1      43.718   3.608  11.976  0.00  0.00    +0.000 C 
ATOM     10  N   UNL     1      43.839   2.332  12.453  0.00  0.00    +0.000 N 
ATOM     11  O   UNL     1      42.841   3.904  11.169  0.00  0.00    +0.000 OA
ATOM     12  H   UNL     1      44.571   2.093  13.112  0.00  0.00    +0.000 HD
ATOM     13  H   UNL     1      43.198   1.626  12.123  0.00  0.00    +0.000 HD
ENDBRANCH   5   9
BRANCH   1  14
ATOM     14  C   UNL     1      48.701   6.660  14.456  0.00  0.00    +0.000 C 
BRANCH  14  18
ATOM     15  C   UNL     1      48.358   6.728  18.785  0.00  0.00    +0.000 A 
ATOM     16  C   UNL     1      48.299   5.513  18.091  0.00  0.00    +0.000 A 
ATOM     17  C   UNL     1      48.424   5.477  16.700  0.00  0.00    +0.000 A 
ATOM     18  C   UNL     1      48.581   6.659  15.966  0.00  0.00    +0.000 A 
ATOM     19  C   UNL     1      48.684   7.872  16.668  0.00  0.00    +0.000 A 
ATOM     20  C   UNL     1      48.569   7.907  18.061  0.00  0.00    +0.000 A 
BRANCH  15  21
ATOM     21  C   UNL     1      48.165   6.761  20.280  0.00  0.00    +0.000 C 
BRANCH  21  22
ATOM     22  N   UNL     1      47.172   5.789  20.717  0.00  0.00    +0.000 NA
ATOM     23  H   UNL     1      46.795   6.078  21.617  0.00  0.00    +0.000 HD
ATOM     24  H   UNL     1      47.635   4.894  20.869  0.00  0.00    +0.000 HD
ENDBRANCH  21  22
ENDBRANCH  15  21
ENDBRANCH  14  18
ENDBRANCH   1  14
TORSDOF 5
ENDMDL
