MODEL 1
REMARK VINA RESULT:    -8.946      0.000      0.000
REMARK INTER + INTRA:         -11.839
REMARK INTER:                 -11.038
REMARK INTRA:                  -0.801
REMARK UNBOUND:                -0.801
REMARK  Name = 
REMARK  4 active torsions:
REMARK  status: ('A' for Active; 'I' for Inactive)
REMARK    1  A    between atoms: C_2  and  C_4
REMARK    2  A    between atoms: N_8  and  C_9
REMARK    3  A    between atoms: C_9  and  C_10
REMARK    4  A    between atoms: C_14  and  C_15
REMARK                            x       y       z     vdW  Elec       q    Type
REMARK                         _______ _______ _______ _____ _____    ______ ____
ROOT
ATOM      1  C   UNL     1      46.339   2.289   7.701  0.00  0.00    +0.000 A 
ATOM      2  C   UNL     1      45.617   1.827   8.799  0.00  0.00    +0.000 A 
ATOM      3  C   UNL     1      44.770   2.706   9.477  0.00  0.00    +0.000 A 
ATOM      4  C   UNL     1      44.663   4.028   9.059  0.00  0.00    +0.000 A 
ATOM      5  N   UNL     1      43.808   4.944   9.621  0.00  0.00    +0.000 N 
ATOM      6  N   UNL     1      45.365   4.486   8.001  0.00  0.00    +0.000 NA
ATOM      7  C   UNL     1      46.188   3.621   7.352  0.00  0.00    +0.000 A 
ATOM      8  H   UNL     1      43.961   5.851   9.192  0.00  0.00    +0.000 HD
ENDROOT
BRANCH   1  10
ATOM      9  N   UNL     1      48.341   2.035   6.346  0.00  0.00    +0.000 N 
ATOM     10  C   UNL     1      47.251   1.436   6.915  0.00  0.00    +0.000 C 
ATOM     11  O   UNL     1      47.059   0.234   6.801  0.00  0.00    +0.000 OA
ATOM     12  H   UNL     1      49.008   1.418   5.897  0.00  0.00    +0.000 HD
ATOM     13  H   UNL     1      48.669   2.949   6.623  0.00  0.00    +0.000 HD
ENDBRANCH   1  10
BRANCH   5  14
ATOM     14  C   UNL     1      43.490   4.973  11.035  0.00  0.00    +0.000 C 
BRANCH  14  15
ATOM     15  C   UNL     1      44.671   5.167  11.965  0.00  0.00    +0.000 A 
ATOM     16  C   UNL     1      45.016   4.276  12.986  0.00  0.00    +0.000 A 
ATOM     17  C   UNL     1      46.136   4.516  13.782  0.00  0.00    +0.000 A 
ATOM     18  C   UNL     1      46.930   5.644  13.562  0.00  0.00    +0.000 A 
ATOM     19  C   UNL     1      46.637   6.556  12.535  0.00  0.00    +0.000 A 
ATOM     20  C   UNL     1      45.485   6.304  11.764  0.00  0.00    +0.000 A 
BRANCH  19  21
ATOM     21  C   UNL     1      47.535   7.697  12.242  0.00  0.00    +0.000 A 
ATOM     22  C   UNL     1      48.897   7.488  11.969  0.00  0.00    +0.000 A 
ATOM     23  C   UNL     1      49.713   8.571  11.676  0.00  0.00    +0.000 A 
ATOM     24  N   UNL     1      49.279   9.845  11.623  0.00  0.00    +0.000 NA
ATOM     25  C   UNL     1      47.971  10.041  11.882  0.00  0.00    +0.000 A 
ATOM     26  C   UNL     1      47.079   9.022  12.194  0.00  0.00    +0.000 A 
ENDBRANCH  19  21
ENDBRANCH  14  15
ENDBRANCH   5  14
TORSDOF 4
ENDMDL
MODEL 2
REMARK VINA RESULT:    -8.125      2.168      3.284
REMARK INTER + INTRA:         -10.827
REMARK INTER:                 -10.050
REMARK INTRA:                  -0.777
REMARK UNBOUND:                -0.801
REMARK  Name = 
REMARK  4 active torsions:
REMARK  status: ('A' for Active; 'I' for Inactive)
REMARK    1  A    between atoms: C_2  and  C_4
REMARK    2  A    between atoms: N_8  and  C_9
REMARK    3  A    between atoms: C_9  and  C_10
REMARK    4  A    between atoms: C_14  and  C_15
REMARK                            x       y       z     vdW  Elec       q    Type
REMARK                         _______ _______ _______ _____ _____    ______ ____
ROOT
ATOM      1  C   UNL     1      46.200   1.994   7.947  0.00  0.00    +0.000 A 
ATOM      2  C   UNL     1      45.494   1.737   9.120  0.00  0.00    +0.000 A 
ATOM      3  C   UNL     1      44.713   2.748   9.682  0.00  0.00    +0.000 A 
ATOM      4  C   UNL     1      44.654   3.997   9.075  0.00  0.00    +0.000 A 
ATOM      5  N   UNL     1      43.863   5.029   9.518  0.00  0.00    +0.000 N 
ATOM      6  N   UNL     1      45.341   4.258   7.943  0.00  0.00    +0.000 NA
ATOM      7  C   UNL     1      46.100   3.266   7.409  0.00  0.00    +0.000 A 
ATOM      8  H   UNL     1      44.044   5.854   8.954  0.00  0.00    +0.000 HD
ENDROOT
BRANCH   1  10
ATOM      9  N   UNL     1      46.818  -0.326   7.572  0.00  0.00    +0.000 N 
ATOM     10  C   UNL     1      47.044   0.990   7.273  0.00  0.00    +0.000 C 
ATOM     11  O   UNL     1      47.893   1.314   6.455  0.00  0.00    +0.000 OA
ATOM     12  H   UNL     1      47.336  -1.005   7.027  0.00  0.00    +0.000 HD
ATOM     13  H   UNL     1      45.978  -0.645   8.033  0.00  0.00    +0.000 HD
ENDBRANCH   1  10
BRANCH   5  14
ATOM     14  C   UNL     1      43.594   5.282  10.919  0.00  0.00    +0.000 C 
BRANCH  14  15
ATOM     15  C   UNL     1      44.647   6.089  11.651  0.00  0.00    +0.000 A 
ATOM     16  C   UNL     1      44.867   7.455  11.448  0.00  0.00    +0.000 A 
ATOM     17  C   UNL     1      45.841   8.128  12.184  0.00  0.00    +0.000 A 
ATOM     18  C   UNL     1      46.603   7.449  13.137  0.00  0.00    +0.000 A 
ATOM     19  C   UNL     1      46.404   6.082  13.393  0.00  0.00    +0.000 A 
ATOM     20  C   UNL     1      45.433   5.420  12.617  0.00  0.00    +0.000 A 
BRANCH  19  21
ATOM     21  C   UNL     1      47.144   5.387  14.472  0.00  0.00    +0.000 A 
ATOM     22  C   UNL     1      46.987   4.007  14.678  0.00  0.00    +0.000 A 
ATOM     23  C   UNL     1      47.708   3.375  15.680  0.00  0.00    +0.000 A 
ATOM     24  N   UNL     1      48.582   4.006  16.488  0.00  0.00    +0.000 NA
ATOM     25  C   UNL     1      48.733   5.330  16.284  0.00  0.00    +0.000 A 
ATOM     26  C   UNL     1      48.048   6.050  15.313  0.00  0.00    +0.000 A 
ENDBRANCH  19  21
ENDBRANCH  14  15
ENDBRANCH   5  14
TORSDOF 4
ENDMDL
MODEL 3
REMARK VINA RESULT:    -7.791      2.325      3.105
REMARK INTER + INTRA:         -10.414
REMARK INTER:                  -9.817
REMARK INTRA:                  -0.597
REMARK UNBOUND:                -0.801
REMARK  Name = 
REMARK  4 active torsions:
REMARK  status: ('A' for Active; 'I' for Inactive)
REMARK    1  A    between atoms: C_2  and  C_4
REMARK    2  A    between atoms: N_8  and  C_9
REMARK    3  A    between atoms: C_9  and  C_10
REMARK    4  A    between atoms: C_14  and  C_15
REMARK                            x       y       z     vdW  Elec       q    Type
REMARK                         _______ _______ _______ _____ _____    ______ ____
ROOT
ATOM      1  C   UNL     1      46.741   2.486   7.128  0.00  0.00    +0.000 A 
ATOM      2  C   UNL     1      46.393   3.702   7.712  0.00  0.00    +0.000 A 
ATOM      3  C   UNL     1      45.631   3.704   8.882  0.00  0.00    +0.000 A 
ATOM      4  C   UNL     1      45.220   2.501   9.444  0.00  0.00    +0.000 A 
ATOM      5  N   UNL     1      44.526   2.403  10.625  0.00  0.00    +0.000 N 
ATOM      6  N   UNL     1      45.545   1.319   8.881  0.00  0.00    +0.000 NA
ATOM      7  C   UNL     1      46.285   1.331   7.741  0.00  0.00    +0.000 A 
ATOM      8  H   UNL     1      44.283   1.431  10.791  0.00  0.00    +0.000 HD
ENDROOT
BRANCH   1  10
ATOM      9  N   UNL     1      47.351   3.324   4.930  0.00  0.00    +0.000 N 
ATOM     10  C   UNL     1      47.550   2.381   5.900  0.00  0.00    +0.000 C 
ATOM     11  O   UNL     1      48.390   1.503   5.763  0.00  0.00    +0.000 OA
ATOM     12  H   UNL     1      47.984   3.296   4.140  0.00  0.00    +0.000 HD
ATOM     13  H   UNL     1      46.866   4.193   5.105  0.00  0.00    +0.000 HD
ENDBRANCH   1  10
BRANCH   5  14
ATOM     14  C   UNL     1      43.534   3.371  11.049  0.00  0.00    +0.000 C 
BRANCH  14  15
ATOM     15  C   UNL     1      44.084   4.686  11.563  0.00  0.00    +0.000 A 
ATOM     16  C   UNL     1      43.553   5.938  11.234  0.00  0.00    +0.000 A 
ATOM     17  C   UNL     1      44.104   7.100  11.773  0.00  0.00    +0.000 A 
ATOM     18  C   UNL     1      45.185   7.027  12.654  0.00  0.00    +0.000 A 
ATOM     19  C   UNL     1      45.739   5.792  13.032  0.00  0.00    +0.000 A 
ATOM     20  C   UNL     1      45.181   4.637  12.452  0.00  0.00    +0.000 A 
BRANCH  19  21
ATOM     21  C   UNL     1      46.821   5.713  14.040  0.00  0.00    +0.000 A 
ATOM     22  C   UNL     1      47.816   6.702  14.106  0.00  0.00    +0.000 A 
ATOM     23  C   UNL     1      48.806   6.618  15.073  0.00  0.00    +0.000 A 
ATOM     24  N   UNL     1      48.879   5.631  15.988  0.00  0.00    +0.000 NA
ATOM     25  C   UNL     1      47.921   4.686  15.923  0.00  0.00    +0.000 A 
ATOM     26  C   UNL     1      46.896   4.681  14.986  0.00  0.00    +0.000 A 
ENDBRANCH  19  21
ENDBRANCH  14  15
ENDBRANCH   5  14
TORSDOF 4
ENDMDL
MODEL 4
REMARK VINA RESULT:    -7.312      3.194      7.224
REMARK INTER + INTRA:          -9.823
REMARK INTER:                  -9.336
REMARK INTRA:                  -0.487
REMARK UNBOUND:                -0.801
REMARK  Name = 
REMARK  4 active torsions:
REMARK  status: ('A' for Active; 'I' for Inactive)
REMARK    1  A    between atoms: C_2  and  C_4
REMARK    2  A    between atoms: N_8  and  C_9
REMARK    3  A    between atoms: C_9  and  C_10
REMARK    4  A    between atoms: C_14  and  C_15
REMARK                            x       y       z     vdW  Elec       q    Type
REMARK                         _______ _______ _______ _____ _____    ______ ____
ROOT
ATOM      1  C   UNL     1      47.947   5.518  15.343  0.00  0.00    +0.000 A 
ATOM      2  C   UNL     1      46.996   4.699  14.737  0.00  0.00    +0.000 A 
ATOM      3  C   UNL     1      46.415   5.105  13.534  0.00  0.00    +0.000 A 
ATOM      4  C   UNL     1      46.779   6.318  12.962  0.00  0.00    +0.000 A 
ATOM      5  N   UNL     1      46.311   6.768  11.751  0.00  0.00    +0.000 N 
ATOM      6  N   UNL     1      47.693   7.121  13.546  0.00  0.00    +0.000 NA
ATOM      7  C   UNL     1      48.249   6.715  14.718  0.00  0.00    +0.000 A 
ATOM      8  H   UNL     1      46.667   7.703  11.581  0.00  0.00    +0.000 HD
ENDROOT
BRANCH   1  10
ATOM      9  N   UNL     1      48.612   6.107  17.606  0.00  0.00    +0.000 N 
ATOM     10  C   UNL     1      48.623   5.172  16.607  0.00  0.00    +0.000 C 
ATOM     11  O   UNL     1      49.149   4.080  16.772  0.00  0.00    +0.000 OA
ATOM     12  H   UNL     1      48.991   5.815  18.498  0.00  0.00    +0.000 HD
ATOM     13  H   UNL     1      47.984   6.898  17.605  0.00  0.00    +0.000 HD
ENDBRANCH   1  10
BRANCH   5  14
ATOM     14  C   UNL     1      44.964   6.522  11.278  0.00  0.00    +0.000 C 
BRANCH  14  15
ATOM     15  C   UNL     1      44.660   5.089  10.889  0.00  0.00    +0.000 A 
ATOM     16  C   UNL     1      43.665   4.310  11.488  0.00  0.00    +0.000 A 
ATOM     17  C   UNL     1      43.432   3.007  11.051  0.00  0.00    +0.000 A 
ATOM     18  C   UNL     1      44.184   2.467  10.005  0.00  0.00    +0.000 A 
ATOM     19  C   UNL     1      45.179   3.217   9.357  0.00  0.00    +0.000 A 
ATOM     20  C   UNL     1      45.412   4.521   9.836  0.00  0.00    +0.000 A 
BRANCH  19  21
ATOM     21  C   UNL     1      45.907   2.677   8.185  0.00  0.00    +0.000 A 
ATOM     22  C   UNL     1      46.175   3.487   7.070  0.00  0.00    +0.000 A 
ATOM     23  C   UNL     1      46.877   2.965   5.994  0.00  0.00    +0.000 A 
ATOM     24  N   UNL     1      47.344   1.701   5.945  0.00  0.00    +0.000 NA
ATOM     25  C   UNL     1      47.088   0.929   7.019  0.00  0.00    +0.000 A 
ATOM     26  C   UNL     1      46.385   1.360   8.137  0.00  0.00    +0.000 A 
ENDBRANCH  19  21
ENDBRANCH  14  15
ENDBRANCH   5  14
TORSDOF 4
ENDMDL
MODEL 5
REMARK VINA RESULT:    -7.103      1.845      2.724
REMARK INTER + INTRA:          -9.565
REMARK INTER:                  -8.910
REMARK INTRA:                  -0.655
REMARK UNBOUND:                -0.801
REMARK  Name = 
REMARK  4 active torsions:
REMARK  status: ('A' for Active; 'I' for Inactive)
REMARK    1  A    between atoms: C_2  and  C_4
REMARK    2  A    between atoms: N_8  and  C_9
REMARK    3  A    between atoms: C_9  and  C_10
REMARK    4  A    between atoms: C_14  and  C_15
REMARK                            x       y       z     vdW  Elec       q    Type
REMARK                         _______ _______ _______ _____ _____    ______ ____
ROOT
ATOM      1  C   UNL     1      46.496   2.801   7.483  0.00  0.00    +0.000 A 
ATOM      2  C   UNL     1      46.400   4.161   7.770  0.00  0.00    +0.000 A 
ATOM      3  C   UNL     1      45.644   4.575   8.868  0.00  0.00    +0.000 A 
ATOM      4  C   UNL     1      44.988   3.633   9.653  0.00  0.00    +0.000 A 
ATOM      5  N   UNL     1      44.278   3.941  10.788  0.00  0.00    +0.000 N 
ATOM      6  N   UNL     1      45.069   2.315   9.379  0.00  0.00    +0.000 NA
ATOM      7  C   UNL     1      45.806   1.926   8.305  0.00  0.00    +0.000 A 
ATOM      8  H   UNL     1      43.839   3.098  11.146  0.00  0.00    +0.000 HD
ENDROOT
BRANCH   1  10
ATOM      9  N   UNL     1      47.215   2.941   5.166  0.00  0.00    +0.000 N 
ATOM     10  C   UNL     1      47.278   2.265   6.353  0.00  0.00    +0.000 C 
ATOM     11  O   UNL     1      47.982   1.273   6.478  0.00  0.00    +0.000 OA
ATOM     12  H   UNL     1      47.835   2.619   4.433  0.00  0.00    +0.000 HD
ATOM     13  H   UNL     1      46.861   3.885   5.093  0.00  0.00    +0.000 HD
ENDBRANCH   1  10
BRANCH   5  14
ATOM     14  C   UNL     1      43.502   5.156  10.937  0.00  0.00    +0.000 C 
BRANCH  14  15
ATOM     15  C   UNL     1      44.282   6.379  11.375  0.00  0.00    +0.000 A 
ATOM     16  C   UNL     1      43.927   7.692  11.050  0.00  0.00    +0.000 A 
ATOM     17  C   UNL     1      44.686   8.763  11.518  0.00  0.00    +0.000 A 
ATOM     18  C   UNL     1      45.805   8.539  12.323  0.00  0.00    +0.000 A 
ATOM     19  C   UNL     1      46.189   7.240  12.696  0.00  0.00    +0.000 A 
ATOM     20  C   UNL     1      45.421   6.175  12.187  0.00  0.00    +0.000 A 
BRANCH  19  21
ATOM     21  C   UNL     1      47.317   7.011  13.629  0.00  0.00    +0.000 A 
ATOM     22  C   UNL     1      47.398   5.827  14.380  0.00  0.00    +0.000 A 
ATOM     23  C   UNL     1      48.475   5.626  15.231  0.00  0.00    +0.000 A 
ATOM     24  N   UNL     1      49.484   6.506  15.385  0.00  0.00    +0.000 NA
ATOM     25  C   UNL     1      49.404   7.638  14.658  0.00  0.00    +0.000 A 
ATOM     26  C   UNL     1      48.361   7.932  13.789  0.00  0.00    +0.000 A 
ENDBRANCH  19  21
ENDBRANCH  14  15
ENDBRANCH   5  14
TORSDOF 4
ENDMDL
MODEL 6
REMARK VINA RESULT:    -6.568      5.693      7.324
REMARK INTER + INTRA:          -8.905
REMARK INTER:                  -8.268
REMARK INTRA:                  -0.637
REMARK UNBOUND:                -0.801
REMARK  Name = 
REMARK  4 active torsions:
REMARK  status: ('A' for Active; 'I' for Inactive)
REMARK    1  A    between atoms: C_2  and  C_4
REMARK    2  A    between atoms: N_8  and  C_9
REMARK    3  A    between atoms: C_9  and  C_10
REMARK    4  A    between atoms: C_14  and  C_15
REMARK                            x       y       z     vdW  Elec       q    Type
REMARK                         _______ _______ _______ _____ _____    ______ ____
ROOT
ATOM      1  C   UNL     1      45.485   4.682  11.516  0.00  0.00    +0.000 A 
ATOM      2  C   UNL     1      46.080   5.670  12.297  0.00  0.00    +0.000 A 
ATOM      3  C   UNL     1      46.633   5.323  13.531  0.00  0.00    +0.000 A 
ATOM      4  C   UNL     1      46.577   4.005  13.970  0.00  0.00    +0.000 A 
ATOM      5  N   UNL     1      47.151   3.559  15.135  0.00  0.00    +0.000 N 
ATOM      6  N   UNL     1      45.995   3.043  13.223  0.00  0.00    +0.000 NA
ATOM      7  C   UNL     1      45.458   3.395  12.025  0.00  0.00    +0.000 A 
ATOM      8  H   UNL     1      46.917   2.580  15.270  0.00  0.00    +0.000 HD
ENDROOT
BRANCH   1  10
ATOM      9  N   UNL     1      45.671   5.548   9.252  0.00  0.00    +0.000 N 
ATOM     10  C   UNL     1      44.883   4.949  10.196  0.00  0.00    +0.000 C 
ATOM     11  O   UNL     1      43.733   4.619   9.941  0.00  0.00    +0.000 OA
ATOM     12  H   UNL     1      45.275   5.631   8.323  0.00  0.00    +0.000 HD
ATOM     13  H   UNL     1      46.676   5.600   9.333  0.00  0.00    +0.000 HD
ENDBRANCH   1  10
BRANCH   5  14
ATOM     14  C   UNL     1      47.215   4.353  16.346  0.00  0.00    +0.000 C 
BRANCH  14  15
ATOM     15  C   UNL     1      48.604   4.787  16.768  0.00  0.00    +0.000 A 
ATOM     16  C   UNL     1      48.989   6.120  16.939  0.00  0.00    +0.000 A 
ATOM     17  C   UNL     1      50.282   6.432  17.356  0.00  0.00    +0.000 A 
ATOM     18  C   UNL     1      51.205   5.417  17.616  0.00  0.00    +0.000 A 
ATOM     19  C   UNL     1      50.860   4.062  17.481  0.00  0.00    +0.000 A 
ATOM     20  C   UNL     1      49.556   3.776  17.032  0.00  0.00    +0.000 A 
BRANCH  19  21
ATOM     21  C   UNL     1      51.810   2.987  17.851  0.00  0.00    +0.000 A 
ATOM     22  C   UNL     1      52.939   3.266  18.637  0.00  0.00    +0.000 A 
ATOM     23  C   UNL     1      53.802   2.239  18.990  0.00  0.00    +0.000 A 
ATOM     24  N   UNL     1      53.624   0.953  18.628  0.00  0.00    +0.000 NA
ATOM     25  C   UNL     1      52.537   0.690  17.876  0.00  0.00    +0.000 A 
ATOM     26  C   UNL     1      51.623   1.652  17.467  0.00  0.00    +0.000 A 
ENDBRANCH  19  21
ENDBRANCH  14  15
ENDBRANCH   5  14
TORSDOF 4
ENDMDL
MODEL 7
REMARK VINA RESULT:    -6.485      5.396      8.131
REMARK INTER + INTRA:          -8.803
REMARK INTER:                  -8.166
REMARK INTRA:                  -0.637
REMARK UNBOUND:                -0.801
REMARK  Name = 
REMARK  4 active torsions:
REMARK  status: ('A' for Active; 'I' for Inactive)
REMARK    1  A    between atoms: C_2  and  C_4
REMARK    2  A    between atoms: N_8  and  C_9
REMARK    3  A    between atoms: C_9  and  C_10
REMARK    4  A    between atoms: C_14  and  C_15
REMARK                            x       y       z     vdW  Elec       q    Type
REMARK                         _______ _______ _______ _____ _____    ______ ____
ROOT
ATOM      1  C   UNL     1      51.285   2.483  17.448  0.00  0.00    +0.000 A 
ATOM      2  C   UNL     1      51.658   3.822  17.532  0.00  0.00    +0.000 A 
ATOM      3  C   UNL     1      50.729   4.811  17.203  0.00  0.00    +0.000 A 
ATOM      4  C   UNL     1      49.452   4.451  16.787  0.00  0.00    +0.000 A 
ATOM      5  N   UNL     1      48.453   5.353  16.507  0.00  0.00    +0.000 N 
ATOM      6  N   UNL     1      49.084   3.156  16.696  0.00  0.00    +0.000 NA
ATOM      7  C   UNL     1      50.000   2.204  17.016  0.00  0.00    +0.000 A 
ATOM      8  H   UNL     1      47.640   4.853  16.161  0.00  0.00    +0.000 HD
ENDROOT
BRANCH   1  10
ATOM      9  N   UNL     1      51.622   0.169  18.113  0.00  0.00    +0.000 N 
ATOM     10  C   UNL     1      52.192   1.368  17.783  0.00  0.00    +0.000 C 
ATOM     11  O   UNL     1      53.407   1.498  17.739  0.00  0.00    +0.000 OA
ATOM     12  H   UNL     1      52.257  -0.609  18.241  0.00  0.00    +0.000 HD
ATOM     13  H   UNL     1      50.655  -0.049  17.916  0.00  0.00    +0.000 HD
ENDBRANCH   1  10
BRANCH   5  14
ATOM     14  C   UNL     1      48.695   6.644  15.896  0.00  0.00    +0.000 C 
BRANCH  14  15
ATOM     15  C   UNL     1      48.323   6.752  14.431  0.00  0.00    +0.000 A 
ATOM     16  C   UNL     1      49.093   7.422  13.475  0.00  0.00    +0.000 A 
ATOM     17  C   UNL     1      48.691   7.451  12.141  0.00  0.00    +0.000 A 
ATOM     18  C   UNL     1      47.520   6.803  11.741  0.00  0.00    +0.000 A 
ATOM     19  C   UNL     1      46.725   6.097  12.659  0.00  0.00    +0.000 A 
ATOM     20  C   UNL     1      47.139   6.107  14.005  0.00  0.00    +0.000 A 
BRANCH  19  21
ATOM     21  C   UNL     1      45.537   5.330  12.216  0.00  0.00    +0.000 A 
ATOM     22  C   UNL     1      44.559   5.926  11.403  0.00  0.00    +0.000 A 
ATOM     23  C   UNL     1      43.468   5.181  10.982  0.00  0.00    +0.000 A 
ATOM     24  N   UNL     1      43.278   3.885  11.299  0.00  0.00    +0.000 NA
ATOM     25  C   UNL     1      44.221   3.316  12.075  0.00  0.00    +0.000 A 
ATOM     26  C   UNL     1      45.342   3.984  12.552  0.00  0.00    +0.000 A 
ENDBRANCH  19  21
ENDBRANCH  14  15
ENDBRANCH   5  14
TORSDOF 4
ENDMDL
MODEL 8
REMARK VINA RESULT:    -6.155      5.279      8.698
REMARK INTER + INTRA:          -8.395
REMARK INTER:                  -7.889
REMARK INTRA:                  -0.506
REMARK UNBOUND:                -0.801
REMARK  Name = 
REMARK  4 active torsions:
REMARK  status: ('A' for Active; 'I' for Inactive)
REMARK    1  A    between atoms: C_2  and  C_4
REMARK    2  A    between atoms: N_8  and  C_9
REMARK    3  A    between atoms: C_9  and  C_10
REMARK    4  A    between atoms: C_14  and  C_15
REMARK                            x       y       z     vdW  Elec       q    Type
REMARK                         _______ _______ _______ _____ _____    ______ ____
ROOT
ATOM      1  C   UNL     1      49.612   5.573  18.889  0.00  0.00    +0.000 A 
ATOM      2  C   UNL     1      49.159   6.824  18.475  0.00  0.00    +0.000 A 
ATOM      3  C   UNL     1      48.650   6.972  17.184  0.00  0.00    +0.000 A 
ATOM      4  C   UNL     1      48.610   5.880  16.325  0.00  0.00    +0.000 A 
ATOM      5  N   UNL     1      48.068   5.915  15.063  0.00  0.00    +0.000 N 
ATOM      6  N   UNL     1      49.054   4.667  16.714  0.00  0.00    +0.000 NA
ATOM      7  C   UNL     1      49.549   4.537  17.973  0.00  0.00    +0.000 A 
ATOM      8  H   UNL     1      48.218   5.019  14.610  0.00  0.00    +0.000 HD
ENDROOT
BRANCH   1  10
ATOM      9  N   UNL     1      49.513   4.388  21.009  0.00  0.00    +0.000 N 
ATOM     10  C   UNL     1      50.156   5.315  20.235  0.00  0.00    +0.000 C 
ATOM     11  O   UNL     1      51.162   5.883  20.637  0.00  0.00    +0.000 OA
ATOM     12  H   UNL     1      49.958   4.150  21.887  0.00  0.00    +0.000 HD
ATOM     13  H   UNL     1      48.851   3.726  20.630  0.00  0.00    +0.000 HD
ENDBRANCH   1  10
BRANCH   5  14
ATOM     14  C   UNL     1      48.150   7.071  14.193  0.00  0.00    +0.000 C 
BRANCH  14  15
ATOM     15  C   UNL     1      46.985   7.256  13.241  0.00  0.00    +0.000 A 
ATOM     16  C   UNL     1      46.281   8.454  13.089  0.00  0.00    +0.000 A 
ATOM     17  C   UNL     1      45.237   8.546  12.170  0.00  0.00    +0.000 A 
ATOM     18  C   UNL     1      44.888   7.445  11.384  0.00  0.00    +0.000 A 
ATOM     19  C   UNL     1      45.580   6.227  11.484  0.00  0.00    +0.000 A 
ATOM     20  C   UNL     1      46.612   6.153  12.440  0.00  0.00    +0.000 A 
BRANCH  19  21
ATOM     21  C   UNL     1      45.272   5.093  10.582  0.00  0.00    +0.000 A 
ATOM     22  C   UNL     1      44.568   3.972  11.051  0.00  0.00    +0.000 A 
ATOM     23  C   UNL     1      44.272   2.933  10.182  0.00  0.00    +0.000 A 
ATOM     24  N   UNL     1      44.613   2.925   8.878  0.00  0.00    +0.000 NA
ATOM     25  C   UNL     1      45.284   4.005   8.431  0.00  0.00    +0.000 A 
ATOM     26  C   UNL     1      45.633   5.088   9.228  0.00  0.00    +0.000 A 
ENDBRANCH  19  21
ENDBRANCH  14  15
ENDBRANCH   5  14
TORSDOF 4
ENDMDL
MODEL 9
REMARK VINA RESULT:    -6.051      2.889      5.140
REMARK INTER + INTRA:          -8.268
REMARK INTER:                  -7.558
REMARK INTRA:                  -0.710
REMARK UNBOUND:                -0.801
REMARK  Name = 
REMARK  4 active torsions:
REMARK  status: ('A' for Active; 'I' for Inactive)
REMARK    1  A    between atoms: C_2  and  C_4
REMARK    2  A    between atoms: N_8  and  C_9
REMARK    3  A    between atoms: C_9  and  C_10
REMARK    4  A    between atoms: C_14  and  C_15
REMARK                            x       y       z     vdW  Elec       q    Type
REMARK                         _______ _______ _______ _____ _____    ______ ____
ROOT
ATOM      1  C   UNL     1      44.774   4.155  11.506  0.00  0.00    +0.000 A 
ATOM      2  C   UNL     1      44.885   5.375  10.843  0.00  0.00    +0.000 A 
ATOM      3  C   UNL     1      45.526   6.441  11.478  0.00  0.00    +0.000 A 
ATOM      4  C   UNL     1      46.035   6.278  12.762  0.00  0.00    +0.000 A 
ATOM      5  N   UNL     1      46.736   7.247  13.438  0.00  0.00    +0.000 N 
ATOM      6  N   UNL     1      45.924   5.103  13.414  0.00  0.00    +0.000 NA
ATOM      7  C   UNL     1      45.296   4.075  12.786  0.00  0.00    +0.000 A 
ATOM      8  H   UNL     1      46.942   6.917  14.376  0.00  0.00    +0.000 HD
ENDROOT
BRANCH   1  10
ATOM      9  N   UNL     1      44.791   2.318   9.915  0.00  0.00    +0.000 N 
ATOM     10  C   UNL     1      44.124   2.970  10.915  0.00  0.00    +0.000 C 
ATOM     11  O   UNL     1      43.045   2.564  11.323  0.00  0.00    +0.000 OA
ATOM     12  H   UNL     1      44.379   1.451   9.592  0.00  0.00    +0.000 HD
ATOM     13  H   UNL     1      45.774   2.461   9.730  0.00  0.00    +0.000 HD
ENDBRANCH   1  10
BRANCH   5  14
ATOM     14  C   UNL     1      46.448   8.662  13.327  0.00  0.00    +0.000 C 
BRANCH  14  15
ATOM     15  C   UNL     1      47.383   9.451  12.432  0.00  0.00    +0.000 A 
ATOM     16  C   UNL     1      47.067  10.692  11.870  0.00  0.00    +0.000 A 
ATOM     17  C   UNL     1      47.998  11.364  11.078  0.00  0.00    +0.000 A 
ATOM     18  C   UNL     1      49.258  10.809  10.844  0.00  0.00    +0.000 A 
ATOM     19  C   UNL     1      49.630   9.576  11.404  0.00  0.00    +0.000 A 
ATOM     20  C   UNL     1      48.662   8.906  12.177  0.00  0.00    +0.000 A 
BRANCH  19  21
ATOM     21  C   UNL     1      51.000   9.038  11.234  0.00  0.00    +0.000 A 
ATOM     22  C   UNL     1      51.209   7.773  10.662  0.00  0.00    +0.000 A 
ATOM     23  C   UNL     1      52.502   7.300  10.492  0.00  0.00    +0.000 A 
ATOM     24  N   UNL     1      53.605   7.992  10.840  0.00  0.00    +0.000 NA
ATOM     25  C   UNL     1      53.400   9.207  11.386  0.00  0.00    +0.000 A 
ATOM     26  C   UNL     1      52.144   9.760  11.603  0.00  0.00    +0.000 A 
ENDBRANCH  19  21
ENDBRANCH  14  15
ENDBRANCH   5  14
TORSDOF 4
ENDMDL
