MODEL 1
REMARK VINA RESULT:    -7.001      0.000      0.000
REMARK INTER + INTRA:          -9.601
REMARK INTER:                  -9.048
REMARK INTRA:                  -0.553
REMARK UNBOUND:                -0.553
REMARK  Name = 
REMARK  7 active torsions:
REMARK  status: ('A' for Active; 'I' for Inactive)
REMARK    1  A    between atoms: C_1  and  C_2
REMARK    2  A    between atoms: C_2  and  C_3
REMARK    3  A    between atoms: C_2  and  C_17
REMARK    4  A    between atoms: C_3  and  N_4
REMARK    5  A    between atoms: C_9  and  O_10
REMARK    6  A    between atoms: O_10  and  C_11
REMARK    7  A    between atoms: N_13  and  C_14
REMARK                            x       y       z     vdW  Elec       q    Type
REMARK                         _______ _______ _______ _____ _____    ______ ____
ROOT
ATOM      1  N   UNL     1      45.663   5.343  11.808  0.00  0.00    +0.000 N 
ATOM      2  C   UNL     1      46.512   5.638  12.891  0.00  0.00    +0.000 A 
ATOM      3  C   UNL     1      47.098   6.901  12.951  0.00  0.00    +0.000 A 
ATOM      4  C   UNL     1      47.972   7.203  13.993  0.00  0.00    +0.000 A 
ATOM      5  C   UNL     1      48.238   6.238  14.955  0.00  0.00    +0.000 A 
ATOM      6  C   UNL     1      47.607   5.016  14.828  0.00  0.00    +0.000 A 
ATOM      7  N   UNL     1      46.766   4.700  13.824  0.00  0.00    +0.000 NA
ATOM      8  H   UNL     1      44.904   6.019  11.794  0.00  0.00    +0.000 HD
ENDROOT
BRANCH   1   9
ATOM      9  C   UNL     1      45.197   3.953  11.796  0.00  0.00    +0.000 C 
BRANCH   9  11
ATOM     10  C   UNL     1      43.376   4.814  10.213  0.00  0.00    +0.000 C 
ATOM     11  C   UNL     1      44.318   3.654  10.560  0.00  0.00    +0.000 C 
BRANCH  11  12
ATOM     12  C   UNL     1      45.187   3.297   9.359  0.00  0.00    +0.000 A 
ATOM     13  C   UNL     1      45.501   1.957   9.090  0.00  0.00    +0.000 A 
ATOM     14  C   UNL     1      46.296   1.620   7.990  0.00  0.00    +0.000 A 
ATOM     15  C   UNL     1      46.783   2.621   7.151  0.00  0.00    +0.000 A 
ATOM     16 CL   UNL     1      47.755   2.205   5.794  0.00  0.00    +0.000 Cl
ATOM     17  C   UNL     1      46.486   3.956   7.404  0.00  0.00    +0.000 A 
ATOM     18  C   UNL     1      45.690   4.293   8.501  0.00  0.00    +0.000 A 
ENDBRANCH  11  12
ENDBRANCH   9  11
ENDBRANCH   1   9
BRANCH   6  19
ATOM     19  O   UNL     1      47.863   4.065  15.797  0.00  0.00    +0.000 OA
BRANCH  19  20
ATOM     20  C   UNL     1      48.503   4.567  16.996  0.00  0.00    +0.000 C 
ATOM     21  C   UNL     1      49.292   3.543  17.848  0.00  0.00    +0.000 C 
ATOM     22  N   UNL     1      48.626   4.041  19.073  0.00  0.00    +0.000 NA
ATOM     23  C   UNL     1      49.468   5.033  19.741  0.00  0.00    +0.000 C 
ATOM     24  C   UNL     1      47.598   4.702  18.239  0.00  0.00    +0.000 C 
ENDBRANCH  19  20
ENDBRANCH   6  19
TORSDOF 5
ENDMDL
MODEL 2
REMARK VINA RESULT:    -6.879      0.428      1.094
REMARK INTER + INTRA:          -9.444
REMARK INTER:                  -8.864
REMARK INTRA:                  -0.580
REMARK UNBOUND:                -0.553
REMARK  Name = 
REMARK  7 active torsions:
REMARK  status: ('A' for Active; 'I' for Inactive)
REMARK    1  A    between atoms: C_1  and  C_2
REMARK    2  A    between atoms: C_2  and  C_3
REMARK    3  A    between atoms: C_2  and  C_17
REMARK    4  A    between atoms: C_3  and  N_4
REMARK    5  A    between atoms: C_9  and  O_10
REMARK    6  A    between atoms: O_10  and  C_11
REMARK    7  A    between atoms: N_13  and  C_14
REMARK                            x       y       z     vdW  Elec       q    Type
REMARK                         _______ _______ _______ _____ _____    ______ ____
ROOT
ATOM      1  N   UNL     1      45.717   5.638  12.091  0.00  0.00    +0.000 N 
ATOM      2  C   UNL     1      46.630   5.934  13.121  0.00  0.00    +0.000 A 
ATOM      3  C   UNL     1      47.205   7.203  13.153  0.00  0.00    +0.000 A 
ATOM      4  C   UNL     1      48.141   7.507  14.141  0.00  0.00    +0.000 A 
ATOM      5  C   UNL     1      48.475   6.538  15.077  0.00  0.00    +0.000 A 
ATOM      6  C   UNL     1      47.850   5.310  14.980  0.00  0.00    +0.000 A 
ATOM      7  N   UNL     1      46.950   4.993  14.028  0.00  0.00    +0.000 NA
ATOM      8  H   UNL     1      44.953   6.306  12.130  0.00  0.00    +0.000 HD
ENDROOT
BRANCH   1   9
ATOM      9  C   UNL     1      45.265   4.243  12.097  0.00  0.00    +0.000 C 
BRANCH   9  11
ATOM     10  C   UNL     1      43.356   5.150  10.649  0.00  0.00    +0.000 C 
ATOM     11  C   UNL     1      44.273   3.958  10.947  0.00  0.00    +0.000 C 
BRANCH  11  12
ATOM     12  C   UNL     1      45.023   3.536   9.687  0.00  0.00    +0.000 A 
ATOM     13  C   UNL     1      45.496   4.505   8.790  0.00  0.00    +0.000 A 
ATOM     14  C   UNL     1      46.186   4.127   7.634  0.00  0.00    +0.000 A 
ATOM     15  C   UNL     1      46.407   2.778   7.366  0.00  0.00    +0.000 A 
ATOM     16 CL   UNL     1      47.263   2.315   5.947  0.00  0.00    +0.000 Cl
ATOM     17  C   UNL     1      45.942   1.802   8.240  0.00  0.00    +0.000 A 
ATOM     18  C   UNL     1      45.255   2.179   9.397  0.00  0.00    +0.000 A 
ENDBRANCH  11  12
ENDBRANCH   9  11
ENDBRANCH   1   9
BRANCH   6  19
ATOM     19  O   UNL     1      48.175   4.355  15.924  0.00  0.00    +0.000 OA
BRANCH  19  20
ATOM     20  C   UNL     1      48.624   4.878  17.198  0.00  0.00    +0.000 C 
ATOM     21  C   UNL     1      49.455   3.926  18.092  0.00  0.00    +0.000 C 
ATOM     22  N   UNL     1      48.614   4.277  19.259  0.00  0.00    +0.000 NA
ATOM     23  C   UNL     1      49.250   5.337  20.042  0.00  0.00    +0.000 C 
ATOM     24  C   UNL     1      47.594   4.840  18.346  0.00  0.00    +0.000 C 
ENDBRANCH  19  20
ENDBRANCH   6  19
TORSDOF 5
ENDMDL
MODEL 3
REMARK VINA RESULT:    -6.840      2.279      4.191
REMARK INTER + INTRA:          -9.392
REMARK INTER:                  -8.750
REMARK INTRA:                  -0.642
REMARK UNBOUND:                -0.553
REMARK  Name = 
REMARK  7 active torsions:
REMARK  status: ('A' for Active; 'I' for Inactive)
REMARK    1  A    between atoms: C_1  and  C_2
REMARK    2  A    between atoms: C_2  and  C_3
REMARK    3  A    between atoms: C_2  and  C_17
REMARK    4  A    between atoms: C_3  and  N_4
REMARK    5  A    between atoms: C_9  and  O_10
REMARK    6  A    between atoms: O_10  and  C_11
REMARK    7  A    between atoms: N_13  and  C_14
REMARK                            x       y       z     vdW  Elec       q    Type
REMARK                         _______ _______ _______ _____ _____    ______ ____
ROOT
ATOM      1  N   UNL     1      45.761   4.129  13.567  0.00  0.00    +0.000 N 
ATOM      2  C   UNL     1      46.754   4.817  14.290  0.00  0.00    +0.000 A 
ATOM      3  C   UNL     1      47.133   4.320  15.535  0.00  0.00    +0.000 A 
ATOM      4  C   UNL     1      48.087   5.006  16.285  0.00  0.00    +0.000 A 
ATOM      5  C   UNL     1      48.643   6.169  15.772  0.00  0.00    +0.000 A 
ATOM      6  C   UNL     1      48.221   6.586  14.525  0.00  0.00    +0.000 A 
ATOM      7  N   UNL     1      47.293   5.943  13.787  0.00  0.00    +0.000 NA
ATOM      8  H   UNL     1      46.067   3.171  13.421  0.00  0.00    +0.000 HD
ENDROOT
BRANCH   1   9
ATOM      9  C   UNL     1      45.369   4.805  12.327  0.00  0.00    +0.000 C 
BRANCH   9  11
ATOM     10  C   UNL     1      43.001   4.577  11.374  0.00  0.00    +0.000 C 
ATOM     11  C   UNL     1      44.394   3.946  11.489  0.00  0.00    +0.000 C 
BRANCH  11  12
ATOM     12  C   UNL     1      44.973   3.680  10.104  0.00  0.00    +0.000 A 
ATOM     13  C   UNL     1      45.442   4.744   9.319  0.00  0.00    +0.000 A 
ATOM     14  C   UNL     1      45.976   4.508   8.048  0.00  0.00    +0.000 A 
ATOM     15  C   UNL     1      46.045   3.208   7.553  0.00  0.00    +0.000 A 
ATOM     16 CL   UNL     1      46.709   2.919   5.992  0.00  0.00    +0.000 Cl
ATOM     17  C   UNL     1      45.581   2.140   8.314  0.00  0.00    +0.000 A 
ATOM     18  C   UNL     1      45.050   2.374   9.584  0.00  0.00    +0.000 A 
ENDBRANCH  11  12
ENDBRANCH   9  11
ENDBRANCH   1   9
BRANCH   6  19
ATOM     19  O   UNL     1      48.790   7.735  14.012  0.00  0.00    +0.000 OA
BRANCH  19  20
ATOM     20  C   UNL     1      49.768   7.522  12.965  0.00  0.00    +0.000 C 
ATOM     21  C   UNL     1      50.915   8.557  12.857  0.00  0.00    +0.000 C 
ATOM     22  N   UNL     1      50.695   8.657  11.396  0.00  0.00    +0.000 NA
ATOM     23  C   UNL     1      51.617   7.773  10.683  0.00  0.00    +0.000 C 
ATOM     24  C   UNL     1      49.372   8.014  11.558  0.00  0.00    +0.000 C 
ENDBRANCH  19  20
ENDBRANCH   6  19
TORSDOF 5
ENDMDL
MODEL 4
REMARK VINA RESULT:    -6.791      3.730      4.750
REMARK INTER + INTRA:          -9.330
REMARK INTER:                  -8.559
REMARK INTRA:                  -0.770
REMARK UNBOUND:                -0.553
REMARK  Name = 
REMARK  7 active torsions:
REMARK  status: ('A' for Active; 'I' for Inactive)
REMARK    1  A    between atoms: C_1  and  C_2
REMARK    2  A    between atoms: C_2  and  C_3
REMARK    3  A    between atoms: C_2  and  C_17
REMARK    4  A    between atoms: C_3  and  N_4
REMARK    5  A    between atoms: C_9  and  O_10
REMARK    6  A    between atoms: O_10  and  C_11
REMARK    7  A    between atoms: N_13  and  C_14
REMARK                            x       y       z     vdW  Elec       q    Type
REMARK                         _______ _______ _______ _____ _____    ______ ____
ROOT
ATOM      1  N   UNL     1      44.589   6.697  12.861  0.00  0.00    +0.000 N 
ATOM      2  C   UNL     1      45.709   7.519  12.633  0.00  0.00    +0.000 A 
ATOM      3  C   UNL     1      45.514   8.896  12.541  0.00  0.00    +0.000 A 
ATOM      4  C   UNL     1      46.603   9.726  12.278  0.00  0.00    +0.000 A 
ATOM      5  C   UNL     1      47.861   9.162  12.117  0.00  0.00    +0.000 A 
ATOM      6  C   UNL     1      47.968   7.790  12.235  0.00  0.00    +0.000 A 
ATOM      7  N   UNL     1      46.928   6.969  12.480  0.00  0.00    +0.000 NA
ATOM      8  H   UNL     1      44.141   6.988  13.725  0.00  0.00    +0.000 HD
ENDROOT
BRANCH   1   9
ATOM      9  C   UNL     1      44.902   5.265  12.827  0.00  0.00    +0.000 C 
BRANCH   9  11
ATOM     10  C   UNL     1      42.565   5.237  11.777  0.00  0.00    +0.000 C 
ATOM     11  C   UNL     1      43.882   4.476  11.975  0.00  0.00    +0.000 C 
BRANCH  11  12
ATOM     12  C   UNL     1      44.488   4.103  10.626  0.00  0.00    +0.000 A 
ATOM     13  C   UNL     1      45.209   5.054   9.889  0.00  0.00    +0.000 A 
ATOM     14  C   UNL     1      45.770   4.719   8.653  0.00  0.00    +0.000 A 
ATOM     15  C   UNL     1      45.614   3.432   8.144  0.00  0.00    +0.000 A 
ATOM     16 CL   UNL     1      46.311   3.020   6.626  0.00  0.00    +0.000 Cl
ATOM     17  C   UNL     1      44.899   2.476   8.858  0.00  0.00    +0.000 A 
ATOM     18  C   UNL     1      44.340   2.809  10.094  0.00  0.00    +0.000 A 
ENDBRANCH  11  12
ENDBRANCH   9  11
ENDBRANCH   1   9
BRANCH   6  19
ATOM     19  O   UNL     1      49.225   7.237  12.090  0.00  0.00    +0.000 OA
BRANCH  19  20
ATOM     20  C   UNL     1      50.244   8.145  11.602  0.00  0.00    +0.000 C 
ATOM     21  C   UNL     1      51.323   7.548  10.666  0.00  0.00    +0.000 C 
ATOM     22  N   UNL     1      52.385   8.208  11.461  0.00  0.00    +0.000 NA
ATOM     23  C   UNL     1      52.760   9.482  10.847  0.00  0.00    +0.000 C 
ATOM     24  C   UNL     1      51.420   8.420  12.562  0.00  0.00    +0.000 C 
ENDBRANCH  19  20
ENDBRANCH   6  19
TORSDOF 5
ENDMDL
MODEL 5
REMARK VINA RESULT:    -6.543      4.351      7.939
REMARK INTER + INTRA:          -9.009
REMARK INTER:                  -8.352
REMARK INTRA:                  -0.657
REMARK UNBOUND:                -0.553
REMARK  Name = 
REMARK  7 active torsions:
REMARK  status: ('A' for Active; 'I' for Inactive)
REMARK    1  A    between atoms: C_1  and  C_2
REMARK    2  A    between atoms: C_2  and  C_3
REMARK    3  A    between atoms: C_2  and  C_17
REMARK    4  A    between atoms: C_3  and  N_4
REMARK    5  A    between atoms: C_9  and  O_10
REMARK    6  A    between atoms: O_10  and  C_11
REMARK    7  A    between atoms: N_13  and  C_14
REMARK                            x       y       z     vdW  Elec       q    Type
REMARK                         _______ _______ _______ _____ _____    ______ ____
ROOT
ATOM      1  N   UNL     1      46.145   5.993  12.838  0.00  0.00    +0.000 N 
ATOM      2  C   UNL     1      45.271   5.089  12.205  0.00  0.00    +0.000 A 
ATOM      3  C   UNL     1      44.383   4.361  12.993  0.00  0.00    +0.000 A 
ATOM      4  C   UNL     1      43.535   3.432  12.392  0.00  0.00    +0.000 A 
ATOM      5  C   UNL     1      43.591   3.256  11.017  0.00  0.00    +0.000 A 
ATOM      6  C   UNL     1      44.492   4.026  10.308  0.00  0.00    +0.000 A 
ATOM      7  N   UNL     1      45.327   4.922  10.870  0.00  0.00    +0.000 NA
ATOM      8  H   UNL     1      45.593   6.669  13.360  0.00  0.00    +0.000 HD
ENDROOT
BRANCH   1   9
ATOM      9  C   UNL     1      47.104   6.616  11.921  0.00  0.00    +0.000 C 
BRANCH   9  11
ATOM     10  C   UNL     1      46.803   8.575  13.545  0.00  0.00    +0.000 C 
ATOM     11  C   UNL     1      47.176   8.147  12.120  0.00  0.00    +0.000 C 
BRANCH  11  12
ATOM     12  C   UNL     1      48.561   8.669  11.753  0.00  0.00    +0.000 A 
ATOM     13  C   UNL     1      48.771  10.044  11.570  0.00  0.00    +0.000 A 
ATOM     14  C   UNL     1      50.038  10.531  11.235  0.00  0.00    +0.000 A 
ATOM     15  C   UNL     1      51.104   9.648  11.079  0.00  0.00    +0.000 A 
ATOM     16 CL   UNL     1      52.664  10.249  10.675  0.00  0.00    +0.000 Cl
ATOM     17  C   UNL     1      50.915   8.281  11.253  0.00  0.00    +0.000 A 
ATOM     18  C   UNL     1      49.650   7.793  11.589  0.00  0.00    +0.000 A 
ENDBRANCH  11  12
ENDBRANCH   9  11
ENDBRANCH   1   9
BRANCH   6  19
ATOM     19  O   UNL     1      44.532   3.857   8.937  0.00  0.00    +0.000 OA
BRANCH  19  20
ATOM     20  C   UNL     1      45.801   3.396   8.412  0.00  0.00    +0.000 C 
ATOM     21  C   UNL     1      45.934   3.320   6.871  0.00  0.00    +0.000 C 
ATOM     22  N   UNL     1      46.504   1.958   6.982  0.00  0.00    +0.000 NA
ATOM     23  C   UNL     1      47.966   2.017   6.963  0.00  0.00    +0.000 C 
ATOM     24  C   UNL     1      46.001   1.867   8.371  0.00  0.00    +0.000 C 
ENDBRANCH  19  20
ENDBRANCH   6  19
TORSDOF 5
ENDMDL
MODEL 6
REMARK VINA RESULT:    -6.444      2.594      3.491
REMARK INTER + INTRA:          -8.881
REMARK INTER:                  -8.309
REMARK INTRA:                  -0.572
REMARK UNBOUND:                -0.553
REMARK  Name = 
REMARK  7 active torsions:
REMARK  status: ('A' for Active; 'I' for Inactive)
REMARK    1  A    between atoms: C_1  and  C_2
REMARK    2  A    between atoms: C_2  and  C_3
REMARK    3  A    between atoms: C_2  and  C_17
REMARK    4  A    between atoms: C_3  and  N_4
REMARK    5  A    between atoms: C_9  and  O_10
REMARK    6  A    between atoms: O_10  and  C_11
REMARK    7  A    between atoms: N_13  and  C_14
REMARK                            x       y       z     vdW  Elec       q    Type
REMARK                         _______ _______ _______ _____ _____    ______ ____
ROOT
ATOM      1  N   UNL     1      44.463   6.937  12.524  0.00  0.00    +0.000 N 
ATOM      2  C   UNL     1      45.517   7.868  12.451  0.00  0.00    +0.000 A 
ATOM      3  C   UNL     1      45.207   9.205  12.212  0.00  0.00    +0.000 A 
ATOM      4  C   UNL     1      46.236  10.138  12.097  0.00  0.00    +0.000 A 
ATOM      5  C   UNL     1      47.551   9.714  12.229  0.00  0.00    +0.000 A 
ATOM      6  C   UNL     1      47.771   8.373  12.477  0.00  0.00    +0.000 A 
ATOM      7  N   UNL     1      46.792   7.454  12.582  0.00  0.00    +0.000 NA
ATOM      8  H   UNL     1      43.823   7.226  13.258  0.00  0.00    +0.000 HD
ENDROOT
BRANCH   1   9
ATOM      9  C   UNL     1      44.920   5.551  12.668  0.00  0.00    +0.000 C 
BRANCH   9  11
ATOM     10  C   UNL     1      42.558   5.112  11.777  0.00  0.00    +0.000 C 
ATOM     11  C   UNL     1      43.979   4.561  11.945  0.00  0.00    +0.000 C 
BRANCH  11  12
ATOM     12  C   UNL     1      44.558   4.165  10.591  0.00  0.00    +0.000 A 
ATOM     13  C   UNL     1      45.330   5.080   9.859  0.00  0.00    +0.000 A 
ATOM     14  C   UNL     1      45.867   4.724   8.618  0.00  0.00    +0.000 A 
ATOM     15  C   UNL     1      45.636   3.452   8.099  0.00  0.00    +0.000 A 
ATOM     16 CL   UNL     1      46.303   3.014   6.575  0.00  0.00    +0.000 Cl
ATOM     17  C   UNL     1      44.870   2.532   8.807  0.00  0.00    +0.000 A 
ATOM     18  C   UNL     1      44.336   2.886  10.048  0.00  0.00    +0.000 A 
ENDBRANCH  11  12
ENDBRANCH   9  11
ENDBRANCH   1   9
BRANCH   6  19
ATOM     19  O   UNL     1      49.081   7.961  12.623  0.00  0.00    +0.000 OA
BRANCH  19  20
ATOM     20  C   UNL     1      49.398   7.362  13.904  0.00  0.00    +0.000 C 
ATOM     21  C   UNL     1      48.798   8.039  15.160  0.00  0.00    +0.000 C 
ATOM     22  N   UNL     1      50.122   7.995  15.822  0.00  0.00    +0.000 NA
ATOM     23  C   UNL     1      50.221   6.814  16.680  0.00  0.00    +0.000 C 
ATOM     24  C   UNL     1      50.762   7.746  14.512  0.00  0.00    +0.000 C 
ENDBRANCH  19  20
ENDBRANCH   6  19
TORSDOF 5
ENDMDL
MODEL 7
REMARK VINA RESULT:    -6.367      2.418      3.575
REMARK INTER + INTRA:          -8.781
REMARK INTER:                  -8.227
REMARK INTRA:                  -0.554
REMARK UNBOUND:                -0.553
REMARK  Name = 
REMARK  7 active torsions:
REMARK  status: ('A' for Active; 'I' for Inactive)
REMARK    1  A    between atoms: C_1  and  C_2
REMARK    2  A    between atoms: C_2  and  C_3
REMARK    3  A    between atoms: C_2  and  C_17
REMARK    4  A    between atoms: C_3  and  N_4
REMARK    5  A    between atoms: C_9  and  O_10
REMARK    6  A    between atoms: O_10  and  C_11
REMARK    7  A    between atoms: N_13  and  C_14
REMARK                            x       y       z     vdW  Elec       q    Type
REMARK                         _______ _______ _______ _____ _____    ______ ____
ROOT
ATOM      1  N   UNL     1      45.774   4.070  13.588  0.00  0.00    +0.000 N 
ATOM      2  C   UNL     1      46.773   4.792  14.269  0.00  0.00    +0.000 A 
ATOM      3  C   UNL     1      47.155   4.360  15.538  0.00  0.00    +0.000 A 
ATOM      4  C   UNL     1      48.116   5.081  16.247  0.00  0.00    +0.000 A 
ATOM      5  C   UNL     1      48.675   6.212  15.670  0.00  0.00    +0.000 A 
ATOM      6  C   UNL     1      48.249   6.564  14.404  0.00  0.00    +0.000 A 
ATOM      7  N   UNL     1      47.316   5.887  13.705  0.00  0.00    +0.000 NA
ATOM      8  H   UNL     1      46.077   3.105  13.492  0.00  0.00    +0.000 HD
ENDROOT
BRANCH   1   9
ATOM      9  C   UNL     1      45.380   4.682  12.315  0.00  0.00    +0.000 C 
BRANCH   9  11
ATOM     10  C   UNL     1      43.017   4.239  11.430  0.00  0.00    +0.000 C 
ATOM     11  C   UNL     1      44.469   3.747  11.489  0.00  0.00    +0.000 C 
BRANCH  11  12
ATOM     12  C   UNL     1      45.026   3.565  10.081  0.00  0.00    +0.000 A 
ATOM     13  C   UNL     1      45.128   2.282   9.523  0.00  0.00    +0.000 A 
ATOM     14  C   UNL     1      45.636   2.106   8.232  0.00  0.00    +0.000 A 
ATOM     15  C   UNL     1      46.047   3.212   7.490  0.00  0.00    +0.000 A 
ATOM     16 CL   UNL     1      46.665   2.995   5.899  0.00  0.00    +0.000 Cl
ATOM     17  C   UNL     1      45.958   4.491   8.027  0.00  0.00    +0.000 A 
ATOM     18  C   UNL     1      45.448   4.668   9.316  0.00  0.00    +0.000 A 
ENDBRANCH  11  12
ENDBRANCH   9  11
ENDBRANCH   1   9
BRANCH   6  19
ATOM     19  O   UNL     1      48.822   7.681  13.828  0.00  0.00    +0.000 OA
BRANCH  19  20
ATOM     20  C   UNL     1      49.576   8.522  14.736  0.00  0.00    +0.000 C 
ATOM     21  C   UNL     1      48.995   9.925  15.035  0.00  0.00    +0.000 C 
ATOM     22  N   UNL     1      50.324  10.533  14.793  0.00  0.00    +0.000 NA
ATOM     23  C   UNL     1      51.037  10.714  16.058  0.00  0.00    +0.000 C 
ATOM     24  C   UNL     1      50.762   9.291  14.118  0.00  0.00    +0.000 C 
ENDBRANCH  19  20
ENDBRANCH   6  19
TORSDOF 5
ENDMDL
MODEL 8
REMARK VINA RESULT:    -6.367      2.336      4.120
REMARK INTER + INTRA:          -8.781
REMARK INTER:                  -8.124
REMARK INTRA:                  -0.657
REMARK UNBOUND:                -0.553
REMARK  Name = 
REMARK  7 active torsions:
REMARK  status: ('A' for Active; 'I' for Inactive)
REMARK    1  A    between atoms: C_1  and  C_2
REMARK    2  A    between atoms: C_2  and  C_3
REMARK    3  A    between atoms: C_2  and  C_17
REMARK    4  A    between atoms: C_3  and  N_4
REMARK    5  A    between atoms: C_9  and  O_10
REMARK    6  A    between atoms: O_10  and  C_11
REMARK    7  A    between atoms: N_13  and  C_14
REMARK                            x       y       z     vdW  Elec       q    Type
REMARK                         _______ _______ _______ _____ _____    ______ ____
ROOT
ATOM      1  N   UNL     1      46.460   4.160  14.705  0.00  0.00    +0.000 N 
ATOM      2  C   UNL     1      47.326   4.329  15.802  0.00  0.00    +0.000 A 
ATOM      3  C   UNL     1      47.138   3.528  16.926  0.00  0.00    +0.000 A 
ATOM      4  C   UNL     1      47.959   3.704  18.039  0.00  0.00    +0.000 A 
ATOM      5  C   UNL     1      48.953   4.672  18.000  0.00  0.00    +0.000 A 
ATOM      6  C   UNL     1      49.080   5.415  16.843  0.00  0.00    +0.000 A 
ATOM      7  N   UNL     1      48.291   5.268  15.760  0.00  0.00    +0.000 NA
ATOM      8  H   UNL     1      46.515   3.195  14.391  0.00  0.00    +0.000 HD
ENDROOT
BRANCH   1   9
ATOM      9  C   UNL     1      46.686   5.131  13.630  0.00  0.00    +0.000 C 
BRANCH   9  11
ATOM     10  C   UNL     1      45.148   7.033  12.868  0.00  0.00    +0.000 C 
ATOM     11  C   UNL     1      45.368   5.516  12.921  0.00  0.00    +0.000 C 
BRANCH  11  12
ATOM     12  C   UNL     1      45.324   4.924  11.516  0.00  0.00    +0.000 A 
ATOM     13  C   UNL     1      45.758   5.680  10.417  0.00  0.00    +0.000 A 
ATOM     14  C   UNL     1      45.723   5.143   9.127  0.00  0.00    +0.000 A 
ATOM     15  C   UNL     1      45.253   3.847   8.925  0.00  0.00    +0.000 A 
ATOM     16 CL   UNL     1      45.217   3.186   7.337  0.00  0.00    +0.000 Cl
ATOM     17  C   UNL     1      44.814   3.083  10.001  0.00  0.00    +0.000 A 
ATOM     18  C   UNL     1      44.851   3.618  11.290  0.00  0.00    +0.000 A 
ENDBRANCH  11  12
ENDBRANCH   9  11
ENDBRANCH   1   9
BRANCH   6  19
ATOM     19  O   UNL     1      50.081   6.366  16.804  0.00  0.00    +0.000 OA
BRANCH  19  20
ATOM     20  C   UNL     1      50.155   7.131  15.576  0.00  0.00    +0.000 C 
ATOM     21  C   UNL     1      51.538   7.714  15.197  0.00  0.00    +0.000 C 
ATOM     22  N   UNL     1      50.916   9.030  14.927  0.00  0.00    +0.000 NA
ATOM     23  C   UNL     1      50.624   9.170  13.500  0.00  0.00    +0.000 C 
ATOM     24  C   UNL     1      49.708   8.605  15.670  0.00  0.00    +0.000 C 
ENDBRANCH  19  20
ENDBRANCH   6  19
TORSDOF 5
ENDMDL
MODEL 9
REMARK VINA RESULT:    -6.199      3.699      8.457
REMARK INTER + INTRA:          -8.565
REMARK INTER:                  -7.946
REMARK INTRA:                  -0.619
REMARK UNBOUND:                -0.553
REMARK  Name = 
REMARK  7 active torsions:
REMARK  status: ('A' for Active; 'I' for Inactive)
REMARK    1  A    between atoms: C_1  and  C_2
REMARK    2  A    between atoms: C_2  and  C_3
REMARK    3  A    between atoms: C_2  and  C_17
REMARK    4  A    between atoms: C_3  and  N_4
REMARK    5  A    between atoms: C_9  and  O_10
REMARK    6  A    between atoms: O_10  and  C_11
REMARK    7  A    between atoms: N_13  and  C_14
REMARK                            x       y       z     vdW  Elec       q    Type
REMARK                         _______ _______ _______ _____ _____    ______ ____
ROOT
ATOM      1  N   UNL     1      45.904   6.090  13.637  0.00  0.00    +0.000 N 
ATOM      2  C   UNL     1      44.940   5.430  12.851  0.00  0.00    +0.000 A 
ATOM      3  C   UNL     1      43.622   5.877  12.904  0.00  0.00    +0.000 A 
ATOM      4  C   UNL     1      42.643   5.215  12.164  0.00  0.00    +0.000 A 
ATOM      5  C   UNL     1      43.006   4.125  11.385  0.00  0.00    +0.000 A 
ATOM      6  C   UNL     1      44.336   3.754  11.381  0.00  0.00    +0.000 A 
ATOM      7  N   UNL     1      45.296   4.374  12.095  0.00  0.00    +0.000 NA
ATOM      8  H   UNL     1      45.917   7.073  13.380  0.00  0.00    +0.000 HD
ENDROOT
BRANCH   1   9
ATOM      9  C   UNL     1      47.228   5.462  13.583  0.00  0.00    +0.000 C 
BRANCH   9  11
ATOM     10  C   UNL     1      48.022   7.800  14.266  0.00  0.00    +0.000 C 
ATOM     11  C   UNL     1      48.287   6.292  14.345  0.00  0.00    +0.000 C 
BRANCH  11  12
ATOM     12  C   UNL     1      48.374   5.842  15.799  0.00  0.00    +0.000 A 
ATOM     13  C   UNL     1      47.798   4.626  16.197  0.00  0.00    +0.000 A 
ATOM     14  C   UNL     1      47.875   4.205  17.528  0.00  0.00    +0.000 A 
ATOM     15  C   UNL     1      48.527   4.996  18.472  0.00  0.00    +0.000 A 
ATOM     16 CL   UNL     1      48.627   4.473  20.107  0.00  0.00    +0.000 Cl
ATOM     17  C   UNL     1      49.100   6.207  18.098  0.00  0.00    +0.000 A 
ATOM     18  C   UNL     1      49.026   6.627  16.768  0.00  0.00    +0.000 A 
ENDBRANCH  11  12
ENDBRANCH   9  11
ENDBRANCH   1   9
BRANCH   6  19
ATOM     19  O   UNL     1      44.693   2.678  10.591  0.00  0.00    +0.000 OA
BRANCH  19  20
ATOM     20  C   UNL     1      45.611   2.985   9.513  0.00  0.00    +0.000 C 
ATOM     21  C   UNL     1      45.088   3.916   8.393  0.00  0.00    +0.000 C 
ATOM     22  N   UNL     1      45.604   2.982   7.367  0.00  0.00    +0.000 NA
ATOM     23  C   UNL     1      46.926   3.409   6.910  0.00  0.00    +0.000 C 
ATOM     24  C   UNL     1      45.721   1.926   8.397  0.00  0.00    +0.000 C 
ENDBRANCH  19  20
ENDBRANCH   6  19
TORSDOF 5
ENDMDL
