MODEL 1
REMARK VINA RESULT:    -8.882      0.000      0.000
REMARK INTER + INTRA:         -13.021
REMARK INTER:                 -11.998
REMARK INTRA:                  -1.023
REMARK UNBOUND:                -1.023
REMARK  Name = 
REMARK  7 active torsions:
REMARK  status: ('A' for Active; 'I' for Inactive)
REMARK    1  A    between atoms: C_1  and  C_2
REMARK    2  A    between atoms: C_4  and  C_5
REMARK    3  A    between atoms: C_5  and  N_6
REMARK    4  A    between atoms: C_7  and  C_9
REMARK    5  A    between atoms: C_21  and  C_22
REMARK    6  A    between atoms: C_22  and  O_23
REMARK    7  A    between atoms: O_23  and  C_24
REMARK                            x       y       z     vdW  Elec       q    Type
REMARK                         _______ _______ _______ _____ _____    ______ ____
ROOT
ATOM      1  C   UNL     1      46.654   7.793  13.080  0.00  0.00    +0.000 C 
ENDROOT
BRANCH   1   5
ATOM      2  C   UNL     1      43.405   3.987  12.626  0.00  0.00    +0.000 C 
ATOM      3  C   UNL     1      44.422   4.885  11.976  0.00  0.00    +0.000 A 
ATOM      4  C   UNL     1      45.034   5.885  12.754  0.00  0.00    +0.000 A 
ATOM      5  C   UNL     1      46.016   6.733  12.221  0.00  0.00    +0.000 A 
ATOM      6  C   UNL     1      46.355   6.600  10.872  0.00  0.00    +0.000 A 
ATOM      7  C   UNL     1      45.746   5.621  10.084  0.00  0.00    +0.000 A 
ATOM      8  C   UNL     1      44.787   4.742  10.621  0.00  0.00    +0.000 A 
BRANCH   8   9
ATOM      9  C   UNL     1      44.186   3.685   9.712  0.00  0.00    +0.000 C 
BRANCH   9  10
ATOM     10  O   UNL     1      45.002   2.511   9.739  0.00  0.00    +0.000 OA
BRANCH  10  11
ATOM     11  C   UNL     1      45.699   2.321   8.561  0.00  0.00    +0.000 A 
ATOM     12  C   UNL     1      45.666   3.362   7.644  0.00  0.00    +0.000 A 
ATOM     13  C   UNL     1      46.365   3.216   6.448  0.00  0.00    +0.000 A 
ATOM     14  C   UNL     1      47.070   2.042   6.212  0.00  0.00    +0.000 A 
ATOM     15  C   UNL     1      47.043   1.056   7.186  0.00  0.00    +0.000 A 
ATOM     16  N   UNL     1      46.371   1.169   8.352  0.00  0.00    +0.000 NA
ENDBRANCH  10  11
ENDBRANCH   9  10
ENDBRANCH   8   9
ENDBRANCH   1   5
BRANCH   1  17
ATOM     17  N   UNL     1      47.189   7.226  14.292  0.00  0.00    +0.000 N 
ATOM     18  C   UNL     1      48.443   6.672  14.330  0.00  0.00    +0.000 C 
ATOM     19  O   UNL     1      49.185   6.674  13.350  0.00  0.00    +0.000 OA
ATOM     20  H   UNL     1      46.523   7.007  15.026  0.00  0.00    +0.000 HD
BRANCH  18  21
ATOM     21  C   UNL     1      48.882   6.131  15.621  0.00  0.00    +0.000 A 
ATOM     22  C   UNL     1      49.942   6.726  16.292  0.00  0.00    +0.000 A 
ATOM     23  S   UNL     1      50.286   6.009  17.801  0.00  0.00    +0.000 S 
ATOM     24  C   UNL     1      49.064   4.845  17.590  0.00  0.00    +0.000 A 
ATOM     25  N   UNL     1      48.837   3.890  18.531  0.00  0.00    +0.000 NA
ATOM     26  C   UNL     1      47.899   3.056  18.228  0.00  0.00    +0.000 A 
ATOM     27  N   UNL     1      47.164   3.093  17.072  0.00  0.00    +0.000 N 
ATOM     28  C   UNL     1      47.344   4.050  16.102  0.00  0.00    +0.000 A 
ATOM     29  O   UNL     1      46.652   4.070  15.090  0.00  0.00    +0.000 OA
ATOM     30  C   UNL     1      48.392   5.011  16.391  0.00  0.00    +0.000 A 
ATOM     31  H   UNL     1      46.439   2.413  16.896  0.00  0.00    +0.000 HD
ENDBRANCH  18  21
ENDBRANCH   1  17
TORSDOF 6
ENDMDL
MODEL 2
REMARK VINA RESULT:    -7.743      2.158      3.777
REMARK INTER + INTRA:         -11.483
REMARK INTER:                 -10.363
REMARK INTRA:                  -1.120
REMARK UNBOUND:                -1.023
REMARK  Name = 
REMARK  7 active torsions:
REMARK  status: ('A' for Active; 'I' for Inactive)
REMARK    1  A    between atoms: C_1  and  C_2
REMARK    2  A    between atoms: C_4  and  C_5
REMARK    3  A    between atoms: C_5  and  N_6
REMARK    4  A    between atoms: C_7  and  C_9
REMARK    5  A    between atoms: C_21  and  C_22
REMARK    6  A    between atoms: C_22  and  O_23
REMARK    7  A    between atoms: O_23  and  C_24
REMARK                            x       y       z     vdW  Elec       q    Type
REMARK                         _______ _______ _______ _____ _____    ______ ____
ROOT
ATOM      1  C   UNL     1      47.144   4.649  15.070  0.00  0.00    +0.000 C 
ENDROOT
BRANCH   1   5
ATOM      2  C   UNL     1      44.989   6.903  11.130  0.00  0.00    +0.000 C 
ATOM      3  C   UNL     1      45.354   5.622  11.828  0.00  0.00    +0.000 A 
ATOM      4  C   UNL     1      46.055   5.693  13.046  0.00  0.00    +0.000 A 
ATOM      5  C   UNL     1      46.395   4.540  13.768  0.00  0.00    +0.000 A 
ATOM      6  C   UNL     1      46.062   3.293  13.232  0.00  0.00    +0.000 A 
ATOM      7  C   UNL     1      45.379   3.205  12.017  0.00  0.00    +0.000 A 
ATOM      8  C   UNL     1      45.002   4.360  11.306  0.00  0.00    +0.000 A 
BRANCH   8   9
ATOM      9  C   UNL     1      44.237   4.190  10.006  0.00  0.00    +0.000 C 
BRANCH   9  10
ATOM     10  O   UNL     1      44.301   2.824   9.588  0.00  0.00    +0.000 OA
BRANCH  10  11
ATOM     11  C   UNL     1      45.283   2.603   8.642  0.00  0.00    +0.000 A 
ATOM     12  C   UNL     1      45.612   3.676   7.825  0.00  0.00    +0.000 A 
ATOM     13  C   UNL     1      46.605   3.499   6.865  0.00  0.00    +0.000 A 
ATOM     14  C   UNL     1      47.235   2.265   6.757  0.00  0.00    +0.000 A 
ATOM     15  C   UNL     1      46.839   1.252   7.616  0.00  0.00    +0.000 A 
ATOM     16  N   UNL     1      45.876   1.394   8.552  0.00  0.00    +0.000 NA
ENDBRANCH  10  11
ENDBRANCH   9  10
ENDBRANCH   8   9
ENDBRANCH   1   5
BRANCH   1  17
ATOM     17  N   UNL     1      47.813   5.920  15.178  0.00  0.00    +0.000 N 
ATOM     18  C   UNL     1      48.917   6.082  15.975  0.00  0.00    +0.000 C 
ATOM     19  O   UNL     1      49.413   5.145  16.597  0.00  0.00    +0.000 OA
ATOM     20  H   UNL     1      47.294   6.737  14.869  0.00  0.00    +0.000 HD
BRANCH  18  21
ATOM     21  C   UNL     1      49.517   7.421  16.001  0.00  0.00    +0.000 A 
ATOM     22  C   UNL     1      49.735   8.054  17.217  0.00  0.00    +0.000 A 
ATOM     23  S   UNL     1      50.490   9.576  17.071  0.00  0.00    +0.000 S 
ATOM     24  C   UNL     1      50.507   9.467  15.373  0.00  0.00    +0.000 A 
ATOM     25  N   UNL     1      51.013  10.475  14.613  0.00  0.00    +0.000 NA
ATOM     26  C   UNL     1      50.936  10.271  13.340  0.00  0.00    +0.000 A 
ATOM     27  N   UNL     1      50.405   9.149  12.759  0.00  0.00    +0.000 N 
ATOM     28  C   UNL     1      49.902   8.098  13.487  0.00  0.00    +0.000 A 
ATOM     29  O   UNL     1      49.457   7.097  12.936  0.00  0.00    +0.000 OA
ATOM     30  C   UNL     1      49.958   8.278  14.926  0.00  0.00    +0.000 A 
ATOM     31  H   UNL     1      50.379   9.047  11.755  0.00  0.00    +0.000 HD
ENDBRANCH  18  21
ENDBRANCH   1  17
TORSDOF 6
ENDMDL
MODEL 3
REMARK VINA RESULT:    -7.659      1.767      2.092
REMARK INTER + INTRA:         -11.369
REMARK INTER:                 -10.295
REMARK INTRA:                  -1.073
REMARK UNBOUND:                -1.023
REMARK  Name = 
REMARK  7 active torsions:
REMARK  status: ('A' for Active; 'I' for Inactive)
REMARK    1  A    between atoms: C_1  and  C_2
REMARK    2  A    between atoms: C_4  and  C_5
REMARK    3  A    between atoms: C_5  and  N_6
REMARK    4  A    between atoms: C_7  and  C_9
REMARK    5  A    between atoms: C_21  and  C_22
REMARK    6  A    between atoms: C_22  and  O_23
REMARK    7  A    between atoms: O_23  and  C_24
REMARK                            x       y       z     vdW  Elec       q    Type
REMARK                         _______ _______ _______ _____ _____    ______ ____
ROOT
ATOM      1  C   UNL     1      45.976   8.948  12.569  0.00  0.00    +0.000 C 
ENDROOT
BRANCH   1   5
ATOM      2  C   UNL     1      42.397   5.508  11.788  0.00  0.00    +0.000 C 
ATOM      3  C   UNL     1      43.839   5.911  11.637  0.00  0.00    +0.000 A 
ATOM      4  C   UNL     1      44.241   7.171  12.118  0.00  0.00    +0.000 A 
ATOM      5  C   UNL     1      45.576   7.594  12.044  0.00  0.00    +0.000 A 
ATOM      6  C   UNL     1      46.512   6.754  11.434  0.00  0.00    +0.000 A 
ATOM      7  C   UNL     1      46.124   5.506  10.940  0.00  0.00    +0.000 A 
ATOM      8  C   UNL     1      44.794   5.059  11.046  0.00  0.00    +0.000 A 
BRANCH   8   9
ATOM      9  C   UNL     1      44.451   3.681  10.510  0.00  0.00    +0.000 C 
BRANCH   9  10
ATOM     10  O   UNL     1      44.297   3.743   9.091  0.00  0.00    +0.000 OA
BRANCH  10  11
ATOM     11  C   UNL     1      45.271   3.031   8.418  0.00  0.00    +0.000 A 
ATOM     12  C   UNL     1      46.015   3.731   7.478  0.00  0.00    +0.000 A 
ATOM     13  C   UNL     1      47.015   3.054   6.785  0.00  0.00    +0.000 A 
ATOM     14  C   UNL     1      47.238   1.709   7.055  0.00  0.00    +0.000 A 
ATOM     15  C   UNL     1      46.444   1.093   8.010  0.00  0.00    +0.000 A 
ATOM     16  N   UNL     1      45.465   1.724   8.694  0.00  0.00    +0.000 NA
ENDBRANCH  10  11
ENDBRANCH   9  10
ENDBRANCH   8   9
ENDBRANCH   1   5
BRANCH   1  17
ATOM     17  N   UNL     1      46.588   8.840  13.869  0.00  0.00    +0.000 N 
ATOM     18  C   UNL     1      47.950   8.882  14.024  0.00  0.00    +0.000 C 
ATOM     19  O   UNL     1      48.707   9.061  13.073  0.00  0.00    +0.000 OA
ATOM     20  H   UNL     1      46.010   8.465  14.615  0.00  0.00    +0.000 HD
BRANCH  18  21
ATOM     21  C   UNL     1      48.458   8.768  15.396  0.00  0.00    +0.000 A 
ATOM     22  C   UNL     1      48.701   9.916  16.138  0.00  0.00    +0.000 A 
ATOM     23  S   UNL     1      49.233   9.603  17.728  0.00  0.00    +0.000 S 
ATOM     24  C   UNL     1      49.208   7.922  17.465  0.00  0.00    +0.000 A 
ATOM     25  N   UNL     1      49.581   7.055  18.445  0.00  0.00    +0.000 NA
ATOM     26  C   UNL     1      49.540   5.812  18.099  0.00  0.00    +0.000 A 
ATOM     27  N   UNL     1      49.155   5.356  16.866  0.00  0.00    +0.000 N 
ATOM     28  C   UNL     1      48.751   6.193  15.853  0.00  0.00    +0.000 A 
ATOM     29  O   UNL     1      48.388   5.750  14.768  0.00  0.00    +0.000 OA
ATOM     30  C   UNL     1      48.783   7.604  16.187  0.00  0.00    +0.000 A 
ATOM     31  H   UNL     1      49.139   4.368  16.659  0.00  0.00    +0.000 HD
ENDBRANCH  18  21
ENDBRANCH   1  17
TORSDOF 6
ENDMDL
MODEL 4
REMARK VINA RESULT:    -7.479      2.513      3.776
REMARK INTER + INTRA:         -11.126
REMARK INTER:                 -10.117
REMARK INTRA:                  -1.009
REMARK UNBOUND:                -1.023
REMARK  Name = 
REMARK  7 active torsions:
REMARK  status: ('A' for Active; 'I' for Inactive)
REMARK    1  A    between atoms: C_1  and  C_2
REMARK    2  A    between atoms: C_4  and  C_5
REMARK    3  A    between atoms: C_5  and  N_6
REMARK    4  A    between atoms: C_7  and  C_9
REMARK    5  A    between atoms: C_21  and  C_22
REMARK    6  A    between atoms: C_22  and  O_23
REMARK    7  A    between atoms: O_23  and  C_24
REMARK                            x       y       z     vdW  Elec       q    Type
REMARK                         _______ _______ _______ _____ _____    ______ ____
ROOT
ATOM      1  C   UNL     1      47.539   4.042  15.379  0.00  0.00    +0.000 C 
ENDROOT
BRANCH   1   5
ATOM      2  C   UNL     1      46.726   7.386  11.718  0.00  0.00    +0.000 C 
ATOM      3  C   UNL     1      46.445   6.024  12.291  0.00  0.00    +0.000 A 
ATOM      4  C   UNL     1      47.085   5.651  13.488  0.00  0.00    +0.000 A 
ATOM      5  C   UNL     1      46.840   4.412  14.097  0.00  0.00    +0.000 A 
ATOM      6  C   UNL     1      45.973   3.516  13.467  0.00  0.00    +0.000 A 
ATOM      7  C   UNL     1      45.341   3.867  12.271  0.00  0.00    +0.000 A 
ATOM      8  C   UNL     1      45.553   5.124  11.674  0.00  0.00    +0.000 A 
BRANCH   8   9
ATOM      9  C   UNL     1      44.812   5.447  10.389  0.00  0.00    +0.000 C 
BRANCH   9  10
ATOM     10  O   UNL     1      44.290   4.243   9.822  0.00  0.00    +0.000 OA
BRANCH  10  11
ATOM     11  C   UNL     1      45.166   3.650   8.934  0.00  0.00    +0.000 A 
ATOM     12  C   UNL     1      45.300   2.271   9.019  0.00  0.00    +0.000 A 
ATOM     13  C   UNL     1      46.165   1.633   8.134  0.00  0.00    +0.000 A 
ATOM     14  C   UNL     1      46.860   2.388   7.198  0.00  0.00    +0.000 A 
ATOM     15  C   UNL     1      46.663   3.760   7.189  0.00  0.00    +0.000 A 
ATOM     16  N   UNL     1      45.835   4.406   8.037  0.00  0.00    +0.000 NA
ENDBRANCH  10  11
ENDBRANCH   9  10
ENDBRANCH   8   9
ENDBRANCH   1   5
BRANCH   1  17
ATOM     17  N   UNL     1      47.512   5.135  16.317  0.00  0.00    +0.000 N 
ATOM     18  C   UNL     1      48.628   5.495  17.028  0.00  0.00    +0.000 C 
ATOM     19  O   UNL     1      49.711   4.935  16.866  0.00  0.00    +0.000 OA
ATOM     20  H   UNL     1      46.597   5.445  16.631  0.00  0.00    +0.000 HD
BRANCH  18  21
ATOM     21  C   UNL     1      48.482   6.627  17.951  0.00  0.00    +0.000 A 
ATOM     22  C   UNL     1      48.447   6.399  19.320  0.00  0.00    +0.000 A 
ATOM     23  S   UNL     1      48.331   7.825  20.248  0.00  0.00    +0.000 S 
ATOM     24  C   UNL     1      48.272   8.796  18.852  0.00  0.00    +0.000 A 
ATOM     25  N   UNL     1      48.150  10.147  18.944  0.00  0.00    +0.000 NA
ATOM     26  C   UNL     1      48.089  10.755  17.806  0.00  0.00    +0.000 A 
ATOM     27  N   UNL     1      48.145  10.135  16.585  0.00  0.00    +0.000 N 
ATOM     28  C   UNL     1      48.288   8.776  16.444  0.00  0.00    +0.000 A 
ATOM     29  O   UNL     1      48.360   8.255  15.335  0.00  0.00    +0.000 OA
ATOM     30  C   UNL     1      48.356   8.042  17.694  0.00  0.00    +0.000 A 
ATOM     31  H   UNL     1      48.097  10.669  15.730  0.00  0.00    +0.000 HD
ENDBRANCH  18  21
ENDBRANCH   1  17
TORSDOF 6
ENDMDL
MODEL 5
REMARK VINA RESULT:    -7.433      4.349      8.928
REMARK INTER + INTRA:         -11.064
REMARK INTER:                 -10.184
REMARK INTRA:                  -0.881
REMARK UNBOUND:                -1.023
REMARK  Name = 
REMARK  7 active torsions:
REMARK  status: ('A' for Active; 'I' for Inactive)
REMARK    1  A    between atoms: C_1  and  C_2
REMARK    2  A    between atoms: C_4  and  C_5
REMARK    3  A    between atoms: C_5  and  N_6
REMARK    4  A    between atoms: C_7  and  C_9
REMARK    5  A    between atoms: C_21  and  C_22
REMARK    6  A    between atoms: C_22  and  O_23
REMARK    7  A    between atoms: O_23  and  C_24
REMARK                            x       y       z     vdW  Elec       q    Type
REMARK                         _______ _______ _______ _____ _____    ______ ____
ROOT
ATOM      1  C   UNL     1      47.216   3.326  16.936  0.00  0.00    +0.000 C 
ENDROOT
BRANCH   1   5
ATOM      2  C   UNL     1      51.367   5.638  18.570  0.00  0.00    +0.000 C 
ATOM      3  C   UNL     1      50.730   4.392  18.020  0.00  0.00    +0.000 A 
ATOM      4  C   UNL     1      49.348   4.401  17.756  0.00  0.00    +0.000 A 
ATOM      5  C   UNL     1      48.697   3.286  17.209  0.00  0.00    +0.000 A 
ATOM      6  C   UNL     1      49.441   2.129  16.965  0.00  0.00    +0.000 A 
ATOM      7  C   UNL     1      50.811   2.100  17.234  0.00  0.00    +0.000 A 
ATOM      8  C   UNL     1      51.478   3.228  17.748  0.00  0.00    +0.000 A 
BRANCH   8   9
ATOM      9  C   UNL     1      52.974   3.133  17.991  0.00  0.00    +0.000 C 
BRANCH   9  10
ATOM     10  O   UNL     1      53.252   2.017  18.839  0.00  0.00    +0.000 OA
BRANCH  10  11
ATOM     11  C   UNL     1      53.935   1.010  18.186  0.00  0.00    +0.000 A 
ATOM     12  C   UNL     1      54.639   1.373  17.047  0.00  0.00    +0.000 A 
ATOM     13  C   UNL     1      55.351   0.390  16.365  0.00  0.00    +0.000 A 
ATOM     14  C   UNL     1      55.337  -0.915  16.842  0.00  0.00    +0.000 A 
ATOM     15  C   UNL     1      54.604  -1.184  17.988  0.00  0.00    +0.000 A 
ATOM     16  N   UNL     1      53.901  -0.252  18.666  0.00  0.00    +0.000 NA
ENDBRANCH  10  11
ENDBRANCH   9  10
ENDBRANCH   8   9
ENDBRANCH   1   5
BRANCH   1  17
ATOM     17  N   UNL     1      46.893   4.354  15.979  0.00  0.00    +0.000 N 
ATOM     18  C   UNL     1      46.982   4.128  14.629  0.00  0.00    +0.000 C 
ATOM     19  O   UNL     1      47.296   3.030  14.173  0.00  0.00    +0.000 OA
ATOM     20  H   UNL     1      46.863   5.308  16.326  0.00  0.00    +0.000 HD
BRANCH  18  21
ATOM     21  C   UNL     1      46.623   5.246  13.751  0.00  0.00    +0.000 A 
ATOM     22  C   UNL     1      47.517   6.293  13.567  0.00  0.00    +0.000 A 
ATOM     23  S   UNL     1      46.966   7.480  12.474  0.00  0.00    +0.000 S 
ATOM     24  C   UNL     1      45.490   6.665  12.245  0.00  0.00    +0.000 A 
ATOM     25  N   UNL     1      44.532   7.171  11.423  0.00  0.00    +0.000 NA
ATOM     26  C   UNL     1      43.453   6.464  11.366  0.00  0.00    +0.000 A 
ATOM     27  N   UNL     1      43.247   5.295  12.051  0.00  0.00    +0.000 N 
ATOM     28  C   UNL     1      44.193   4.736  12.876  0.00  0.00    +0.000 A 
ATOM     29  O   UNL     1      43.986   3.675  13.455  0.00  0.00    +0.000 OA
ATOM     30  C   UNL     1      45.426   5.495  12.981  0.00  0.00    +0.000 A 
ATOM     31  H   UNL     1      42.381   4.785  11.958  0.00  0.00    +0.000 HD
ENDBRANCH  18  21
ENDBRANCH   1  17
TORSDOF 6
ENDMDL
MODEL 6
REMARK VINA RESULT:    -7.289      3.751      8.627
REMARK INTER + INTRA:         -10.869
REMARK INTER:                  -9.828
REMARK INTRA:                  -1.041
REMARK UNBOUND:                -1.023
REMARK  Name = 
REMARK  7 active torsions:
REMARK  status: ('A' for Active; 'I' for Inactive)
REMARK    1  A    between atoms: C_1  and  C_2
REMARK    2  A    between atoms: C_4  and  C_5
REMARK    3  A    between atoms: C_5  and  N_6
REMARK    4  A    between atoms: C_7  and  C_9
REMARK    5  A    between atoms: C_21  and  C_22
REMARK    6  A    between atoms: C_22  and  O_23
REMARK    7  A    between atoms: O_23  and  C_24
REMARK                            x       y       z     vdW  Elec       q    Type
REMARK                         _______ _______ _______ _____ _____    ______ ____
ROOT
ATOM      1  C   UNL     1      47.182   3.351  16.786  0.00  0.00    +0.000 C 
ENDROOT
BRANCH   1   5
ATOM      2  C   UNL     1      51.699   1.244  17.420  0.00  0.00    +0.000 C 
ATOM      3  C   UNL     1      50.861   2.493  17.407  0.00  0.00    +0.000 A 
ATOM      4  C   UNL     1      49.491   2.383  17.105  0.00  0.00    +0.000 A 
ATOM      5  C   UNL     1      48.645   3.501  17.112  0.00  0.00    +0.000 A 
ATOM      6  C   UNL     1      49.196   4.757  17.382  0.00  0.00    +0.000 A 
ATOM      7  C   UNL     1      50.557   4.883  17.670  0.00  0.00    +0.000 A 
ATOM      8  C   UNL     1      51.404   3.760  17.702  0.00  0.00    +0.000 A 
BRANCH   8   9
ATOM      9  C   UNL     1      52.868   3.970  18.049  0.00  0.00    +0.000 C 
BRANCH   9  10
ATOM     10  O   UNL     1      53.195   5.356  17.924  0.00  0.00    +0.000 OA
BRANCH  10  11
ATOM     11  C   UNL     1      53.948   5.626  16.798  0.00  0.00    +0.000 A 
ATOM     12  C   UNL     1      53.482   6.633  15.965  0.00  0.00    +0.000 A 
ATOM     13  C   UNL     1      54.217   6.944  14.824  0.00  0.00    +0.000 A 
ATOM     14  C   UNL     1      55.388   6.245  14.558  0.00  0.00    +0.000 A 
ATOM     15  C   UNL     1      55.774   5.254  15.447  0.00  0.00    +0.000 A 
ATOM     16  N   UNL     1      55.079   4.928  16.558  0.00  0.00    +0.000 NA
ENDBRANCH  10  11
ENDBRANCH   9  10
ENDBRANCH   8   9
ENDBRANCH   1   5
BRANCH   1  17
ATOM     17  N   UNL     1      46.757   4.349  15.837  0.00  0.00    +0.000 N 
ATOM     18  C   UNL     1      46.810   4.120  14.486  0.00  0.00    +0.000 C 
ATOM     19  O   UNL     1      47.178   3.042  14.024  0.00  0.00    +0.000 OA
ATOM     20  H   UNL     1      46.677   5.301  16.181  0.00  0.00    +0.000 HD
BRANCH  18  21
ATOM     21  C   UNL     1      46.346   5.207  13.617  0.00  0.00    +0.000 A 
ATOM     22  C   UNL     1      47.158   6.312  13.403  0.00  0.00    +0.000 A 
ATOM     23  S   UNL     1      46.492   7.453  12.324  0.00  0.00    +0.000 S 
ATOM     24  C   UNL     1      45.070   6.536  12.145  0.00  0.00    +0.000 A 
ATOM     25  N   UNL     1      44.053   6.969  11.352  0.00  0.00    +0.000 NA
ATOM     26  C   UNL     1      43.025   6.188  11.330  0.00  0.00    +0.000 A 
ATOM     27  N   UNL     1      42.923   5.010  12.024  0.00  0.00    +0.000 N 
ATOM     28  C   UNL     1      43.932   4.523  12.821  0.00  0.00    +0.000 A 
ATOM     29  O   UNL     1      43.819   3.453  13.408  0.00  0.00    +0.000 OA
ATOM     30  C   UNL     1      45.111   5.367  12.885  0.00  0.00    +0.000 A 
ATOM     31  H   UNL     1      42.092   4.441  11.961  0.00  0.00    +0.000 HD
ENDBRANCH  18  21
ENDBRANCH   1  17
TORSDOF 6
ENDMDL
MODEL 7
REMARK VINA RESULT:    -7.064      3.218      8.014
REMARK INTER + INTRA:         -10.565
REMARK INTER:                  -9.545
REMARK INTRA:                  -1.020
REMARK UNBOUND:                -1.023
REMARK  Name = 
REMARK  7 active torsions:
REMARK  status: ('A' for Active; 'I' for Inactive)
REMARK    1  A    between atoms: C_1  and  C_2
REMARK    2  A    between atoms: C_4  and  C_5
REMARK    3  A    between atoms: C_5  and  N_6
REMARK    4  A    between atoms: C_7  and  C_9
REMARK    5  A    between atoms: C_21  and  C_22
REMARK    6  A    between atoms: C_22  and  O_23
REMARK    7  A    between atoms: O_23  and  C_24
REMARK                            x       y       z     vdW  Elec       q    Type
REMARK                         _______ _______ _______ _____ _____    ______ ____
ROOT
ATOM      1  C   UNL     1      48.469   7.876  12.113  0.00  0.00    +0.000 C 
ENDROOT
BRANCH   1   5
ATOM      2  C   UNL     1      52.200   7.985  15.476  0.00  0.00    +0.000 C 
ATOM      3  C   UNL     1      50.811   7.529  15.121  0.00  0.00    +0.000 A 
ATOM      4  C   UNL     1      50.282   7.893  13.869  0.00  0.00    +0.000 A 
ATOM      5  C   UNL     1      49.008   7.472  13.459  0.00  0.00    +0.000 A 
ATOM      6  C   UNL     1      48.239   6.709  14.342  0.00  0.00    +0.000 A 
ATOM      7  C   UNL     1      48.746   6.351  15.593  0.00  0.00    +0.000 A 
ATOM      8  C   UNL     1      50.038   6.739  15.996  0.00  0.00    +0.000 A 
BRANCH   8   9
ATOM      9  C   UNL     1      50.534   6.291  17.360  0.00  0.00    +0.000 C 
BRANCH   9  10
ATOM     10  O   UNL     1      49.756   5.179  17.810  0.00  0.00    +0.000 OA
BRANCH  10  11
ATOM     11  C   UNL     1      50.418   3.976  17.669  0.00  0.00    +0.000 A 
ATOM     12  C   UNL     1      51.717   3.920  18.155  0.00  0.00    +0.000 A 
ATOM     13  C   UNL     1      52.417   2.721  18.043  0.00  0.00    +0.000 A 
ATOM     14  C   UNL     1      51.798   1.624  17.456  0.00  0.00    +0.000 A 
ATOM     15  C   UNL     1      50.498   1.775  16.998  0.00  0.00    +0.000 A 
ATOM     16  N   UNL     1      49.798   2.926  17.089  0.00  0.00    +0.000 NA
ENDBRANCH  10  11
ENDBRANCH   9  10
ENDBRANCH   8   9
ENDBRANCH   1   5
BRANCH   1  17
ATOM     17  N   UNL     1      47.704   6.809  11.518  0.00  0.00    +0.000 N 
ATOM     18  C   UNL     1      46.334   6.846  11.482  0.00  0.00    +0.000 C 
ATOM     19  O   UNL     1      45.698   7.807  11.910  0.00  0.00    +0.000 OA
ATOM     20  H   UNL     1      48.186   5.926  11.378  0.00  0.00    +0.000 HD
BRANCH  18  21
ATOM     21  C   UNL     1      45.664   5.706  10.846  0.00  0.00    +0.000 A 
ATOM     22  C   UNL     1      45.753   5.533   9.471  0.00  0.00    +0.000 A 
ATOM     23  S   UNL     1      44.966   4.130   8.905  0.00  0.00    +0.000 S 
ATOM     24  C   UNL     1      44.433   3.730  10.470  0.00  0.00    +0.000 A 
ATOM     25  N   UNL     1      43.670   2.625  10.688  0.00  0.00    +0.000 NA
ATOM     26  C   UNL     1      43.313   2.459  11.918  0.00  0.00    +0.000 A 
ATOM     27  N   UNL     1      43.654   3.293  12.950  0.00  0.00    +0.000 N 
ATOM     28  C   UNL     1      44.439   4.409  12.781  0.00  0.00    +0.000 A 
ATOM     29  O   UNL     1      44.746   5.120  13.731  0.00  0.00    +0.000 OA
ATOM     30  C   UNL     1      44.864   4.646  11.414  0.00  0.00    +0.000 A 
ATOM     31  H   UNL     1      43.347   3.104  13.893  0.00  0.00    +0.000 HD
ENDBRANCH  18  21
ENDBRANCH   1  17
TORSDOF 6
ENDMDL
MODEL 8
REMARK VINA RESULT:    -6.976      3.365      8.126
REMARK INTER + INTRA:         -10.446
REMARK INTER:                  -9.480
REMARK INTRA:                  -0.966
REMARK UNBOUND:                -1.023
REMARK  Name = 
REMARK  7 active torsions:
REMARK  status: ('A' for Active; 'I' for Inactive)
REMARK    1  A    between atoms: C_1  and  C_2
REMARK    2  A    between atoms: C_4  and  C_5
REMARK    3  A    between atoms: C_5  and  N_6
REMARK    4  A    between atoms: C_7  and  C_9
REMARK    5  A    between atoms: C_21  and  C_22
REMARK    6  A    between atoms: C_22  and  O_23
REMARK    7  A    between atoms: O_23  and  C_24
REMARK                            x       y       z     vdW  Elec       q    Type
REMARK                         _______ _______ _______ _____ _____    ______ ____
ROOT
ATOM      1  C   UNL     1      48.169   7.325  13.222  0.00  0.00    +0.000 C 
ENDROOT
BRANCH   1   5
ATOM      2  C   UNL     1      47.403   4.071  16.973  0.00  0.00    +0.000 C 
ATOM      3  C   UNL     1      48.265   5.144  16.368  0.00  0.00    +0.000 A 
ATOM      4  C   UNL     1      47.875   5.709  15.139  0.00  0.00    +0.000 A 
ATOM      5  C   UNL     1      48.612   6.739  14.537  0.00  0.00    +0.000 A 
ATOM      6  C   UNL     1      49.784   7.176  15.160  0.00  0.00    +0.000 A 
ATOM      7  C   UNL     1      50.191   6.615  16.373  0.00  0.00    +0.000 A 
ATOM      8  C   UNL     1      49.436   5.608  17.002  0.00  0.00    +0.000 A 
BRANCH   8   9
ATOM      9  C   UNL     1      49.924   5.064  18.332  0.00  0.00    +0.000 C 
BRANCH   9  10
ATOM     10  O   UNL     1      51.340   4.874  18.281  0.00  0.00    +0.000 OA
BRANCH  10  11
ATOM     11  C   UNL     1      51.692   3.559  18.051  0.00  0.00    +0.000 A 
ATOM     12  C   UNL     1      52.967   3.178  18.447  0.00  0.00    +0.000 A 
ATOM     13  C   UNL     1      53.358   1.857  18.244  0.00  0.00    +0.000 A 
ATOM     14  C   UNL     1      52.468   0.967  17.657  0.00  0.00    +0.000 A 
ATOM     15  C   UNL     1      51.216   1.438  17.293  0.00  0.00    +0.000 A 
ATOM     16  N   UNL     1      50.812   2.713  17.474  0.00  0.00    +0.000 NA
ENDBRANCH  10  11
ENDBRANCH   9  10
ENDBRANCH   8   9
ENDBRANCH   1   5
BRANCH   1  17
ATOM     17  N   UNL     1      47.450   6.353  12.438  0.00  0.00    +0.000 N 
ATOM     18  C   UNL     1      46.320   6.692  11.740  0.00  0.00    +0.000 C 
ATOM     19  O   UNL     1      45.894   7.846  11.712  0.00  0.00    +0.000 OA
ATOM     20  H   UNL     1      47.642   5.376  12.634  0.00  0.00    +0.000 HD
BRANCH  18  21
ATOM     21  C   UNL     1      45.675   5.621  10.973  0.00  0.00    +0.000 A 
ATOM     22  C   UNL     1      45.776   5.608   9.588  0.00  0.00    +0.000 A 
ATOM     23  S   UNL     1      45.019   4.265   8.858  0.00  0.00    +0.000 S 
ATOM     24  C   UNL     1      44.485   3.678  10.363  0.00  0.00    +0.000 A 
ATOM     25  N   UNL     1      43.743   2.541  10.447  0.00  0.00    +0.000 NA
ATOM     26  C   UNL     1      43.382   2.228  11.647  0.00  0.00    +0.000 A 
ATOM     27  N   UNL     1      43.701   2.945  12.771  0.00  0.00    +0.000 N 
ATOM     28  C   UNL     1      44.465   4.087  12.736  0.00  0.00    +0.000 A 
ATOM     29  O   UNL     1      44.753   4.691  13.764  0.00  0.00    +0.000 OA
ATOM     30  C   UNL     1      44.892   4.488  11.409  0.00  0.00    +0.000 A 
ATOM     31  H   UNL     1      43.393   2.643  13.683  0.00  0.00    +0.000 HD
ENDBRANCH  18  21
ENDBRANCH   1  17
TORSDOF 6
ENDMDL
MODEL 9
REMARK VINA RESULT:    -6.776      4.669      7.484
REMARK INTER + INTRA:         -10.176
REMARK INTER:                  -9.171
REMARK INTRA:                  -1.005
REMARK UNBOUND:                -1.023
REMARK  Name = 
REMARK  7 active torsions:
REMARK  status: ('A' for Active; 'I' for Inactive)
REMARK    1  A    between atoms: C_1  and  C_2
REMARK    2  A    between atoms: C_4  and  C_5
REMARK    3  A    between atoms: C_5  and  N_6
REMARK    4  A    between atoms: C_7  and  C_9
REMARK    5  A    between atoms: C_21  and  C_22
REMARK    6  A    between atoms: C_22  and  O_23
REMARK    7  A    between atoms: O_23  and  C_24
REMARK                            x       y       z     vdW  Elec       q    Type
REMARK                         _______ _______ _______ _____ _____    ______ ____
ROOT
ATOM      1  C   UNL     1      46.583   8.265  12.507  0.00  0.00    +0.000 C 
ENDROOT
BRANCH   1   5
ATOM      2  C   UNL     1      50.272  11.290  10.933  0.00  0.00    +0.000 C 
ATOM      3  C   UNL     1      49.838   9.910  11.343  0.00  0.00    +0.000 A 
ATOM      4  C   UNL     1      48.501   9.712  11.735  0.00  0.00    +0.000 A 
ATOM      5  C   UNL     1      48.020   8.445  12.094  0.00  0.00    +0.000 A 
ATOM      6  C   UNL     1      48.910   7.368  12.102  0.00  0.00    +0.000 A 
ATOM      7  C   UNL     1      50.244   7.552  11.729  0.00  0.00    +0.000 A 
ATOM      8  C   UNL     1      50.724   8.813  11.331  0.00  0.00    +0.000 A 
BRANCH   8   9
ATOM      9  C   UNL     1      52.179   8.933  10.913  0.00  0.00    +0.000 C 
BRANCH   9  10
ATOM     10  O   UNL     1      52.281   8.803   9.493  0.00  0.00    +0.000 OA
BRANCH  10  11
ATOM     11  C   UNL     1      52.812   7.587   9.107  0.00  0.00    +0.000 A 
ATOM     12  C   UNL     1      52.709   7.263   7.762  0.00  0.00    +0.000 A 
ATOM     13  C   UNL     1      53.242   6.052   7.328  0.00  0.00    +0.000 A 
ATOM     14  C   UNL     1      53.857   5.211   8.248  0.00  0.00    +0.000 A 
ATOM     15  C   UNL     1      53.911   5.619   9.572  0.00  0.00    +0.000 A 
ATOM     16  N   UNL     1      53.399   6.785  10.021  0.00  0.00    +0.000 NA
ENDBRANCH  10  11
ENDBRANCH   9  10
ENDBRANCH   8   9
ENDBRANCH   1   5
BRANCH   1  17
ATOM     17  N   UNL     1      46.133   6.920  12.247  0.00  0.00    +0.000 N 
ATOM     18  C   UNL     1      44.916   6.673  11.668  0.00  0.00    +0.000 C 
ATOM     19  O   UNL     1      44.173   7.581  11.302  0.00  0.00    +0.000 OA
ATOM     20  H   UNL     1      46.612   6.175  12.743  0.00  0.00    +0.000 HD
BRANCH  18  21
ATOM     21  C   UNL     1      44.568   5.264  11.447  0.00  0.00    +0.000 A 
ATOM     22  C   UNL     1      43.841   4.576  12.409  0.00  0.00    +0.000 A 
ATOM     23  S   UNL     1      43.474   2.969  11.970  0.00  0.00    +0.000 S 
ATOM     24  C   UNL     1      44.318   3.119  10.500  0.00  0.00    +0.000 A 
ATOM     25  N   UNL     1      44.412   2.072   9.637  0.00  0.00    +0.000 NA
ATOM     26  C   UNL     1      45.104   2.317   8.576  0.00  0.00    +0.000 A 
ATOM     27  N   UNL     1      45.707   3.516   8.295  0.00  0.00    +0.000 N 
ATOM     28  C   UNL     1      45.622   4.607   9.127  0.00  0.00    +0.000 A 
ATOM     29  O   UNL     1      46.152   5.673   8.834  0.00  0.00    +0.000 OA
ATOM     30  C   UNL     1      44.858   4.383  10.340  0.00  0.00    +0.000 A 
ATOM     31  H   UNL     1      46.231   3.646   7.443  0.00  0.00    +0.000 HD
ENDBRANCH  18  21
ENDBRANCH   1  17
TORSDOF 6
ENDMDL
