MODEL 1
REMARK VINA RESULT:    -7.772      0.000      0.000
REMARK INTER + INTRA:         -12.378
REMARK INTER:                 -11.407
REMARK INTRA:                  -0.971
REMARK UNBOUND:                -0.971
REMARK  Name = 
REMARK  9 active torsions:
REMARK  status: ('A' for Active; 'I' for Inactive)
REMARK    1  A    between atoms: C_1  and  C_2
REMARK    2  A    between atoms: C_2  and  N_3
REMARK    3  A    between atoms: C_2  and  C_19
REMARK    4  A    between atoms: N_3  and  C_4
REMARK    5  A    between atoms: C_4  and  C_5
REMARK    6  A    between atoms: C_8  and  C_9
REMARK    7  A    between atoms: C_9  and  N_10
REMARK    8  A    between atoms: N_10  and  C_11
REMARK    9  A    between atoms: C_11  and  C_12
REMARK                            x       y       z     vdW  Elec       q    Type
REMARK                         _______ _______ _______ _____ _____    ______ ____
ROOT
ATOM      1  C   UNL     1      47.916   5.508  15.196  0.00  0.00    +0.000 C 
ENDROOT
BRANCH   1   2
ATOM      2  C   UNL     1      47.158   5.420  13.886  0.00  0.00    +0.000 A 
ATOM      3  C   UNL     1      47.265   6.441  12.929  0.00  0.00    +0.000 A 
ATOM      4  C   UNL     1      46.515   6.396  11.751  0.00  0.00    +0.000 A 
ATOM      5  C   UNL     1      45.661   5.317  11.487  0.00  0.00    +0.000 A 
ATOM      6  C   UNL     1      45.580   4.280  12.425  0.00  0.00    +0.000 A 
ATOM      7  C   UNL     1      46.316   4.333  13.614  0.00  0.00    +0.000 A 
BRANCH   5   8
ATOM      8  C   UNL     1      44.823   5.291  10.229  0.00  0.00    +0.000 C 
BRANCH   8   9
ATOM      9  N   UNL     1      45.656   5.032   9.055  0.00  0.00    +0.000 NA
ATOM     10  H   UNL     1      46.560   4.693   9.386  0.00  0.00    +0.000 HD
BRANCH   9  11
ATOM     11  C   UNL     1      45.061   4.004   8.205  0.00  0.00    +0.000 C 
BRANCH  11  12
ATOM     12  C   UNL     1      46.128   3.090   7.729  0.00  0.00    +0.000 A 
ATOM     13  C   UNL     1      46.359   1.745   7.912  0.00  0.00    +0.000 A 
ATOM     14  N   UNL     1      47.501   1.350   7.261  0.00  0.00    +0.000 NA
ATOM     15  C   UNL     1      47.964   2.435   6.683  0.00  0.00    +0.000 A 
ATOM     16  N   UNL     1      47.162   3.508   6.925  0.00  0.00    +0.000 N 
ATOM     17  H   UNL     1      47.302   4.461   6.615  0.00  0.00    +0.000 HD
ENDBRANCH  11  12
ENDBRANCH   9  11
ENDBRANCH   8   9
ENDBRANCH   5   8
ENDBRANCH   1   2
BRANCH   1  18
ATOM     18  N   UNL     1      48.139   4.171  15.739  0.00  0.00    +0.000 NA
ATOM     19  H   UNL     1      47.466   3.537  15.312  0.00  0.00    +0.000 HD
BRANCH  18  21
ATOM     20  C   UNL     1      47.145   5.184  17.790  0.00  0.00    +0.000 C 
ATOM     21  C   UNL     1      47.994   4.055  17.196  0.00  0.00    +0.000 C 
BRANCH  21  22
ATOM     22  C   UNL     1      49.405   4.094  17.773  0.00  0.00    +0.000 A 
ATOM     23  C   UNL     1      49.890   5.115  18.582  0.00  0.00    +0.000 A 
ATOM     24  S   UNL     1      51.507   4.892  19.070  0.00  0.00    +0.000 S 
ATOM     25  C   UNL     1      51.610   3.403  18.254  0.00  0.00    +0.000 A 
ATOM     26  N   UNL     1      52.749   2.662  18.289  0.00  0.00    +0.000 NA
ATOM     27  C   UNL     1      52.671   1.541  17.650  0.00  0.00    +0.000 A 
ATOM     28  N   UNL     1      51.562   1.101  16.972  0.00  0.00    +0.000 N 
ATOM     29  C   UNL     1      50.401   1.836  16.868  0.00  0.00    +0.000 A 
ATOM     30  O   UNL     1      49.446   1.441  16.206  0.00  0.00    +0.000 OA
ATOM     31  C   UNL     1      50.430   3.090  17.599  0.00  0.00    +0.000 A 
ATOM     32  H   UNL     1      51.576   0.216  16.487  0.00  0.00    +0.000 HD
ENDBRANCH  21  22
ENDBRANCH  18  21
ENDBRANCH   1  18
TORSDOF 8
ENDMDL
MODEL 2
REMARK VINA RESULT:    -7.341      2.856      3.754
REMARK INTER + INTRA:         -11.746
REMARK INTER:                 -10.933
REMARK INTRA:                  -0.813
REMARK UNBOUND:                -0.971
REMARK  Name = 
REMARK  9 active torsions:
REMARK  status: ('A' for Active; 'I' for Inactive)
REMARK    1  A    between atoms: C_1  and  C_2
REMARK    2  A    between atoms: C_2  and  N_3
REMARK    3  A    between atoms: C_2  and  C_19
REMARK    4  A    between atoms: N_3  and  C_4
REMARK    5  A    between atoms: C_4  and  C_5
REMARK    6  A    between atoms: C_8  and  C_9
REMARK    7  A    between atoms: C_9  and  N_10
REMARK    8  A    between atoms: N_10  and  C_11
REMARK    9  A    between atoms: C_11  and  C_12
REMARK                            x       y       z     vdW  Elec       q    Type
REMARK                         _______ _______ _______ _____ _____    ______ ____
ROOT
ATOM      1  C   UNL     1      47.644   6.725  13.535  0.00  0.00    +0.000 C 
ENDROOT
BRANCH   1   2
ATOM      2  C   UNL     1      46.722   5.844  12.714  0.00  0.00    +0.000 A 
ATOM      3  C   UNL     1      46.340   6.223  11.417  0.00  0.00    +0.000 A 
ATOM      4  C   UNL     1      45.437   5.448  10.684  0.00  0.00    +0.000 A 
ATOM      5  C   UNL     1      44.916   4.261  11.217  0.00  0.00    +0.000 A 
ATOM      6  C   UNL     1      45.325   3.863  12.496  0.00  0.00    +0.000 A 
ATOM      7  C   UNL     1      46.213   4.648  13.239  0.00  0.00    +0.000 A 
BRANCH   5   8
ATOM      8  C   UNL     1      43.911   3.446  10.436  0.00  0.00    +0.000 C 
BRANCH   8   9
ATOM      9  N   UNL     1      44.403   3.167   9.087  0.00  0.00    +0.000 NA
ATOM     10  H   UNL     1      45.147   3.836   8.885  0.00  0.00    +0.000 HD
BRANCH   9  11
ATOM     11  C   UNL     1      44.959   1.819   8.998  0.00  0.00    +0.000 C 
BRANCH  11  12
ATOM     12  C   UNL     1      46.140   1.839   8.100  0.00  0.00    +0.000 A 
ATOM     13  C   UNL     1      46.953   0.845   7.601  0.00  0.00    +0.000 A 
ATOM     14  N   UNL     1      47.934   1.371   6.798  0.00  0.00    +0.000 NA
ATOM     15  C   UNL     1      47.725   2.668   6.798  0.00  0.00    +0.000 A 
ATOM     16  N   UNL     1      46.645   2.997   7.559  0.00  0.00    +0.000 N 
ATOM     17  H   UNL     1      46.283   3.924   7.743  0.00  0.00    +0.000 HD
ENDBRANCH  11  12
ENDBRANCH   9  11
ENDBRANCH   8   9
ENDBRANCH   5   8
ENDBRANCH   1   2
BRANCH   1  18
ATOM     18  N   UNL     1      48.235   5.954  14.626  0.00  0.00    +0.000 NA
ATOM     19  H   UNL     1      47.509   5.368  15.033  0.00  0.00    +0.000 HD
BRANCH  18  21
ATOM     20  C   UNL     1      50.299   7.072  15.470  0.00  0.00    +0.000 C 
ATOM     21  C   UNL     1      48.820   6.754  15.710  0.00  0.00    +0.000 C 
BRANCH  21  22
ATOM     22  C   UNL     1      48.654   5.934  16.986  0.00  0.00    +0.000 A 
ATOM     23  C   UNL     1      48.893   4.569  17.072  0.00  0.00    +0.000 A 
ATOM     24  S   UNL     1      48.614   3.921  18.624  0.00  0.00    +0.000 S 
ATOM     25  C   UNL     1      48.203   5.449  19.250  0.00  0.00    +0.000 A 
ATOM     26  N   UNL     1      47.874   5.603  20.560  0.00  0.00    +0.000 NA
ATOM     27  C   UNL     1      47.615   6.823  20.901  0.00  0.00    +0.000 A 
ATOM     28  N   UNL     1      47.647   7.898  20.049  0.00  0.00    +0.000 N 
ATOM     29  C   UNL     1      47.928   7.786  18.705  0.00  0.00    +0.000 A 
ATOM     30  O   UNL     1      47.890   8.758  17.956  0.00  0.00    +0.000 OA
ATOM     31  C   UNL     1      48.257   6.437  18.281  0.00  0.00    +0.000 A 
ATOM     32  H   UNL     1      47.424   8.823  20.383  0.00  0.00    +0.000 HD
ENDBRANCH  21  22
ENDBRANCH  18  21
ENDBRANCH   1  18
TORSDOF 8
ENDMDL
MODEL 3
REMARK VINA RESULT:    -7.312      1.203      1.475
REMARK INTER + INTRA:         -11.702
REMARK INTER:                 -11.201
REMARK INTRA:                  -0.501
REMARK UNBOUND:                -0.971
REMARK  Name = 
REMARK  9 active torsions:
REMARK  status: ('A' for Active; 'I' for Inactive)
REMARK    1  A    between atoms: C_1  and  C_2
REMARK    2  A    between atoms: C_2  and  N_3
REMARK    3  A    between atoms: C_2  and  C_19
REMARK    4  A    between atoms: N_3  and  C_4
REMARK    5  A    between atoms: C_4  and  C_5
REMARK    6  A    between atoms: C_8  and  C_9
REMARK    7  A    between atoms: C_9  and  N_10
REMARK    8  A    between atoms: N_10  and  C_11
REMARK    9  A    between atoms: C_11  and  C_12
REMARK                            x       y       z     vdW  Elec       q    Type
REMARK                         _______ _______ _______ _____ _____    ______ ____
ROOT
ATOM      1  C   UNL     1      48.418   6.098  14.622  0.00  0.00    +0.000 C 
ENDROOT
BRANCH   1   2
ATOM      2  C   UNL     1      47.125   6.031  13.835  0.00  0.00    +0.000 A 
ATOM      3  C   UNL     1      46.655   7.153  13.134  0.00  0.00    +0.000 A 
ATOM      4  C   UNL     1      45.430   7.115  12.464  0.00  0.00    +0.000 A 
ATOM      5  C   UNL     1      44.656   5.946  12.453  0.00  0.00    +0.000 A 
ATOM      6  C   UNL     1      45.141   4.814  13.121  0.00  0.00    +0.000 A 
ATOM      7  C   UNL     1      46.358   4.857  13.809  0.00  0.00    +0.000 A 
BRANCH   5   8
ATOM      8  C   UNL     1      43.314   5.921  11.759  0.00  0.00    +0.000 C 
BRANCH   8   9
ATOM      9  N   UNL     1      43.432   5.348  10.418  0.00  0.00    +0.000 NA
ATOM     10  H   UNL     1      44.245   5.773   9.972  0.00  0.00    +0.000 HD
BRANCH   9  11
ATOM     11  C   UNL     1      43.643   3.904  10.481  0.00  0.00    +0.000 C 
BRANCH  11  12
ATOM     12  C   UNL     1      44.594   3.506   9.414  0.00  0.00    +0.000 A 
ATOM     13  C   UNL     1      45.141   2.294   9.052  0.00  0.00    +0.000 A 
ATOM     14  N   UNL     1      45.987   2.438   7.981  0.00  0.00    +0.000 NA
ATOM     15  C   UNL     1      45.959   3.718   7.686  0.00  0.00    +0.000 A 
ATOM     16  N   UNL     1      45.122   4.401   8.514  0.00  0.00    +0.000 N 
ATOM     17  H   UNL     1      44.935   5.396   8.515  0.00  0.00    +0.000 HD
ENDBRANCH  11  12
ENDBRANCH   9  11
ENDBRANCH   8   9
ENDBRANCH   5   8
ENDBRANCH   1   2
BRANCH   1  18
ATOM     18  N   UNL     1      48.139   6.033  16.054  0.00  0.00    +0.000 NA
ATOM     19  H   UNL     1      48.821   6.614  16.538  0.00  0.00    +0.000 HD
BRANCH  18  21
ATOM     20  C   UNL     1      47.093   4.444  17.668  0.00  0.00    +0.000 C 
ATOM     21  C   UNL     1      48.205   4.689  16.643  0.00  0.00    +0.000 C 
BRANCH  21  22
ATOM     22  C   UNL     1      49.573   4.577  17.309  0.00  0.00    +0.000 A 
ATOM     23  C   UNL     1      50.188   5.611  18.004  0.00  0.00    +0.000 A 
ATOM     24  S   UNL     1      51.718   5.198  18.632  0.00  0.00    +0.000 S 
ATOM     25  C   UNL     1      51.599   3.610  18.034  0.00  0.00    +0.000 A 
ATOM     26  N   UNL     1      52.590   2.704  18.250  0.00  0.00    +0.000 NA
ATOM     27  C   UNL     1      52.348   1.530  17.765  0.00  0.00    +0.000 A 
ATOM     28  N   UNL     1      51.213   1.185  17.076  0.00  0.00    +0.000 N 
ATOM     29  C   UNL     1      50.204   2.078  16.791  0.00  0.00    +0.000 A 
ATOM     30  O   UNL     1      49.227   1.755  16.121  0.00  0.00    +0.000 OA
ATOM     31  C   UNL     1      50.415   3.404  17.345  0.00  0.00    +0.000 A 
ATOM     32  H   UNL     1      51.096   0.249  16.717  0.00  0.00    +0.000 HD
ENDBRANCH  21  22
ENDBRANCH  18  21
ENDBRANCH   1  18
TORSDOF 8
ENDMDL
MODEL 4
REMARK VINA RESULT:    -7.240      1.825      2.297
REMARK INTER + INTRA:         -11.598
REMARK INTER:                 -10.648
REMARK INTRA:                  -0.950
REMARK UNBOUND:                -0.971
REMARK  Name = 
REMARK  9 active torsions:
REMARK  status: ('A' for Active; 'I' for Inactive)
REMARK    1  A    between atoms: C_1  and  C_2
REMARK    2  A    between atoms: C_2  and  N_3
REMARK    3  A    between atoms: C_2  and  C_19
REMARK    4  A    between atoms: N_3  and  C_4
REMARK    5  A    between atoms: C_4  and  C_5
REMARK    6  A    between atoms: C_8  and  C_9
REMARK    7  A    between atoms: C_9  and  N_10
REMARK    8  A    between atoms: N_10  and  C_11
REMARK    9  A    between atoms: C_11  and  C_12
REMARK                            x       y       z     vdW  Elec       q    Type
REMARK                         _______ _______ _______ _____ _____    ______ ____
ROOT
ATOM      1  C   UNL     1      48.029   6.501  13.874  0.00  0.00    +0.000 C 
ENDROOT
BRANCH   1   2
ATOM      2  C   UNL     1      47.010   5.671  13.118  0.00  0.00    +0.000 A 
ATOM      3  C   UNL     1      46.774   4.333  13.471  0.00  0.00    +0.000 A 
ATOM      4  C   UNL     1      45.887   3.546  12.733  0.00  0.00    +0.000 A 
ATOM      5  C   UNL     1      45.191   4.083  11.642  0.00  0.00    +0.000 A 
ATOM      6  C   UNL     1      45.397   5.428  11.311  0.00  0.00    +0.000 A 
ATOM      7  C   UNL     1      46.301   6.212  12.037  0.00  0.00    +0.000 A 
BRANCH   5   8
ATOM      8  C   UNL     1      44.260   3.218  10.824  0.00  0.00    +0.000 C 
BRANCH   8   9
ATOM      9  N   UNL     1      45.012   2.396   9.876  0.00  0.00    +0.000 NA
ATOM     10  H   UNL     1      44.493   1.528   9.741  0.00  0.00    +0.000 HD
BRANCH   9  11
ATOM     11  C   UNL     1      45.135   3.065   8.583  0.00  0.00    +0.000 C 
BRANCH  11  12
ATOM     12  C   UNL     1      46.272   2.473   7.837  0.00  0.00    +0.000 A 
ATOM     13  C   UNL     1      46.755   1.187   7.733  0.00  0.00    +0.000 A 
ATOM     14  N   UNL     1      47.852   1.140   6.909  0.00  0.00    +0.000 NA
ATOM     15  C   UNL     1      48.039   2.378   6.509  0.00  0.00    +0.000 A 
ATOM     16  N   UNL     1      47.102   3.216   7.032  0.00  0.00    +0.000 N 
ATOM     17  H   UNL     1      47.032   4.217   6.900  0.00  0.00    +0.000 HD
ENDBRANCH  11  12
ENDBRANCH   9  11
ENDBRANCH   8   9
ENDBRANCH   5   8
ENDBRANCH   1   2
BRANCH   1  18
ATOM     18  N   UNL     1      48.296   5.903  15.180  0.00  0.00    +0.000 NA
ATOM     19  H   UNL     1      47.427   5.504  15.530  0.00  0.00    +0.000 HD
BRANCH  18  21
ATOM     20  C   UNL     1      48.663   8.297  15.777  0.00  0.00    +0.000 C 
ATOM     21  C   UNL     1      48.801   6.831  16.200  0.00  0.00    +0.000 C 
BRANCH  21  22
ATOM     22  C   UNL     1      50.269   6.476  16.414  0.00  0.00    +0.000 A 
ATOM     23  C   UNL     1      51.332   7.255  15.974  0.00  0.00    +0.000 A 
ATOM     24  S   UNL     1      52.860   6.603  16.348  0.00  0.00    +0.000 S 
ATOM     25  C   UNL     1      52.161   5.275  17.150  0.00  0.00    +0.000 A 
ATOM     26  N   UNL     1      52.936   4.324  17.736  0.00  0.00    +0.000 NA
ATOM     27  C   UNL     1      52.268   3.392  18.334  0.00  0.00    +0.000 A 
ATOM     28  N   UNL     1      50.899   3.321  18.388  0.00  0.00    +0.000 N 
ATOM     29  C   UNL     1      50.072   4.233  17.770  0.00  0.00    +0.000 A 
ATOM     30  O   UNL     1      48.851   4.110  17.787  0.00  0.00    +0.000 OA
ATOM     31  C   UNL     1      50.778   5.319  17.113  0.00  0.00    +0.000 A 
ATOM     32  H   UNL     1      50.444   2.558  18.867  0.00  0.00    +0.000 HD
ENDBRANCH  21  22
ENDBRANCH  18  21
ENDBRANCH   1  18
TORSDOF 8
ENDMDL
MODEL 5
REMARK VINA RESULT:    -7.142      3.234      8.594
REMARK INTER + INTRA:         -11.453
REMARK INTER:                 -10.198
REMARK INTRA:                  -1.254
REMARK UNBOUND:                -0.971
REMARK  Name = 
REMARK  9 active torsions:
REMARK  status: ('A' for Active; 'I' for Inactive)
REMARK    1  A    between atoms: C_1  and  C_2
REMARK    2  A    between atoms: C_2  and  N_3
REMARK    3  A    between atoms: C_2  and  C_19
REMARK    4  A    between atoms: N_3  and  C_4
REMARK    5  A    between atoms: C_4  and  C_5
REMARK    6  A    between atoms: C_8  and  C_9
REMARK    7  A    between atoms: C_9  and  N_10
REMARK    8  A    between atoms: N_10  and  C_11
REMARK    9  A    between atoms: C_11  and  C_12
REMARK                            x       y       z     vdW  Elec       q    Type
REMARK                         _______ _______ _______ _____ _____    ______ ____
ROOT
ATOM      1  C   UNL     1      47.861   7.898  12.108  0.00  0.00    +0.000 C 
ENDROOT
BRANCH   1   2
ATOM      2  C   UNL     1      48.222   7.470  13.517  0.00  0.00    +0.000 A 
ATOM      3  C   UNL     1      47.877   6.194  13.987  0.00  0.00    +0.000 A 
ATOM      4  C   UNL     1      48.147   5.821  15.306  0.00  0.00    +0.000 A 
ATOM      5  C   UNL     1      48.794   6.704  16.181  0.00  0.00    +0.000 A 
ATOM      6  C   UNL     1      49.173   7.965  15.703  0.00  0.00    +0.000 A 
ATOM      7  C   UNL     1      48.884   8.347  14.388  0.00  0.00    +0.000 A 
BRANCH   5   8
ATOM      8  C   UNL     1      49.051   6.311  17.618  0.00  0.00    +0.000 C 
BRANCH   8   9
ATOM      9  N   UNL     1      48.045   5.356  18.083  0.00  0.00    +0.000 NA
ATOM     10  H   UNL     1      47.602   4.949  17.259  0.00  0.00    +0.000 HD
BRANCH   9  11
ATOM     11  C   UNL     1      48.661   4.280  18.855  0.00  0.00    +0.000 C 
BRANCH  11  12
ATOM     12  C   UNL     1      49.204   3.262  17.922  0.00  0.00    +0.000 A 
ATOM     13  C   UNL     1      48.675   2.626  16.821  0.00  0.00    +0.000 A 
ATOM     14  N   UNL     1      49.580   1.747  16.281  0.00  0.00    +0.000 NA
ATOM     15  C   UNL     1      50.651   1.843  17.036  0.00  0.00    +0.000 A 
ATOM     16  N   UNL     1      50.477   2.755  18.032  0.00  0.00    +0.000 N 
ATOM     17  H   UNL     1      51.135   3.004  18.759  0.00  0.00    +0.000 HD
ENDBRANCH  11  12
ENDBRANCH   9  11
ENDBRANCH   8   9
ENDBRANCH   5   8
ENDBRANCH   1   2
BRANCH   1  18
ATOM     18  N   UNL     1      47.085   6.852  11.448  0.00  0.00    +0.000 NA
ATOM     19  H   UNL     1      47.457   6.724  10.509  0.00  0.00    +0.000 HD
BRANCH  18  21
ATOM     20  C   UNL     1      45.153   8.144  12.354  0.00  0.00    +0.000 C 
ATOM     21  C   UNL     1      45.648   7.127  11.322  0.00  0.00    +0.000 C 
BRANCH  21  22
ATOM     22  C   UNL     1      44.936   5.791  11.512  0.00  0.00    +0.000 A 
ATOM     23  C   UNL     1      44.195   5.455  12.637  0.00  0.00    +0.000 A 
ATOM     24  S   UNL     1      43.523   3.890  12.574  0.00  0.00    +0.000 S 
ATOM     25  C   UNL     1      44.164   3.616  11.022  0.00  0.00    +0.000 A 
ATOM     26  N   UNL     1      43.935   2.447  10.367  0.00  0.00    +0.000 NA
ATOM     27  C   UNL     1      44.457   2.392   9.185  0.00  0.00    +0.000 A 
ATOM     28  N   UNL     1      45.194   3.394   8.606  0.00  0.00    +0.000 N 
ATOM     29  C   UNL     1      45.493   4.576   9.248  0.00  0.00    +0.000 A 
ATOM     30  O   UNL     1      46.204   5.430   8.727  0.00  0.00    +0.000 OA
ATOM     31  C   UNL     1      44.899   4.698  10.567  0.00  0.00    +0.000 A 
ATOM     32  H   UNL     1      45.579   3.278   7.681  0.00  0.00    +0.000 HD
ENDBRANCH  21  22
ENDBRANCH  18  21
ENDBRANCH   1  18
TORSDOF 8
ENDMDL
MODEL 6
REMARK VINA RESULT:    -6.817      2.619      3.651
REMARK INTER + INTRA:         -10.976
REMARK INTER:                  -9.721
REMARK INTRA:                  -1.255
REMARK UNBOUND:                -0.971
REMARK  Name = 
REMARK  9 active torsions:
REMARK  status: ('A' for Active; 'I' for Inactive)
REMARK    1  A    between atoms: C_1  and  C_2
REMARK    2  A    between atoms: C_2  and  N_3
REMARK    3  A    between atoms: C_2  and  C_19
REMARK    4  A    between atoms: N_3  and  C_4
REMARK    5  A    between atoms: C_4  and  C_5
REMARK    6  A    between atoms: C_8  and  C_9
REMARK    7  A    between atoms: C_9  and  N_10
REMARK    8  A    between atoms: N_10  and  C_11
REMARK    9  A    between atoms: C_11  and  C_12
REMARK                            x       y       z     vdW  Elec       q    Type
REMARK                         _______ _______ _______ _____ _____    ______ ____
ROOT
ATOM      1  C   UNL     1      49.613   7.750  13.140  0.00  0.00    +0.000 C 
ENDROOT
BRANCH   1   2
ATOM      2  C   UNL     1      48.150   7.579  12.779  0.00  0.00    +0.000 A 
ATOM      3  C   UNL     1      47.745   6.569  11.893  0.00  0.00    +0.000 A 
ATOM      4  C   UNL     1      46.408   6.452  11.506  0.00  0.00    +0.000 A 
ATOM      5  C   UNL     1      45.437   7.324  12.016  0.00  0.00    +0.000 A 
ATOM      6  C   UNL     1      45.832   8.310  12.929  0.00  0.00    +0.000 A 
ATOM      7  C   UNL     1      47.175   8.440  13.302  0.00  0.00    +0.000 A 
BRANCH   5   8
ATOM      8  C   UNL     1      43.998   7.218  11.565  0.00  0.00    +0.000 C 
BRANCH   8   9
ATOM      9  N   UNL     1      43.294   6.176  12.313  0.00  0.00    +0.000 NA
ATOM     10  H   UNL     1      42.628   6.638  12.933  0.00  0.00    +0.000 HD
BRANCH   9  11
ATOM     11  C   UNL     1      42.553   5.294  11.415  0.00  0.00    +0.000 C 
BRANCH  11  12
ATOM     12  C   UNL     1      43.510   4.423  10.690  0.00  0.00    +0.000 A 
ATOM     13  C   UNL     1      44.266   3.338  11.077  0.00  0.00    +0.000 A 
ATOM     14  N   UNL     1      45.014   2.863  10.029  0.00  0.00    +0.000 NA
ATOM     15  C   UNL     1      44.721   3.640   9.012  0.00  0.00    +0.000 A 
ATOM     16  N   UNL     1      43.807   4.588   9.358  0.00  0.00    +0.000 N 
ATOM     17  H   UNL     1      43.429   5.320   8.771  0.00  0.00    +0.000 HD
ENDBRANCH  11  12
ENDBRANCH   9  11
ENDBRANCH   8   9
ENDBRANCH   5   8
ENDBRANCH   1   2
BRANCH   1  18
ATOM     18  N   UNL     1      49.924   6.994  14.350  0.00  0.00    +0.000 NA
ATOM     19  H   UNL     1      49.639   6.027  14.203  0.00  0.00    +0.000 HD
BRANCH  18  21
ATOM     20  C   UNL     1      49.830   8.808  16.059  0.00  0.00    +0.000 C 
ATOM     21  C   UNL     1      49.264   7.471  15.572  0.00  0.00    +0.000 C 
BRANCH  21  22
ATOM     22  C   UNL     1      49.478   6.389  16.626  0.00  0.00    +0.000 A 
ATOM     23  C   UNL     1      50.440   6.455  17.626  0.00  0.00    +0.000 A 
ATOM     24  S   UNL     1      50.452   5.095  18.654  0.00  0.00    +0.000 S 
ATOM     25  C   UNL     1      49.146   4.386  17.827  0.00  0.00    +0.000 A 
ATOM     26  N   UNL     1      48.633   3.191  18.223  0.00  0.00    +0.000 NA
ATOM     27  C   UNL     1      47.624   2.789  17.521  0.00  0.00    +0.000 A 
ATOM     28  N   UNL     1      47.090   3.470  16.456  0.00  0.00    +0.000 N 
ATOM     29  C   UNL     1      47.604   4.660  15.988  0.00  0.00    +0.000 A 
ATOM     30  O   UNL     1      47.142   5.215  14.996  0.00  0.00    +0.000 OA
ATOM     31  C   UNL     1      48.720   5.167  16.766  0.00  0.00    +0.000 A 
ATOM     32  H   UNL     1      46.305   3.091  15.947  0.00  0.00    +0.000 HD
ENDBRANCH  21  22
ENDBRANCH  18  21
ENDBRANCH   1  18
TORSDOF 8
ENDMDL
MODEL 7
REMARK VINA RESULT:    -6.807      3.895      9.314
REMARK INTER + INTRA:         -10.962
REMARK INTER:                  -9.722
REMARK INTRA:                  -1.239
REMARK UNBOUND:                -0.971
REMARK  Name = 
REMARK  9 active torsions:
REMARK  status: ('A' for Active; 'I' for Inactive)
REMARK    1  A    between atoms: C_1  and  C_2
REMARK    2  A    between atoms: C_2  and  N_3
REMARK    3  A    between atoms: C_2  and  C_19
REMARK    4  A    between atoms: N_3  and  C_4
REMARK    5  A    between atoms: C_4  and  C_5
REMARK    6  A    between atoms: C_8  and  C_9
REMARK    7  A    between atoms: C_9  and  N_10
REMARK    8  A    between atoms: N_10  and  C_11
REMARK    9  A    between atoms: C_11  and  C_12
REMARK                            x       y       z     vdW  Elec       q    Type
REMARK                         _______ _______ _______ _____ _____    ______ ____
ROOT
ATOM      1  C   UNL     1      47.470   6.350  12.418  0.00  0.00    +0.000 C 
ENDROOT
BRANCH   1   2
ATOM      2  C   UNL     1      47.634   5.825  13.832  0.00  0.00    +0.000 A 
ATOM      3  C   UNL     1      46.993   4.643  14.234  0.00  0.00    +0.000 A 
ATOM      4  C   UNL     1      47.087   4.194  15.554  0.00  0.00    +0.000 A 
ATOM      5  C   UNL     1      47.845   4.900  16.497  0.00  0.00    +0.000 A 
ATOM      6  C   UNL     1      48.515   6.060  16.089  0.00  0.00    +0.000 A 
ATOM      7  C   UNL     1      48.406   6.521  14.772  0.00  0.00    +0.000 A 
BRANCH   5   8
ATOM      8  C   UNL     1      47.913   4.432  17.933  0.00  0.00    +0.000 C 
BRANCH   8   9
ATOM      9  N   UNL     1      46.873   5.071  18.739  0.00  0.00    +0.000 NA
ATOM     10  H   UNL     1      46.271   4.333  19.108  0.00  0.00    +0.000 HD
BRANCH   9  11
ATOM     11  C   UNL     1      47.453   5.799  19.864  0.00  0.00    +0.000 C 
BRANCH  11  12
ATOM     12  C   UNL     1      47.935   7.120  19.392  0.00  0.00    +0.000 A 
ATOM     13  C   UNL     1      49.171   7.727  19.411  0.00  0.00    +0.000 A 
ATOM     14  N   UNL     1      49.113   8.977  18.848  0.00  0.00    +0.000 NA
ATOM     15  C   UNL     1      47.861   9.136  18.483  0.00  0.00    +0.000 A 
ATOM     16  N   UNL     1      47.114   8.036  18.778  0.00  0.00    +0.000 N 
ATOM     17  H   UNL     1      46.123   7.908  18.622  0.00  0.00    +0.000 HD
ENDBRANCH  11  12
ENDBRANCH   9  11
ENDBRANCH   8   9
ENDBRANCH   5   8
ENDBRANCH   1   2
BRANCH   1  18
ATOM     18  N   UNL     1      46.425   7.369  12.378  0.00  0.00    +0.000 NA
ATOM     19  H   UNL     1      45.895   7.317  13.246  0.00  0.00    +0.000 HD
BRANCH  18  21
ATOM     20  C   UNL     1      44.441   8.377  11.251  0.00  0.00    +0.000 C 
ATOM     21  C   UNL     1      45.471   7.243  11.268  0.00  0.00    +0.000 C 
BRANCH  21  22
ATOM     22  C   UNL     1      44.776   5.898  11.449  0.00  0.00    +0.000 A 
ATOM     23  C   UNL     1      43.981   5.571  12.541  0.00  0.00    +0.000 A 
ATOM     24  S   UNL     1      43.343   3.993  12.475  0.00  0.00    +0.000 S 
ATOM     25  C   UNL     1      44.071   3.699  10.966  0.00  0.00    +0.000 A 
ATOM     26  N   UNL     1      43.899   2.512  10.325  0.00  0.00    +0.000 NA
ATOM     27  C   UNL     1      44.485   2.443   9.174  0.00  0.00    +0.000 A 
ATOM     28  N   UNL     1      45.233   3.447   8.614  0.00  0.00    +0.000 N 
ATOM     29  C   UNL     1      45.475   4.648   9.245  0.00  0.00    +0.000 A 
ATOM     30  O   UNL     1      46.198   5.504   8.744  0.00  0.00    +0.000 OA
ATOM     31  C   UNL     1      44.809   4.785  10.528  0.00  0.00    +0.000 A 
ATOM     32  H   UNL     1      45.670   3.319   7.714  0.00  0.00    +0.000 HD
ENDBRANCH  21  22
ENDBRANCH  18  21
ENDBRANCH   1  18
TORSDOF 8
ENDMDL
MODEL 8
REMARK VINA RESULT:    -6.806      2.281      3.199
REMARK INTER + INTRA:         -10.961
REMARK INTER:                 -10.382
REMARK INTRA:                  -0.579
REMARK UNBOUND:                -0.971
REMARK  Name = 
REMARK  9 active torsions:
REMARK  status: ('A' for Active; 'I' for Inactive)
REMARK    1  A    between atoms: C_1  and  C_2
REMARK    2  A    between atoms: C_2  and  N_3
REMARK    3  A    between atoms: C_2  and  C_19
REMARK    4  A    between atoms: N_3  and  C_4
REMARK    5  A    between atoms: C_4  and  C_5
REMARK    6  A    between atoms: C_8  and  C_9
REMARK    7  A    between atoms: C_9  and  N_10
REMARK    8  A    between atoms: N_10  and  C_11
REMARK    9  A    between atoms: C_11  and  C_12
REMARK                            x       y       z     vdW  Elec       q    Type
REMARK                         _______ _______ _______ _____ _____    ______ ____
ROOT
ATOM      1  C   UNL     1      47.974   5.880  14.786  0.00  0.00    +0.000 C 
ENDROOT
BRANCH   1   2
ATOM      2  C   UNL     1      47.072   5.647  13.590  0.00  0.00    +0.000 A 
ATOM      3  C   UNL     1      46.174   4.569  13.571  0.00  0.00    +0.000 A 
ATOM      4  C   UNL     1      45.390   4.312  12.443  0.00  0.00    +0.000 A 
ATOM      5  C   UNL     1      45.464   5.142  11.317  0.00  0.00    +0.000 A 
ATOM      6  C   UNL     1      46.334   6.240  11.347  0.00  0.00    +0.000 A 
ATOM      7  C   UNL     1      47.133   6.486  12.469  0.00  0.00    +0.000 A 
BRANCH   5   8
ATOM      8  C   UNL     1      44.643   4.838  10.085  0.00  0.00    +0.000 C 
BRANCH   8   9
ATOM      9  N   UNL     1      45.497   4.739   8.901  0.00  0.00    +0.000 NA
ATOM     10  H   UNL     1      46.426   4.453   9.214  0.00  0.00    +0.000 HD
BRANCH   9  11
ATOM     11  C   UNL     1      44.993   3.732   7.972  0.00  0.00    +0.000 C 
BRANCH  11  12
ATOM     12  C   UNL     1      46.090   2.792   7.632  0.00  0.00    +0.000 A 
ATOM     13  C   UNL     1      47.244   2.930   6.893  0.00  0.00    +0.000 A 
ATOM     14  N   UNL     1      47.951   1.753   6.863  0.00  0.00    +0.000 NA
ATOM     15  C   UNL     1      47.245   0.906   7.577  0.00  0.00    +0.000 A 
ATOM     16  N   UNL     1      46.119   1.491   8.073  0.00  0.00    +0.000 N 
ATOM     17  H   UNL     1      45.398   1.057   8.634  0.00  0.00    +0.000 HD
ENDBRANCH  11  12
ENDBRANCH   9  11
ENDBRANCH   8   9
ENDBRANCH   5   8
ENDBRANCH   1   2
BRANCH   1  18
ATOM     18  N   UNL     1      47.479   5.136  15.942  0.00  0.00    +0.000 NA
ATOM     19  H   UNL     1      47.260   5.803  16.679  0.00  0.00    +0.000 HD
BRANCH  18  21
ATOM     20  C   UNL     1      47.697   2.976  17.169  0.00  0.00    +0.000 C 
ATOM     21  C   UNL     1      48.416   4.151  16.499  0.00  0.00    +0.000 C 
BRANCH  21  22
ATOM     22  C   UNL     1      49.271   4.899  17.517  0.00  0.00    +0.000 A 
ATOM     23  C   UNL     1      50.657   4.975  17.465  0.00  0.00    +0.000 A 
ATOM     24  S   UNL     1      51.342   5.871  18.742  0.00  0.00    +0.000 S 
ATOM     25  C   UNL     1      49.810   6.227  19.391  0.00  0.00    +0.000 A 
ATOM     26  N   UNL     1      49.683   6.997  20.504  0.00  0.00    +0.000 NA
ATOM     27  C   UNL     1      48.459   7.209  20.864  0.00  0.00    +0.000 A 
ATOM     28  N   UNL     1      47.356   6.713  20.217  0.00  0.00    +0.000 N 
ATOM     29  C   UNL     1      47.434   5.891  19.114  0.00  0.00    +0.000 A 
ATOM     30  O   UNL     1      46.430   5.415  18.593  0.00  0.00    +0.000 OA
ATOM     31  C   UNL     1      48.790   5.651  18.653  0.00  0.00    +0.000 A 
ATOM     32  H   UNL     1      46.428   6.913  20.560  0.00  0.00    +0.000 HD
ENDBRANCH  21  22
ENDBRANCH  18  21
ENDBRANCH   1  18
TORSDOF 8
ENDMDL
MODEL 9
REMARK VINA RESULT:    -6.745      3.210      8.802
REMARK INTER + INTRA:         -10.870
REMARK INTER:                  -9.786
REMARK INTRA:                  -1.084
REMARK UNBOUND:                -0.971
REMARK  Name = 
REMARK  9 active torsions:
REMARK  status: ('A' for Active; 'I' for Inactive)
REMARK    1  A    between atoms: C_1  and  C_2
REMARK    2  A    between atoms: C_2  and  N_3
REMARK    3  A    between atoms: C_2  and  C_19
REMARK    4  A    between atoms: N_3  and  C_4
REMARK    5  A    between atoms: C_4  and  C_5
REMARK    6  A    between atoms: C_8  and  C_9
REMARK    7  A    between atoms: C_9  and  N_10
REMARK    8  A    between atoms: N_10  and  C_11
REMARK    9  A    between atoms: C_11  and  C_12
REMARK                            x       y       z     vdW  Elec       q    Type
REMARK                         _______ _______ _______ _____ _____    ______ ____
ROOT
ATOM      1  C   UNL     1      48.442   5.691  17.203  0.00  0.00    +0.000 C 
ENDROOT
BRANCH   1   2
ATOM      2  C   UNL     1      49.339   4.474  17.323  0.00  0.00    +0.000 A 
ATOM      3  C   UNL     1      50.705   4.619  17.611  0.00  0.00    +0.000 A 
ATOM      4  C   UNL     1      51.547   3.505  17.655  0.00  0.00    +0.000 A 
ATOM      5  C   UNL     1      51.040   2.217  17.440  0.00  0.00    +0.000 A 
ATOM      6  C   UNL     1      49.671   2.066  17.189  0.00  0.00    +0.000 A 
ATOM      7  C   UNL     1      48.830   3.183  17.125  0.00  0.00    +0.000 A 
BRANCH   5   8
ATOM      8  C   UNL     1      51.962   1.018  17.451  0.00  0.00    +0.000 C 
BRANCH   8   9
ATOM      9  N   UNL     1      53.173   1.300  18.222  0.00  0.00    +0.000 NA
ATOM     10  H   UNL     1      53.216   0.624  18.986  0.00  0.00    +0.000 HD
BRANCH   9  11
ATOM     11  C   UNL     1      54.369   1.142  17.399  0.00  0.00    +0.000 C 
BRANCH  11  12
ATOM     12  C   UNL     1      54.567  -0.298  17.101  0.00  0.00    +0.000 A 
ATOM     13  C   UNL     1      54.754  -1.402  17.904  0.00  0.00    +0.000 A 
ATOM     14  N   UNL     1      54.896  -2.539  17.148  0.00  0.00    +0.000 NA
ATOM     15  C   UNL     1      54.795  -2.141  15.900  0.00  0.00    +0.000 A 
ATOM     16  N   UNL     1      54.582  -0.798  15.822  0.00  0.00    +0.000 N 
ATOM     17  H   UNL     1      54.489  -0.239  14.983  0.00  0.00    +0.000 HD
ENDBRANCH  11  12
ENDBRANCH   9  11
ENDBRANCH   8   9
ENDBRANCH   5   8
ENDBRANCH   1   2
BRANCH   1  18
ATOM     18  N   UNL     1      47.618   5.592  16.001  0.00  0.00    +0.000 NA
ATOM     19  H   UNL     1      47.353   4.617  15.876  0.00  0.00    +0.000 HD
BRANCH  18  21
ATOM     20  C   UNL     1      48.979   7.383  14.923  0.00  0.00    +0.000 C 
ATOM     21  C   UNL     1      48.267   6.037  14.760  0.00  0.00    +0.000 C 
BRANCH  21  22
ATOM     22  C   UNL     1      47.163   6.144  13.713  0.00  0.00    +0.000 A 
ATOM     23  C   UNL     1      46.744   7.339  13.142  0.00  0.00    +0.000 A 
ATOM     24  S   UNL     1      45.486   7.152  12.008  0.00  0.00    +0.000 S 
ATOM     25  C   UNL     1      45.482   5.462  12.206  0.00  0.00    +0.000 A 
ATOM     26  N   UNL     1      44.634   4.675  11.490  0.00  0.00    +0.000 NA
ATOM     27  C   UNL     1      44.765   3.410  11.722  0.00  0.00    +0.000 A 
ATOM     28  N   UNL     1      45.657   2.864  12.610  0.00  0.00    +0.000 N 
ATOM     29  C   UNL     1      46.501   3.620  13.391  0.00  0.00    +0.000 A 
ATOM     30  O   UNL     1      47.247   3.106  14.219  0.00  0.00    +0.000 OA
ATOM     31  C   UNL     1      46.414   5.049  13.142  0.00  0.00    +0.000 A 
ATOM     32  H   UNL     1      45.697   1.864  12.746  0.00  0.00    +0.000 HD
ENDBRANCH  21  22
ENDBRANCH  18  21
ENDBRANCH   1  18
TORSDOF 8
ENDMDL
