MODEL 1
REMARK VINA RESULT:    -8.251      0.000      0.000
REMARK INTER + INTRA:         -13.378
REMARK INTER:                 -12.110
REMARK INTRA:                  -1.268
REMARK UNBOUND:                -1.268
REMARK  Name = 
REMARK  8 active torsions:
REMARK  status: ('A' for Active; 'I' for Inactive)
REMARK    1  A    between atoms: C_2  and  C_21
REMARK    2  A    between atoms: N_3  and  C_4
REMARK    3  A    between atoms: C_4  and  C_5
REMARK    4  A    between atoms: C_8  and  C_9
REMARK    5  A    between atoms: C_9  and  C_10
REMARK    6  A    between atoms: C_10  and  N_11
REMARK    7  A    between atoms: N_11  and  C_12
REMARK    8  A    between atoms: C_12  and  C_13
REMARK                            x       y       z     vdW  Elec       q    Type
REMARK                         _______ _______ _______ _____ _____    ______ ____
ROOT
ATOM      1  C   UNL     1      46.266   7.070  12.497  0.00  0.00    +0.000 A 
ATOM      2  C   UNL     1      46.734   6.680  11.236  0.00  0.00    +0.000 A 
ATOM      3  C   UNL     1      45.955   5.869  10.409  0.00  0.00    +0.000 A 
ATOM      4  C   UNL     1      44.690   5.432  10.821  0.00  0.00    +0.000 A 
ATOM      5  C   UNL     1      44.209   5.846  12.070  0.00  0.00    +0.000 A 
ATOM      6  C   UNL     1      44.986   6.663  12.898  0.00  0.00    +0.000 A 
ENDROOT
BRANCH   1   7
ATOM      7  C   UNL     1      47.119   7.936  13.385  0.00  0.00    +0.000 C 
BRANCH   7  10
ATOM      8  O   UNL     1      49.745   7.059  13.962  0.00  0.00    +0.000 OA
ATOM      9  C   UNL     1      48.854   6.873  14.786  0.00  0.00    +0.000 C 
ATOM     10  N   UNL     1      47.550   7.223  14.560  0.00  0.00    +0.000 N 
ATOM     11  H   UNL     1      46.891   7.207  15.330  0.00  0.00    +0.000 HD
BRANCH   9  12
ATOM     12  C   UNL     1      49.128   6.204  16.068  0.00  0.00    +0.000 A 
ATOM     13  C   UNL     1      50.130   6.686  16.900  0.00  0.00    +0.000 A 
ATOM     14  S   UNL     1      50.317   5.786  18.338  0.00  0.00    +0.000 S 
ATOM     15  C   UNL     1      49.034   4.748  17.921  0.00  0.00    +0.000 A 
ATOM     16  N   UNL     1      48.640   3.749  18.756  0.00  0.00    +0.000 NA
ATOM     17  C   UNL     1      47.628   3.067  18.335  0.00  0.00    +0.000 A 
ATOM     18  N   UNL     1      46.986   3.280  17.145  0.00  0.00    +0.000 N 
ATOM     19  C   UNL     1      47.403   4.217  16.233  0.00  0.00    +0.000 A 
ATOM     20  O   UNL     1      46.900   4.277  15.115  0.00  0.00    +0.000 OA
ATOM     21  C   UNL     1      48.497   5.058  16.685  0.00  0.00    +0.000 A 
ATOM     22  H   UNL     1      46.225   2.684  16.854  0.00  0.00    +0.000 HD
ENDBRANCH   9  12
ENDBRANCH   7  10
ENDBRANCH   1   7
BRANCH   4  23
ATOM     23  C   UNL     1      43.847   4.547   9.932  0.00  0.00    +0.000 C 
BRANCH  23  24
ATOM     24  C   UNL     1      44.035   3.037  10.157  0.00  0.00    +0.000 C 
BRANCH  24  25
ATOM     25  N   UNL     1      44.138   2.299   8.897  0.00  0.00    +0.000 NA
ATOM     26  H   UNL     1      44.106   2.941   8.105  0.00  0.00    +0.000 HD
BRANCH  25  27
ATOM     27  C   UNL     1      45.356   1.500   8.839  0.00  0.00    +0.000 C 
BRANCH  27  28
ATOM     28  C   UNL     1      46.237   1.931   7.699  0.00  0.00    +0.000 A 
ATOM     29  C   UNL     1      45.983   3.104   6.983  0.00  0.00    +0.000 A 
ATOM     30  C   UNL     1      46.807   3.458   5.919  0.00  0.00    +0.000 A 
ATOM     31  C   UNL     1      47.866   2.623   5.604  0.00  0.00    +0.000 A 
ATOM     32  N   UNL     1      48.146   1.482   6.271  0.00  0.00    +0.000 NA
ATOM     33  C   UNL     1      47.326   1.164   7.299  0.00  0.00    +0.000 A 
ENDBRANCH  27  28
ENDBRANCH  25  27
ENDBRANCH  24  25
ENDBRANCH  23  24
ENDBRANCH   4  23
TORSDOF 8
ENDMDL
MODEL 2
REMARK VINA RESULT:    -8.190      1.554      1.885
REMARK INTER + INTRA:         -13.288
REMARK INTER:                 -12.282
REMARK INTRA:                  -1.006
REMARK UNBOUND:                -1.268
REMARK  Name = 
REMARK  8 active torsions:
REMARK  status: ('A' for Active; 'I' for Inactive)
REMARK    1  A    between atoms: C_2  and  C_21
REMARK    2  A    between atoms: N_3  and  C_4
REMARK    3  A    between atoms: C_4  and  C_5
REMARK    4  A    between atoms: C_8  and  C_9
REMARK    5  A    between atoms: C_9  and  C_10
REMARK    6  A    between atoms: C_10  and  N_11
REMARK    7  A    between atoms: N_11  and  C_12
REMARK    8  A    between atoms: C_12  and  C_13
REMARK                            x       y       z     vdW  Elec       q    Type
REMARK                         _______ _______ _______ _____ _____    ______ ____
ROOT
ATOM      1  C   UNL     1      46.986   6.386  12.900  0.00  0.00    +0.000 A 
ATOM      2  C   UNL     1      46.285   5.418  13.630  0.00  0.00    +0.000 A 
ATOM      3  C   UNL     1      45.188   4.762  13.069  0.00  0.00    +0.000 A 
ATOM      4  C   UNL     1      44.768   5.056  11.767  0.00  0.00    +0.000 A 
ATOM      5  C   UNL     1      45.486   6.004  11.026  0.00  0.00    +0.000 A 
ATOM      6  C   UNL     1      46.589   6.658  11.584  0.00  0.00    +0.000 A 
ENDROOT
BRANCH   1   7
ATOM      7  C   UNL     1      48.161   7.096  13.519  0.00  0.00    +0.000 C 
BRANCH   7  10
ATOM      8  O   UNL     1      50.319   6.682  15.299  0.00  0.00    +0.000 OA
ATOM      9  C   UNL     1      49.200   6.905  15.752  0.00  0.00    +0.000 C 
ATOM     10  N   UNL     1      48.097   7.065  14.958  0.00  0.00    +0.000 N 
ATOM     11  H   UNL     1      47.237   7.415  15.367  0.00  0.00    +0.000 HD
BRANCH   9  12
ATOM     12  C   UNL     1      48.962   6.961  17.203  0.00  0.00    +0.000 A 
ATOM     13  C   UNL     1      48.658   8.173  17.808  0.00  0.00    +0.000 A 
ATOM     14  S   UNL     1      48.422   8.057  19.494  0.00  0.00    +0.000 S 
ATOM     15  C   UNL     1      48.671   6.373  19.469  0.00  0.00    +0.000 A 
ATOM     16  N   UNL     1      48.575   5.632  20.606  0.00  0.00    +0.000 NA
ATOM     17  C   UNL     1      48.745   4.364  20.435  0.00  0.00    +0.000 A 
ATOM     18  N   UNL     1      49.022   3.771  19.233  0.00  0.00    +0.000 N 
ATOM     19  C   UNL     1      49.215   4.486  18.078  0.00  0.00    +0.000 A 
ATOM     20  O   UNL     1      49.612   3.937  17.054  0.00  0.00    +0.000 OA
ATOM     21  C   UNL     1      48.970   5.912  18.200  0.00  0.00    +0.000 A 
ATOM     22  H   UNL     1      49.185   2.777  19.172  0.00  0.00    +0.000 HD
ENDBRANCH   9  12
ENDBRANCH   7  10
ENDBRANCH   1   7
BRANCH   4  23
ATOM     23  C   UNL     1      43.575   4.354  11.159  0.00  0.00    +0.000 C 
BRANCH  23  24
ATOM     24  C   UNL     1      43.719   2.827  11.036  0.00  0.00    +0.000 C 
BRANCH  24  25
ATOM     25  N   UNL     1      44.949   2.442  10.341  0.00  0.00    +0.000 NA
ATOM     26  H   UNL     1      45.487   1.786  10.905  0.00  0.00    +0.000 HD
BRANCH  25  27
ATOM     27  C   UNL     1      44.667   1.858   9.034  0.00  0.00    +0.000 C 
BRANCH  27  28
ATOM     28  C   UNL     1      45.804   2.088   8.078  0.00  0.00    +0.000 A 
ATOM     29  C   UNL     1      45.957   3.301   7.402  0.00  0.00    +0.000 A 
ATOM     30  C   UNL     1      47.009   3.468   6.507  0.00  0.00    +0.000 A 
ATOM     31  C   UNL     1      47.882   2.410   6.317  0.00  0.00    +0.000 A 
ATOM     32  N   UNL     1      47.770   1.222   6.950  0.00  0.00    +0.000 NA
ATOM     33  C   UNL     1      46.737   1.089   7.813  0.00  0.00    +0.000 A 
ENDBRANCH  27  28
ENDBRANCH  25  27
ENDBRANCH  24  25
ENDBRANCH  23  24
ENDBRANCH   4  23
TORSDOF 8
ENDMDL
MODEL 3
REMARK VINA RESULT:    -7.736      2.412      2.893
REMARK INTER + INTRA:         -12.622
REMARK INTER:                 -11.496
REMARK INTRA:                  -1.126
REMARK UNBOUND:                -1.268
REMARK  Name = 
REMARK  8 active torsions:
REMARK  status: ('A' for Active; 'I' for Inactive)
REMARK    1  A    between atoms: C_2  and  C_21
REMARK    2  A    between atoms: N_3  and  C_4
REMARK    3  A    between atoms: C_4  and  C_5
REMARK    4  A    between atoms: C_8  and  C_9
REMARK    5  A    between atoms: C_9  and  C_10
REMARK    6  A    between atoms: C_10  and  N_11
REMARK    7  A    between atoms: N_11  and  C_12
REMARK    8  A    between atoms: C_12  and  C_13
REMARK                            x       y       z     vdW  Elec       q    Type
REMARK                         _______ _______ _______ _____ _____    ______ ____
ROOT
ATOM      1  C   UNL     1      47.292   6.201  13.272  0.00  0.00    +0.000 A 
ATOM      2  C   UNL     1      46.878   6.576  11.987  0.00  0.00    +0.000 A 
ATOM      3  C   UNL     1      45.942   5.808  11.290  0.00  0.00    +0.000 A 
ATOM      4  C   UNL     1      45.398   4.652  11.862  0.00  0.00    +0.000 A 
ATOM      5  C   UNL     1      45.790   4.294  13.158  0.00  0.00    +0.000 A 
ATOM      6  C   UNL     1      46.722   5.064  13.860  0.00  0.00    +0.000 A 
ENDROOT
BRANCH   1   7
ATOM      7  C   UNL     1      48.309   7.031  14.009  0.00  0.00    +0.000 C 
BRANCH   7  10
ATOM      8  O   UNL     1      50.201   6.232  15.954  0.00  0.00    +0.000 OA
ATOM      9  C   UNL     1      49.092   6.616  16.315  0.00  0.00    +0.000 C 
ATOM     10  N   UNL     1      48.106   6.970  15.434  0.00  0.00    +0.000 N 
ATOM     11  H   UNL     1      47.276   7.439  15.779  0.00  0.00    +0.000 HD
BRANCH   9  12
ATOM     12  C   UNL     1      48.730   6.668  17.741  0.00  0.00    +0.000 A 
ATOM     13  C   UNL     1      48.950   5.563  18.552  0.00  0.00    +0.000 A 
ATOM     14  S   UNL     1      48.464   5.794  20.171  0.00  0.00    +0.000 S 
ATOM     15  C   UNL     1      47.984   7.397  19.857  0.00  0.00    +0.000 A 
ATOM     16  N   UNL     1      47.496   8.191  20.848  0.00  0.00    +0.000 NA
ATOM     17  C   UNL     1      47.212   9.395  20.479  0.00  0.00    +0.000 A 
ATOM     18  N   UNL     1      47.354   9.872  19.204  0.00  0.00    +0.000 N 
ATOM     19  C   UNL     1      47.759   9.084  18.156  0.00  0.00    +0.000 A 
ATOM     20  O   UNL     1      47.728   9.504  17.002  0.00  0.00    +0.000 OA
ATOM     21  C   UNL     1      48.155   7.738  18.527  0.00  0.00    +0.000 A 
ATOM     22  H   UNL     1      47.076  10.814  18.970  0.00  0.00    +0.000 HD
ENDBRANCH   9  12
ENDBRANCH   7  10
ENDBRANCH   1   7
BRANCH   4  23
ATOM     23  C   UNL     1      44.391   3.815  11.107  0.00  0.00    +0.000 C 
BRANCH  23  24
ATOM     24  C   UNL     1      44.102   4.289   9.672  0.00  0.00    +0.000 C 
BRANCH  24  25
ATOM     25  N   UNL     1      44.145   3.188   8.708  0.00  0.00    +0.000 NA
ATOM     26  H   UNL     1      44.184   3.550   7.756  0.00  0.00    +0.000 HD
BRANCH  25  27
ATOM     27  C   UNL     1      45.282   2.306   8.950  0.00  0.00    +0.000 C 
BRANCH  27  28
ATOM     28  C   UNL     1      46.235   2.315   7.786  0.00  0.00    +0.000 A 
ATOM     29  C   UNL     1      46.263   3.372   6.872  0.00  0.00    +0.000 A 
ATOM     30  C   UNL     1      47.143   3.333   5.795  0.00  0.00    +0.000 A 
ATOM     31  C   UNL     1      47.972   2.232   5.666  0.00  0.00    +0.000 A 
ATOM     32  N   UNL     1      47.977   1.191   6.526  0.00  0.00    +0.000 NA
ATOM     33  C   UNL     1      47.110   1.256   7.562  0.00  0.00    +0.000 A 
ENDBRANCH  27  28
ENDBRANCH  25  27
ENDBRANCH  24  25
ENDBRANCH  23  24
ENDBRANCH   4  23
TORSDOF 8
ENDMDL
MODEL 4
REMARK VINA RESULT:    -7.314      4.146      9.912
REMARK INTER + INTRA:         -12.003
REMARK INTER:                  -9.724
REMARK INTRA:                  -2.279
REMARK UNBOUND:                -1.268
REMARK  Name = 
REMARK  8 active torsions:
REMARK  status: ('A' for Active; 'I' for Inactive)
REMARK    1  A    between atoms: C_2  and  C_21
REMARK    2  A    between atoms: N_3  and  C_4
REMARK    3  A    between atoms: C_4  and  C_5
REMARK    4  A    between atoms: C_8  and  C_9
REMARK    5  A    between atoms: C_9  and  C_10
REMARK    6  A    between atoms: C_10  and  N_11
REMARK    7  A    between atoms: N_11  and  C_12
REMARK    8  A    between atoms: C_12  and  C_13
REMARK                            x       y       z     vdW  Elec       q    Type
REMARK                         _______ _______ _______ _____ _____    ______ ____
ROOT
ATOM      1  C   UNL     1      48.745   3.880  17.065  0.00  0.00    +0.000 A 
ATOM      2  C   UNL     1      49.275   5.174  16.995  0.00  0.00    +0.000 A 
ATOM      3  C   UNL     1      50.628   5.402  17.255  0.00  0.00    +0.000 A 
ATOM      4  C   UNL     1      51.481   4.342  17.588  0.00  0.00    +0.000 A 
ATOM      5  C   UNL     1      50.956   3.044  17.629  0.00  0.00    +0.000 A 
ATOM      6  C   UNL     1      49.603   2.813  17.364  0.00  0.00    +0.000 A 
ENDROOT
BRANCH   1   7
ATOM      7  C   UNL     1      47.282   3.648  16.793  0.00  0.00    +0.000 C 
BRANCH   7  10
ATOM      8  O   UNL     1      47.200   3.180  14.006  0.00  0.00    +0.000 OA
ATOM      9  C   UNL     1      46.737   4.225  14.454  0.00  0.00    +0.000 C 
ATOM     10  N   UNL     1      46.784   4.546  15.784  0.00  0.00    +0.000 N 
ATOM     11  H   UNL     1      46.240   5.332  16.125  0.00  0.00    +0.000 HD
BRANCH   9  12
ATOM     12  C   UNL     1      46.139   5.237  13.568  0.00  0.00    +0.000 A 
ATOM     13  C   UNL     1      46.844   6.395  13.266  0.00  0.00    +0.000 A 
ATOM     14  S   UNL     1      45.999   7.460  12.235  0.00  0.00    +0.000 S 
ATOM     15  C   UNL     1      44.680   6.391  12.118  0.00  0.00    +0.000 A 
ATOM     16  N   UNL     1      43.603   6.687  11.341  0.00  0.00    +0.000 NA
ATOM     17  C   UNL     1      42.696   5.769  11.310  0.00  0.00    +0.000 A 
ATOM     18  N   UNL     1      42.759   4.589  12.002  0.00  0.00    +0.000 N 
ATOM     19  C   UNL     1      43.783   4.286  12.864  0.00  0.00    +0.000 A 
ATOM     20  O   UNL     1      43.731   3.291  13.581  0.00  0.00    +0.000 OA
ATOM     21  C   UNL     1      44.864   5.255  12.886  0.00  0.00    +0.000 A 
ATOM     22  H   UNL     1      41.997   3.928  11.968  0.00  0.00    +0.000 HD
ENDBRANCH   9  12
ENDBRANCH   7  10
ENDBRANCH   1   7
BRANCH   4  23
ATOM     23  C   UNL     1      52.944   4.586  17.877  0.00  0.00    +0.000 C 
BRANCH  23  24
ATOM     24  C   UNL     1      53.226   5.745  18.849  0.00  0.00    +0.000 C 
BRANCH  24  25
ATOM     25  N   UNL     1      52.825   5.425  20.221  0.00  0.00    +0.000 NA
ATOM     26  H   UNL     1      53.646   5.244  20.798  0.00  0.00    +0.000 HD
BRANCH  25  27
ATOM     27  C   UNL     1      52.029   6.494  20.811  0.00  0.00    +0.000 C 
BRANCH  27  28
ATOM     28  C   UNL     1      50.558   6.193  20.720  0.00  0.00    +0.000 A 
ATOM     29  C   UNL     1      50.062   4.903  20.934  0.00  0.00    +0.000 A 
ATOM     30  C   UNL     1      48.698   4.658  20.818  0.00  0.00    +0.000 A 
ATOM     31  C   UNL     1      47.867   5.716  20.489  0.00  0.00    +0.000 A 
ATOM     32  N   UNL     1      48.306   6.976  20.274  0.00  0.00    +0.000 NA
ATOM     33  C   UNL     1      49.637   7.183  20.393  0.00  0.00    +0.000 A 
ENDBRANCH  27  28
ENDBRANCH  25  27
ENDBRANCH  24  25
ENDBRANCH  23  24
ENDBRANCH   4  23
TORSDOF 8
ENDMDL
MODEL 5
REMARK VINA RESULT:    -7.210      2.908      8.586
REMARK INTER + INTRA:         -11.850
REMARK INTER:                 -10.084
REMARK INTRA:                  -1.767
REMARK UNBOUND:                -1.268
REMARK  Name = 
REMARK  8 active torsions:
REMARK  status: ('A' for Active; 'I' for Inactive)
REMARK    1  A    between atoms: C_2  and  C_21
REMARK    2  A    between atoms: N_3  and  C_4
REMARK    3  A    between atoms: C_4  and  C_5
REMARK    4  A    between atoms: C_8  and  C_9
REMARK    5  A    between atoms: C_9  and  C_10
REMARK    6  A    between atoms: C_10  and  N_11
REMARK    7  A    between atoms: N_11  and  C_12
REMARK    8  A    between atoms: C_12  and  C_13
REMARK                            x       y       z     vdW  Elec       q    Type
REMARK                         _______ _______ _______ _____ _____    ______ ____
ROOT
ATOM      1  C   UNL     1      47.909   7.794  13.462  0.00  0.00    +0.000 A 
ATOM      2  C   UNL     1      47.799   8.986  14.189  0.00  0.00    +0.000 A 
ATOM      3  C   UNL     1      48.263   9.060  15.505  0.00  0.00    +0.000 A 
ATOM      4  C   UNL     1      48.849   7.949  16.121  0.00  0.00    +0.000 A 
ATOM      5  C   UNL     1      48.986   6.765  15.383  0.00  0.00    +0.000 A 
ATOM      6  C   UNL     1      48.527   6.690  14.065  0.00  0.00    +0.000 A 
ENDROOT
BRANCH   1   7
ATOM      7  C   UNL     1      47.395   7.722  12.049  0.00  0.00    +0.000 C 
BRANCH   7  10
ATOM      8  O   UNL     1      44.595   7.337  12.002  0.00  0.00    +0.000 OA
ATOM      9  C   UNL     1      45.336   6.391  11.752  0.00  0.00    +0.000 C 
ATOM     10  N   UNL     1      46.700   6.485  11.803  0.00  0.00    +0.000 N 
ATOM     11  H   UNL     1      47.264   5.732  11.424  0.00  0.00    +0.000 HD
BRANCH   9  12
ATOM     12  C   UNL     1      44.794   5.062  11.427  0.00  0.00    +0.000 A 
ATOM     13  C   UNL     1      44.036   4.375  12.366  0.00  0.00    +0.000 A 
ATOM     14  S   UNL     1      43.497   2.849  11.827  0.00  0.00    +0.000 S 
ATOM     15  C   UNL     1      44.216   3.072  10.300  0.00  0.00    +0.000 A 
ATOM     16  N   UNL     1      44.100   2.130   9.326  0.00  0.00    +0.000 NA
ATOM     17  C   UNL     1      44.657   2.447   8.205  0.00  0.00    +0.000 A 
ATOM     18  N   UNL     1      45.337   3.613   7.976  0.00  0.00    +0.000 N 
ATOM     19  C   UNL     1      45.554   4.551   8.954  0.00  0.00    +0.000 A 
ATOM     20  O   UNL     1      46.296   5.509   8.756  0.00  0.00    +0.000 OA
ATOM     21  C   UNL     1      44.893   4.275  10.217  0.00  0.00    +0.000 A 
ATOM     22  H   UNL     1      45.786   3.785   7.089  0.00  0.00    +0.000 HD
ENDBRANCH   9  12
ENDBRANCH   7  10
ENDBRANCH   1   7
BRANCH   4  23
ATOM     23  C   UNL     1      49.345   8.024  17.546  0.00  0.00    +0.000 C 
BRANCH  23  24
ATOM     24  C   UNL     1      48.243   8.195  18.606  0.00  0.00    +0.000 C 
BRANCH  24  25
ATOM     25  N   UNL     1      47.395   7.006  18.717  0.00  0.00    +0.000 NA
ATOM     26  H   UNL     1      47.047   6.730  17.799  0.00  0.00    +0.000 HD
BRANCH  25  27
ATOM     27  C   UNL     1      48.109   5.892  19.331  0.00  0.00    +0.000 C 
BRANCH  27  28
ATOM     28  C   UNL     1      48.226   4.731  18.383  0.00  0.00    +0.000 A 
ATOM     29  C   UNL     1      49.406   3.990  18.278  0.00  0.00    +0.000 A 
ATOM     30  C   UNL     1      49.484   2.936  17.373  0.00  0.00    +0.000 A 
ATOM     31  C   UNL     1      48.373   2.655  16.598  0.00  0.00    +0.000 A 
ATOM     32  N   UNL     1      47.214   3.345  16.668  0.00  0.00    +0.000 NA
ATOM     33  C   UNL     1      47.169   4.364  17.556  0.00  0.00    +0.000 A 
ENDBRANCH  27  28
ENDBRANCH  25  27
ENDBRANCH  24  25
ENDBRANCH  23  24
ENDBRANCH   4  23
TORSDOF 8
ENDMDL
MODEL 6
REMARK VINA RESULT:    -6.965      4.180      9.453
REMARK INTER + INTRA:         -11.491
REMARK INTER:                  -9.727
REMARK INTRA:                  -1.764
REMARK UNBOUND:                -1.268
REMARK  Name = 
REMARK  8 active torsions:
REMARK  status: ('A' for Active; 'I' for Inactive)
REMARK    1  A    between atoms: C_2  and  C_21
REMARK    2  A    between atoms: N_3  and  C_4
REMARK    3  A    between atoms: C_4  and  C_5
REMARK    4  A    between atoms: C_8  and  C_9
REMARK    5  A    between atoms: C_9  and  C_10
REMARK    6  A    between atoms: C_10  and  N_11
REMARK    7  A    between atoms: N_11  and  C_12
REMARK    8  A    between atoms: C_12  and  C_13
REMARK                            x       y       z     vdW  Elec       q    Type
REMARK                         _______ _______ _______ _____ _____    ______ ____
ROOT
ATOM      1  C   UNL     1      48.338   4.391  17.558  0.00  0.00    +0.000 A 
ATOM      2  C   UNL     1      48.325   3.998  18.902  0.00  0.00    +0.000 A 
ATOM      3  C   UNL     1      49.111   4.664  19.844  0.00  0.00    +0.000 A 
ATOM      4  C   UNL     1      49.925   5.739  19.466  0.00  0.00    +0.000 A 
ATOM      5  C   UNL     1      49.915   6.151  18.126  0.00  0.00    +0.000 A 
ATOM      6  C   UNL     1      49.124   5.488  17.183  0.00  0.00    +0.000 A 
ENDROOT
BRANCH   1   7
ATOM      7  C   UNL     1      47.494   3.658  16.549  0.00  0.00    +0.000 C 
BRANCH   7  10
ATOM      8  O   UNL     1      47.204   3.222  13.770  0.00  0.00    +0.000 OA
ATOM      9  C   UNL     1      46.765   4.256  14.266  0.00  0.00    +0.000 C 
ATOM     10  N   UNL     1      46.911   4.563  15.592  0.00  0.00    +0.000 N 
ATOM     11  H   UNL     1      46.387   5.338  15.983  0.00  0.00    +0.000 HD
BRANCH   9  12
ATOM     12  C   UNL     1      46.092   5.272  13.441  0.00  0.00    +0.000 A 
ATOM     13  C   UNL     1      46.747   6.456  13.128  0.00  0.00    +0.000 A 
ATOM     14  S   UNL     1      45.817   7.521  12.174  0.00  0.00    +0.000 S 
ATOM     15  C   UNL     1      44.522   6.418  12.105  0.00  0.00    +0.000 A 
ATOM     16  N   UNL     1      43.395   6.703  11.398  0.00  0.00    +0.000 NA
ATOM     17  C   UNL     1      42.512   5.761  11.395  0.00  0.00    +0.000 A 
ATOM     18  N   UNL     1      42.646   4.567  12.052  0.00  0.00    +0.000 N 
ATOM     19  C   UNL     1      43.725   4.273  12.847  0.00  0.00    +0.000 A 
ATOM     20  O   UNL     1      43.740   3.260  13.540  0.00  0.00    +0.000 OA
ATOM     21  C   UNL     1      44.779   5.271  12.833  0.00  0.00    +0.000 A 
ATOM     22  H   UNL     1      41.901   3.886  12.045  0.00  0.00    +0.000 HD
ENDBRANCH   9  12
ENDBRANCH   7  10
ENDBRANCH   1   7
BRANCH   4  23
ATOM     23  C   UNL     1      50.783   6.458  20.481  0.00  0.00    +0.000 C 
BRANCH  23  24
ATOM     24  C   UNL     1      52.295   6.215  20.337  0.00  0.00    +0.000 C 
BRANCH  24  25
ATOM     25  N   UNL     1      52.647   4.805  20.517  0.00  0.00    +0.000 NA
ATOM     26  H   UNL     1      51.811   4.222  20.484  0.00  0.00    +0.000 HD
BRANCH  25  27
ATOM     27  C   UNL     1      53.604   4.357  19.512  0.00  0.00    +0.000 C 
BRANCH  27  28
ATOM     28  C   UNL     1      53.111   3.127  18.801  0.00  0.00    +0.000 A 
ATOM     29  C   UNL     1      51.926   3.137  18.060  0.00  0.00    +0.000 A 
ATOM     30  C   UNL     1      51.490   1.972  17.435  0.00  0.00    +0.000 A 
ATOM     31  C   UNL     1      52.259   0.829  17.571  0.00  0.00    +0.000 A 
ATOM     32  N   UNL     1      53.410   0.777  18.276  0.00  0.00    +0.000 NA
ATOM     33  C   UNL     1      53.807   1.924  18.874  0.00  0.00    +0.000 A 
ENDBRANCH  27  28
ENDBRANCH  25  27
ENDBRANCH  24  25
ENDBRANCH  23  24
ENDBRANCH   4  23
TORSDOF 8
ENDMDL
MODEL 7
REMARK VINA RESULT:    -6.946      4.151      9.080
REMARK INTER + INTRA:         -11.462
REMARK INTER:                  -8.902
REMARK INTRA:                  -2.560
REMARK UNBOUND:                -1.268
REMARK  Name = 
REMARK  8 active torsions:
REMARK  status: ('A' for Active; 'I' for Inactive)
REMARK    1  A    between atoms: C_2  and  C_21
REMARK    2  A    between atoms: N_3  and  C_4
REMARK    3  A    between atoms: C_4  and  C_5
REMARK    4  A    between atoms: C_8  and  C_9
REMARK    5  A    between atoms: C_9  and  C_10
REMARK    6  A    between atoms: C_10  and  N_11
REMARK    7  A    between atoms: N_11  and  C_12
REMARK    8  A    between atoms: C_12  and  C_13
REMARK                            x       y       z     vdW  Elec       q    Type
REMARK                         _______ _______ _______ _____ _____    ______ ____
ROOT
ATOM      1  C   UNL     1      47.992   4.377  17.711  0.00  0.00    +0.000 A 
ATOM      2  C   UNL     1      49.350   4.258  18.034  0.00  0.00    +0.000 A 
ATOM      3  C   UNL     1      49.878   4.929  19.139  0.00  0.00    +0.000 A 
ATOM      4  C   UNL     1      49.062   5.731  19.946  0.00  0.00    +0.000 A 
ATOM      5  C   UNL     1      47.698   5.826  19.640  0.00  0.00    +0.000 A 
ATOM      6  C   UNL     1      47.166   5.150  18.537  0.00  0.00    +0.000 A 
ENDROOT
BRANCH   1   7
ATOM      7  C   UNL     1      47.436   3.658  16.510  0.00  0.00    +0.000 C 
BRANCH   7  10
ATOM      8  O   UNL     1      47.327   3.318  13.706  0.00  0.00    +0.000 OA
ATOM      9  C   UNL     1      46.828   4.320  14.210  0.00  0.00    +0.000 C 
ATOM     10  N   UNL     1      46.884   4.580  15.552  0.00  0.00    +0.000 N 
ATOM     11  H   UNL     1      46.314   5.325  15.938  0.00  0.00    +0.000 HD
BRANCH   9  12
ATOM     12  C   UNL     1      46.173   5.345  13.382  0.00  0.00    +0.000 A 
ATOM     13  C   UNL     1      46.863   6.499  13.035  0.00  0.00    +0.000 A 
ATOM     14  S   UNL     1      45.952   7.582  12.082  0.00  0.00    +0.000 S 
ATOM     15  C   UNL     1      44.617   6.525  12.058  0.00  0.00    +0.000 A 
ATOM     16  N   UNL     1      43.486   6.839  11.370  0.00  0.00    +0.000 NA
ATOM     17  C   UNL     1      42.571   5.929  11.402  0.00  0.00    +0.000 A 
ATOM     18  N   UNL     1      42.676   4.742  12.076  0.00  0.00    +0.000 N 
ATOM     19  C   UNL     1      43.761   4.422  12.853  0.00  0.00    +0.000 A 
ATOM     20  O   UNL     1      43.754   3.420  13.563  0.00  0.00    +0.000 OA
ATOM     21  C   UNL     1      44.849   5.381  12.801  0.00  0.00    +0.000 A 
ATOM     22  H   UNL     1      41.907   4.088  12.095  0.00  0.00    +0.000 HD
ENDBRANCH   9  12
ENDBRANCH   7  10
ENDBRANCH   1   7
BRANCH   4  23
ATOM     23  C   UNL     1      49.632   6.464  21.139  0.00  0.00    +0.000 C 
BRANCH  23  24
ATOM     24  C   UNL     1      50.474   7.704  20.792  0.00  0.00    +0.000 C 
BRANCH  24  25
ATOM     25  N   UNL     1      49.698   8.713  20.067  0.00  0.00    +0.000 NA
ATOM     26  H   UNL     1      49.444   9.481  20.687  0.00  0.00    +0.000 HD
BRANCH  25  27
ATOM     27  C   UNL     1      50.431   9.227  18.915  0.00  0.00    +0.000 C 
BRANCH  27  28
ATOM     28  C   UNL     1      50.199   8.374  17.698  0.00  0.00    +0.000 A 
ATOM     29  C   UNL     1      51.255   7.734  17.042  0.00  0.00    +0.000 A 
ATOM     30  C   UNL     1      51.005   6.972  15.905  0.00  0.00    +0.000 A 
ATOM     31  C   UNL     1      49.698   6.872  15.458  0.00  0.00    +0.000 A 
ATOM     32  N   UNL     1      48.650   7.473  16.062  0.00  0.00    +0.000 NA
ATOM     33  C   UNL     1      48.925   8.208  17.164  0.00  0.00    +0.000 A 
ENDBRANCH  27  28
ENDBRANCH  25  27
ENDBRANCH  24  25
ENDBRANCH  23  24
ENDBRANCH   4  23
TORSDOF 8
ENDMDL
MODEL 8
REMARK VINA RESULT:    -6.890      2.673      3.651
REMARK INTER + INTRA:         -11.380
REMARK INTER:                 -10.322
REMARK INTRA:                  -1.058
REMARK UNBOUND:                -1.268
REMARK  Name = 
REMARK  8 active torsions:
REMARK  status: ('A' for Active; 'I' for Inactive)
REMARK    1  A    between atoms: C_2  and  C_21
REMARK    2  A    between atoms: N_3  and  C_4
REMARK    3  A    between atoms: C_4  and  C_5
REMARK    4  A    between atoms: C_8  and  C_9
REMARK    5  A    between atoms: C_9  and  C_10
REMARK    6  A    between atoms: C_10  and  N_11
REMARK    7  A    between atoms: N_11  and  C_12
REMARK    8  A    between atoms: C_12  and  C_13
REMARK                            x       y       z     vdW  Elec       q    Type
REMARK                         _______ _______ _______ _____ _____    ______ ____
ROOT
ATOM      1  C   UNL     1      49.145   7.352  14.687  0.00  0.00    +0.000 A 
ATOM      2  C   UNL     1      48.209   6.311  14.723  0.00  0.00    +0.000 A 
ATOM      3  C   UNL     1      47.425   6.021  13.605  0.00  0.00    +0.000 A 
ATOM      4  C   UNL     1      47.559   6.764  12.426  0.00  0.00    +0.000 A 
ATOM      5  C   UNL     1      48.516   7.786  12.380  0.00  0.00    +0.000 A 
ATOM      6  C   UNL     1      49.306   8.074  13.496  0.00  0.00    +0.000 A 
ENDROOT
BRANCH   1   7
ATOM      7  C   UNL     1      49.977   7.662  15.902  0.00  0.00    +0.000 C 
BRANCH   7  10
ATOM      8  O   UNL     1      50.984   7.034  18.469  0.00  0.00    +0.000 OA
ATOM      9  C   UNL     1      51.253   6.300  17.521  0.00  0.00    +0.000 C 
ATOM     10  N   UNL     1      50.845   6.564  16.241  0.00  0.00    +0.000 N 
ATOM     11  H   UNL     1      50.944   5.847  15.531  0.00  0.00    +0.000 HD
BRANCH   9  12
ATOM     12  C   UNL     1      52.087   5.101  17.697  0.00  0.00    +0.000 A 
ATOM     13  C   UNL     1      53.430   5.234  18.025  0.00  0.00    +0.000 A 
ATOM     14  S   UNL     1      54.248   3.745  18.180  0.00  0.00    +0.000 S 
ATOM     15  C   UNL     1      52.825   2.867  17.860  0.00  0.00    +0.000 A 
ATOM     16  N   UNL     1      52.821   1.506  17.874  0.00  0.00    +0.000 NA
ATOM     17  C   UNL     1      51.666   0.971  17.659  0.00  0.00    +0.000 A 
ATOM     18  N   UNL     1      50.518   1.673  17.410  0.00  0.00    +0.000 N 
ATOM     19  C   UNL     1      50.491   3.041  17.300  0.00  0.00    +0.000 A 
ATOM     20  O   UNL     1      49.477   3.624  16.926  0.00  0.00    +0.000 OA
ATOM     21  C   UNL     1      51.750   3.698  17.599  0.00  0.00    +0.000 A 
ATOM     22  H   UNL     1      49.652   1.194  17.208  0.00  0.00    +0.000 HD
ENDBRANCH   9  12
ENDBRANCH   7  10
ENDBRANCH   1   7
BRANCH   4  23
ATOM     23  C   UNL     1      46.706   6.458  11.216  0.00  0.00    +0.000 C 
BRANCH  23  24
ATOM     24  C   UNL     1      45.484   5.566  11.495  0.00  0.00    +0.000 C 
BRANCH  24  25
ATOM     25  N   UNL     1      44.568   5.512  10.354  0.00  0.00    +0.000 NA
ATOM     26  H   UNL     1      45.017   5.887   9.519  0.00  0.00    +0.000 HD
BRANCH  25  27
ATOM     27  C   UNL     1      44.106   4.152  10.100  0.00  0.00    +0.000 C 
BRANCH  27  28
ATOM     28  C   UNL     1      45.028   3.431   9.155  0.00  0.00    +0.000 A 
ATOM     29  C   UNL     1      45.715   4.110   8.145  0.00  0.00    +0.000 A 
ATOM     30  C   UNL     1      46.541   3.405   7.275  0.00  0.00    +0.000 A 
ATOM     31  C   UNL     1      46.655   2.036   7.445  0.00  0.00    +0.000 A 
ATOM     32  N   UNL     1      46.010   1.342   8.408  0.00  0.00    +0.000 NA
ATOM     33  C   UNL     1      45.213   2.054   9.237  0.00  0.00    +0.000 A 
ENDBRANCH  27  28
ENDBRANCH  25  27
ENDBRANCH  24  25
ENDBRANCH  23  24
ENDBRANCH   4  23
TORSDOF 8
ENDMDL
MODEL 9
REMARK VINA RESULT:    -6.784      3.575      8.516
REMARK INTER + INTRA:         -11.225
REMARK INTER:                  -8.849
REMARK INTRA:                  -2.376
REMARK UNBOUND:                -1.268
REMARK  Name = 
REMARK  8 active torsions:
REMARK  status: ('A' for Active; 'I' for Inactive)
REMARK    1  A    between atoms: C_2  and  C_21
REMARK    2  A    between atoms: N_3  and  C_4
REMARK    3  A    between atoms: C_4  and  C_5
REMARK    4  A    between atoms: C_8  and  C_9
REMARK    5  A    between atoms: C_9  and  C_10
REMARK    6  A    between atoms: C_10  and  N_11
REMARK    7  A    between atoms: N_11  and  C_12
REMARK    8  A    between atoms: C_12  and  C_13
REMARK                            x       y       z     vdW  Elec       q    Type
REMARK                         _______ _______ _______ _____ _____    ______ ____
ROOT
ATOM      1  C   UNL     1      47.628   8.389  12.460  0.00  0.00    +0.000 A 
ATOM      2  C   UNL     1      48.063   9.700  12.227  0.00  0.00    +0.000 A 
ATOM      3  C   UNL     1      49.355   9.945  11.755  0.00  0.00    +0.000 A 
ATOM      4  C   UNL     1      50.238   8.889  11.506  0.00  0.00    +0.000 A 
ATOM      5  C   UNL     1      49.792   7.576  11.711  0.00  0.00    +0.000 A 
ATOM      6  C   UNL     1      48.498   7.328  12.178  0.00  0.00    +0.000 A 
ENDROOT
BRANCH   1   7
ATOM      7  C   UNL     1      46.237   8.137  12.979  0.00  0.00    +0.000 C 
BRANCH   7  10
ATOM      8  O   UNL     1      44.193   7.498  11.133  0.00  0.00    +0.000 OA
ATOM      9  C   UNL     1      44.807   6.591  11.688  0.00  0.00    +0.000 C 
ATOM     10  N   UNL     1      45.775   6.819  12.629  0.00  0.00    +0.000 N 
ATOM     11  H   UNL     1      46.367   6.052  12.928  0.00  0.00    +0.000 HD
BRANCH   9  12
ATOM     12  C   UNL     1      44.501   5.179  11.409  0.00  0.00    +0.000 A 
ATOM     13  C   UNL     1      43.747   4.442  12.313  0.00  0.00    +0.000 A 
ATOM     14  S   UNL     1      43.495   2.824  11.836  0.00  0.00    +0.000 S 
ATOM     15  C   UNL     1      44.345   3.062  10.381  0.00  0.00    +0.000 A 
ATOM     16  N   UNL     1      44.477   2.057   9.473  0.00  0.00    +0.000 NA
ATOM     17  C   UNL     1      45.107   2.388   8.395  0.00  0.00    +0.000 A 
ATOM     18  N   UNL     1      45.636   3.627   8.152  0.00  0.00    +0.000 N 
ATOM     19  C   UNL     1      45.604   4.643   9.075  0.00  0.00    +0.000 A 
ATOM     20  O   UNL     1      46.220   5.688   8.884  0.00  0.00    +0.000 OA
ATOM     21  C   UNL     1      44.848   4.346  10.278  0.00  0.00    +0.000 A 
ATOM     22  H   UNL     1      46.154   3.812   7.306  0.00  0.00    +0.000 HD
ENDBRANCH   9  12
ENDBRANCH   7  10
ENDBRANCH   1   7
BRANCH   4  23
ATOM     23  C   UNL     1      51.639   9.151  11.003  0.00  0.00    +0.000 C 
BRANCH  23  24
ATOM     24  C   UNL     1      52.594   9.763  12.043  0.00  0.00    +0.000 C 
BRANCH  24  25
ATOM     25  N   UNL     1      52.772   8.893  13.207  0.00  0.00    +0.000 NA
ATOM     26  H   UNL     1      53.754   8.645  13.320  0.00  0.00    +0.000 HD
BRANCH  25  27
ATOM     27  C   UNL     1      52.275   9.521  14.427  0.00  0.00    +0.000 C 
BRANCH  27  28
ATOM     28  C   UNL     1      51.083   8.783  14.972  0.00  0.00    +0.000 A 
ATOM     29  C   UNL     1      49.937   9.461  15.399  0.00  0.00    +0.000 A 
ATOM     30  C   UNL     1      48.864   8.746  15.919  0.00  0.00    +0.000 A 
ATOM     31  C   UNL     1      48.970   7.368  15.996  0.00  0.00    +0.000 A 
ATOM     32  N   UNL     1      50.058   6.675  15.595  0.00  0.00    +0.000 NA
ATOM     33  C   UNL     1      51.086   7.398  15.095  0.00  0.00    +0.000 A 
ENDBRANCH  27  28
ENDBRANCH  25  27
ENDBRANCH  24  25
ENDBRANCH  23  24
ENDBRANCH   4  23
TORSDOF 8
ENDMDL
