MODEL 1
REMARK VINA RESULT:    -8.101      0.000      0.000
REMARK INTER + INTRA:         -11.320
REMARK INTER:                 -10.469
REMARK INTRA:                  -0.851
REMARK UNBOUND:                -0.851
REMARK  Name = 
REMARK  8 active torsions:
REMARK  status: ('A' for Active; 'I' for Inactive)
REMARK    1  A    between atoms: C_1  and  C_2
REMARK    2  A    between atoms: C_2  and  C_3
REMARK    3  A    between atoms: C_2  and  C_4
REMARK    4  A    between atoms: C_2  and  C_5
REMARK    5  A    between atoms: C_8  and  C_9
REMARK    6  A    between atoms: C_9  and  O_10
REMARK    7  A    between atoms: O_10  and  C_11
REMARK    8  A    between atoms: C_14  and  C_15
REMARK                            x       y       z     vdW  Elec       q    Type
REMARK                         _______ _______ _______ _____ _____    ______ ____
ROOT
ATOM      1  O   UNL     1      43.555   4.579   9.801  0.00  0.00    +0.000 OA
ENDROOT
BRANCH   1   2
ATOM      2  C   UNL     1      44.533   3.888   9.125  0.00  0.00    +0.000 A 
ATOM      3  C   UNL     1      44.618   2.526   9.376  0.00  0.00    +0.000 A 
ATOM      4  C   UNL     1      45.569   1.780   8.682  0.00  0.00    +0.000 A 
ATOM      5  C   UNL     1      46.397   2.423   7.759  0.00  0.00    +0.000 A 
ATOM      6  C   UNL     1      46.235   3.792   7.578  0.00  0.00    +0.000 A 
ATOM      7  N   UNL     1      45.327   4.538   8.254  0.00  0.00    +0.000 NA
BRANCH   5   8
ATOM      8  C   UNL     1      47.401   1.721   6.939  0.00  0.00    +0.000 C 
ATOM      9  N   UNL     1      48.471   2.446   6.493  0.00  0.00    +0.000 N 
ATOM     10  O   UNL     1      47.272   0.539   6.646  0.00  0.00    +0.000 OA
ATOM     11  H   UNL     1      48.506   3.453   6.520  0.00  0.00    +0.000 HD
ATOM     12  H   UNL     1      49.104   1.970   5.863  0.00  0.00    +0.000 HD
ENDBRANCH   5   8
ENDBRANCH   1   2
BRANCH   1  13
ATOM     13  C   UNL     1      43.572   4.328  11.210  0.00  0.00    +0.000 C 
BRANCH  13  17
ATOM     14  C   UNL     1      46.880   6.479  13.069  0.00  0.00    +0.000 A 
ATOM     15  C   UNL     1      45.969   7.127  12.219  0.00  0.00    +0.000 A 
ATOM     16  C   UNL     1      44.897   6.445  11.633  0.00  0.00    +0.000 A 
ATOM     17  C   UNL     1      44.717   5.080  11.852  0.00  0.00    +0.000 A 
ATOM     18  C   UNL     1      45.602   4.422  12.710  0.00  0.00    +0.000 A 
ATOM     19  C   UNL     1      46.673   5.109  13.302  0.00  0.00    +0.000 A 
BRANCH  14  21
ATOM     20  C   UNL     1      48.558   6.613  14.998  0.00  0.00    +0.000 C 
ATOM     21  C   UNL     1      48.088   7.231  13.660  0.00  0.00    +0.000 C 
ATOM     22  C   UNL     1      47.675   8.694  13.912  0.00  0.00    +0.000 C 
ATOM     23  C   UNL     1      49.318   7.230  12.725  0.00  0.00    +0.000 C 
ENDBRANCH  14  21
ENDBRANCH  13  17
ENDBRANCH   1  13
TORSDOF 5
ENDMDL
MODEL 2
REMARK VINA RESULT:    -6.597      2.678      6.696
REMARK INTER + INTRA:          -9.376
REMARK INTER:                  -8.853
REMARK INTRA:                  -0.523
REMARK UNBOUND:                -0.851
REMARK  Name = 
REMARK  8 active torsions:
REMARK  status: ('A' for Active; 'I' for Inactive)
REMARK    1  A    between atoms: C_1  and  C_2
REMARK    2  A    between atoms: C_2  and  C_3
REMARK    3  A    between atoms: C_2  and  C_4
REMARK    4  A    between atoms: C_2  and  C_5
REMARK    5  A    between atoms: C_8  and  C_9
REMARK    6  A    between atoms: C_9  and  O_10
REMARK    7  A    between atoms: O_10  and  C_11
REMARK    8  A    between atoms: C_14  and  C_15
REMARK                            x       y       z     vdW  Elec       q    Type
REMARK                         _______ _______ _______ _____ _____    ______ ____
ROOT
ATOM      1  O   UNL     1      43.613   5.567  11.203  0.00  0.00    +0.000 OA
ENDROOT
BRANCH   1   2
ATOM      2  C   UNL     1      44.732   5.853  11.950  0.00  0.00    +0.000 A 
ATOM      3  C   UNL     1      45.053   4.953  12.956  0.00  0.00    +0.000 A 
ATOM      4  C   UNL     1      46.202   5.183  13.712  0.00  0.00    +0.000 A 
ATOM      5  C   UNL     1      46.989   6.302  13.429  0.00  0.00    +0.000 A 
ATOM      6  C   UNL     1      46.582   7.145  12.401  0.00  0.00    +0.000 A 
ATOM      7  N   UNL     1      45.461   6.947  11.665  0.00  0.00    +0.000 NA
BRANCH   5   8
ATOM      8  C   UNL     1      48.246   6.612  14.135  0.00  0.00    +0.000 C 
ATOM      9  N   UNL     1      48.173   6.855  15.478  0.00  0.00    +0.000 N 
ATOM     10  O   UNL     1      49.313   6.674  13.538  0.00  0.00    +0.000 OA
ATOM     11  H   UNL     1      47.306   7.032  15.961  0.00  0.00    +0.000 HD
ATOM     12  H   UNL     1      49.031   7.149  15.928  0.00  0.00    +0.000 HD
ENDBRANCH   5   8
ENDBRANCH   1   2
BRANCH   1  13
ATOM     13  C   UNL     1      43.403   4.161  11.034  0.00  0.00    +0.000 C 
BRANCH  13  17
ATOM     14  C   UNL     1      45.957   2.676   7.825  0.00  0.00    +0.000 A 
ATOM     15  C   UNL     1      45.363   1.804   8.753  0.00  0.00    +0.000 A 
ATOM     16  C   UNL     1      44.531   2.274   9.774  0.00  0.00    +0.000 A 
ATOM     17  C   UNL     1      44.288   3.640   9.923  0.00  0.00    +0.000 A 
ATOM     18  C   UNL     1      44.854   4.520   8.998  0.00  0.00    +0.000 A 
ATOM     19  C   UNL     1      45.684   4.046   7.970  0.00  0.00    +0.000 A 
BRANCH  14  21
ATOM     20  C   UNL     1      47.152   0.624   6.867  0.00  0.00    +0.000 C 
ATOM     21  C   UNL     1      46.916   2.148   6.742  0.00  0.00    +0.000 C 
ATOM     22  C   UNL     1      48.269   2.869   6.897  0.00  0.00    +0.000 C 
ATOM     23  C   UNL     1      46.401   2.391   5.305  0.00  0.00    +0.000 C 
ENDBRANCH  14  21
ENDBRANCH  13  17
ENDBRANCH   1  13
TORSDOF 5
ENDMDL
MODEL 3
REMARK VINA RESULT:    -6.144      4.241      6.628
REMARK INTER + INTRA:          -8.791
REMARK INTER:                  -8.202
REMARK INTRA:                  -0.590
REMARK UNBOUND:                -0.851
REMARK  Name = 
REMARK  8 active torsions:
REMARK  status: ('A' for Active; 'I' for Inactive)
REMARK    1  A    between atoms: C_1  and  C_2
REMARK    2  A    between atoms: C_2  and  C_3
REMARK    3  A    between atoms: C_2  and  C_4
REMARK    4  A    between atoms: C_2  and  C_5
REMARK    5  A    between atoms: C_8  and  C_9
REMARK    6  A    between atoms: C_9  and  O_10
REMARK    7  A    between atoms: O_10  and  C_11
REMARK    8  A    between atoms: C_14  and  C_15
REMARK                            x       y       z     vdW  Elec       q    Type
REMARK                         _______ _______ _______ _____ _____    ______ ____
ROOT
ATOM      1  O   UNL     1      47.431   3.270  14.547  0.00  0.00    +0.000 OA
ENDROOT
BRANCH   1   2
ATOM      2  C   UNL     1      46.475   3.789  13.705  0.00  0.00    +0.000 A 
ATOM      3  C   UNL     1      46.296   5.165  13.742  0.00  0.00    +0.000 A 
ATOM      4  C   UNL     1      45.366   5.738  12.877  0.00  0.00    +0.000 A 
ATOM      5  C   UNL     1      44.652   4.914  12.004  0.00  0.00    +0.000 A 
ATOM      6  C   UNL     1      44.901   3.547  12.044  0.00  0.00    +0.000 A 
ATOM      7  N   UNL     1      45.791   2.969  12.887  0.00  0.00    +0.000 NA
BRANCH   5   8
ATOM      8  C   UNL     1      43.680   5.422  11.017  0.00  0.00    +0.000 C 
ATOM      9  N   UNL     1      43.069   6.615  11.289  0.00  0.00    +0.000 N 
ATOM     10  O   UNL     1      43.410   4.790  10.005  0.00  0.00    +0.000 OA
ATOM     11  H   UNL     1      43.091   7.053  12.197  0.00  0.00    +0.000 HD
ATOM     12  H   UNL     1      42.345   6.904  10.644  0.00  0.00    +0.000 HD
ENDBRANCH   5   8
ENDBRANCH   1   2
BRANCH   1  13
ATOM     13  C   UNL     1      47.321   3.765  15.885  0.00  0.00    +0.000 C 
BRANCH  13  17
ATOM     14  C   UNL     1      51.220   3.624  17.834  0.00  0.00    +0.000 A 
ATOM     15  C   UNL     1      50.547   4.839  17.627  0.00  0.00    +0.000 A 
ATOM     16  C   UNL     1      49.289   4.888  17.017  0.00  0.00    +0.000 A 
ATOM     17  C   UNL     1      48.673   3.723  16.561  0.00  0.00    +0.000 A 
ATOM     18  C   UNL     1      49.319   2.502  16.776  0.00  0.00    +0.000 A 
ATOM     19  C   UNL     1      50.578   2.454  17.394  0.00  0.00    +0.000 A 
BRANCH  14  21
ATOM     20  C   UNL     1      53.605   4.548  17.729  0.00  0.00    +0.000 C 
ATOM     21  C   UNL     1      52.630   3.592  18.455  0.00  0.00    +0.000 C 
ATOM     22  C   UNL     1      53.178   2.156  18.347  0.00  0.00    +0.000 C 
ATOM     23  C   UNL     1      52.645   4.005  19.944  0.00  0.00    +0.000 C 
ENDBRANCH  14  21
ENDBRANCH  13  17
ENDBRANCH   1  13
TORSDOF 5
ENDMDL
MODEL 4
REMARK VINA RESULT:    -6.090      5.453      7.916
REMARK INTER + INTRA:          -8.721
REMARK INTER:                  -8.098
REMARK INTRA:                  -0.624
REMARK UNBOUND:                -0.851
REMARK  Name = 
REMARK  8 active torsions:
REMARK  status: ('A' for Active; 'I' for Inactive)
REMARK    1  A    between atoms: C_1  and  C_2
REMARK    2  A    between atoms: C_2  and  C_3
REMARK    3  A    between atoms: C_2  and  C_4
REMARK    4  A    between atoms: C_2  and  C_5
REMARK    5  A    between atoms: C_8  and  C_9
REMARK    6  A    between atoms: C_9  and  O_10
REMARK    7  A    between atoms: O_10  and  C_11
REMARK    8  A    between atoms: C_14  and  C_15
REMARK                            x       y       z     vdW  Elec       q    Type
REMARK                         _______ _______ _______ _____ _____    ______ ____
ROOT
ATOM      1  O   UNL     1      47.927   5.153  16.316  0.00  0.00    +0.000 OA
ENDROOT
BRANCH   1   2
ATOM      2  C   UNL     1      48.909   4.275  16.709  0.00  0.00    +0.000 A 
ATOM      3  C   UNL     1      48.590   2.925  16.665  0.00  0.00    +0.000 A 
ATOM      4  C   UNL     1      49.570   1.998  17.016  0.00  0.00    +0.000 A 
ATOM      5  C   UNL     1      50.834   2.456  17.395  0.00  0.00    +0.000 A 
ATOM      6  C   UNL     1      51.055   3.828  17.409  0.00  0.00    +0.000 A 
ATOM      7  N   UNL     1      50.112   4.746  17.086  0.00  0.00    +0.000 NA
BRANCH   5   8
ATOM      8  C   UNL     1      51.954   1.560  17.740  0.00  0.00    +0.000 C 
ATOM      9  N   UNL     1      51.651   0.271  18.077  0.00  0.00    +0.000 N 
ATOM     10  O   UNL     1      53.111   1.961  17.750  0.00  0.00    +0.000 OA
ATOM     11  H   UNL     1      50.716  -0.038  18.297  0.00  0.00    +0.000 HD
ATOM     12  H   UNL     1      52.422  -0.303  18.393  0.00  0.00    +0.000 HD
ENDBRANCH   5   8
ENDBRANCH   1   2
BRANCH   1  13
ATOM     13  C   UNL     1      48.222   5.795  15.071  0.00  0.00    +0.000 C 
BRANCH  13  17
ATOM     14  C   UNL     1      45.186   4.745  12.120  0.00  0.00    +0.000 A 
ATOM     15  C   UNL     1      45.539   6.083  12.366  0.00  0.00    +0.000 A 
ATOM     16  C   UNL     1      46.523   6.423  13.300  0.00  0.00    +0.000 A 
ATOM     17  C   UNL     1      47.168   5.437  14.046  0.00  0.00    +0.000 A 
ATOM     18  C   UNL     1      46.844   4.100  13.802  0.00  0.00    +0.000 A 
ATOM     19  C   UNL     1      45.861   3.760  12.860  0.00  0.00    +0.000 A 
BRANCH  14  21
ATOM     20  C   UNL     1      42.972   5.489  11.071  0.00  0.00    +0.000 C 
ATOM     21  C   UNL     1      44.060   4.391  11.131  0.00  0.00    +0.000 C 
ATOM     22  C   UNL     1      43.405   3.074  11.590  0.00  0.00    +0.000 C 
ATOM     23  C   UNL     1      44.564   4.200   9.682  0.00  0.00    +0.000 C 
ENDBRANCH  14  21
ENDBRANCH  13  17
ENDBRANCH   1  13
TORSDOF 5
ENDMDL
MODEL 5
REMARK VINA RESULT:    -5.625      5.090      8.687
REMARK INTER + INTRA:          -8.121
REMARK INTER:                  -7.492
REMARK INTRA:                  -0.629
REMARK UNBOUND:                -0.851
REMARK  Name = 
REMARK  8 active torsions:
REMARK  status: ('A' for Active; 'I' for Inactive)
REMARK    1  A    between atoms: C_1  and  C_2
REMARK    2  A    between atoms: C_2  and  C_3
REMARK    3  A    between atoms: C_2  and  C_4
REMARK    4  A    between atoms: C_2  and  C_5
REMARK    5  A    between atoms: C_8  and  C_9
REMARK    6  A    between atoms: C_9  and  O_10
REMARK    7  A    between atoms: O_10  and  C_11
REMARK    8  A    between atoms: C_14  and  C_15
REMARK                            x       y       z     vdW  Elec       q    Type
REMARK                         _______ _______ _______ _____ _____    ______ ____
ROOT
ATOM      1  O   UNL     1      49.277   6.372  14.893  0.00  0.00    +0.000 OA
ENDROOT
BRANCH   1   2
ATOM      2  C   UNL     1      49.056   6.092  16.221  0.00  0.00    +0.000 A 
ATOM      3  C   UNL     1      48.831   7.177  17.056  0.00  0.00    +0.000 A 
ATOM      4  C   UNL     1      48.563   6.935  18.403  0.00  0.00    +0.000 A 
ATOM      5  C   UNL     1      48.527   5.616  18.863  0.00  0.00    +0.000 A 
ATOM      6  C   UNL     1      48.767   4.598  17.947  0.00  0.00    +0.000 A 
ATOM      7  N   UNL     1      49.043   4.812  16.638  0.00  0.00    +0.000 NA
BRANCH   5   8
ATOM      8  C   UNL     1      48.207   5.249  20.255  0.00  0.00    +0.000 C 
ATOM      9  N   UNL     1      48.599   4.013  20.687  0.00  0.00    +0.000 N 
ATOM     10  O   UNL     1      47.592   6.010  20.990  0.00  0.00    +0.000 OA
ATOM     11  H   UNL     1      48.904   3.280  20.064  0.00  0.00    +0.000 HD
ATOM     12  H   UNL     1      48.297   3.746  21.615  0.00  0.00    +0.000 HD
ENDBRANCH   5   8
ENDBRANCH   1   2
BRANCH   1  13
ATOM     13  C   UNL     1      48.323   7.294  14.355  0.00  0.00    +0.000 C 
BRANCH  13  17
ATOM     14  C   UNL     1      45.695   5.247  11.538  0.00  0.00    +0.000 A 
ATOM     15  C   UNL     1      45.842   4.801  12.862  0.00  0.00    +0.000 A 
ATOM     16  C   UNL     1      46.671   5.464  13.774  0.00  0.00    +0.000 A 
ATOM     17  C   UNL     1      47.410   6.580  13.383  0.00  0.00    +0.000 A 
ATOM     18  C   UNL     1      47.263   7.050  12.075  0.00  0.00    +0.000 A 
ATOM     19  C   UNL     1      46.426   6.388  11.164  0.00  0.00    +0.000 A 
BRANCH  14  21
ATOM     20  C   UNL     1      45.307   4.669   9.075  0.00  0.00    +0.000 C 
ATOM     21  C   UNL     1      44.824   4.473  10.531  0.00  0.00    +0.000 C 
ATOM     22  C   UNL     1      43.376   4.989  10.642  0.00  0.00    +0.000 C 
ATOM     23  C   UNL     1      44.814   2.949  10.785  0.00  0.00    +0.000 C 
ENDBRANCH  14  21
ENDBRANCH  13  17
ENDBRANCH   1  13
TORSDOF 5
ENDMDL
MODEL 6
REMARK VINA RESULT:    -5.425      5.192      8.239
REMARK INTER + INTRA:          -7.862
REMARK INTER:                  -7.291
REMARK INTRA:                  -0.571
REMARK UNBOUND:                -0.851
REMARK  Name = 
REMARK  8 active torsions:
REMARK  status: ('A' for Active; 'I' for Inactive)
REMARK    1  A    between atoms: C_1  and  C_2
REMARK    2  A    between atoms: C_2  and  C_3
REMARK    3  A    between atoms: C_2  and  C_4
REMARK    4  A    between atoms: C_2  and  C_5
REMARK    5  A    between atoms: C_8  and  C_9
REMARK    6  A    between atoms: C_9  and  O_10
REMARK    7  A    between atoms: O_10  and  C_11
REMARK    8  A    between atoms: C_14  and  C_15
REMARK                            x       y       z     vdW  Elec       q    Type
REMARK                         _______ _______ _______ _____ _____    ______ ____
ROOT
ATOM      1  O   UNL     1      48.257   6.653  15.513  0.00  0.00    +0.000 OA
ENDROOT
BRANCH   1   2
ATOM      2  C   UNL     1      49.155   5.885  16.217  0.00  0.00    +0.000 A 
ATOM      3  C   UNL     1      50.430   6.410  16.375  0.00  0.00    +0.000 A 
ATOM      4  C   UNL     1      51.361   5.684  17.117  0.00  0.00    +0.000 A 
ATOM      5  C   UNL     1      50.980   4.462  17.676  0.00  0.00    +0.000 A 
ATOM      6  C   UNL     1      49.679   4.021  17.460  0.00  0.00    +0.000 A 
ATOM      7  N   UNL     1      48.764   4.704  16.730  0.00  0.00    +0.000 NA
BRANCH   5   8
ATOM      8  C   UNL     1      51.870   3.639  18.516  0.00  0.00    +0.000 C 
ATOM      9  N   UNL     1      52.084   4.049  19.802  0.00  0.00    +0.000 N 
ATOM     10  O   UNL     1      52.418   2.638  18.072  0.00  0.00    +0.000 OA
ATOM     11  H   UNL     1      51.838   4.969  20.136  0.00  0.00    +0.000 HD
ATOM     12  H   UNL     1      52.762   3.521  20.334  0.00  0.00    +0.000 HD
ENDBRANCH   5   8
ENDBRANCH   1   2
BRANCH   1  13
ATOM     13  C   UNL     1      48.518   6.661  14.105  0.00  0.00    +0.000 C 
BRANCH  13  17
ATOM     14  C   UNL     1      45.103   4.986  11.969  0.00  0.00    +0.000 A 
ATOM     15  C   UNL     1      45.780   6.122  11.495  0.00  0.00    +0.000 A 
ATOM     16  C   UNL     1      46.886   6.653  12.168  0.00  0.00    +0.000 A 
ATOM     17  C   UNL     1      47.334   6.085  13.360  0.00  0.00    +0.000 A 
ATOM     18  C   UNL     1      46.685   4.943  13.838  0.00  0.00    +0.000 A 
ATOM     19  C   UNL     1      45.580   4.408  13.158  0.00  0.00    +0.000 A 
BRANCH  14  21
ATOM     20  C   UNL     1      44.046   4.395   9.714  0.00  0.00    +0.000 C 
ATOM     21  C   UNL     1      43.853   4.448  11.248  0.00  0.00    +0.000 C 
ATOM     22  C   UNL     1      42.669   5.383  11.563  0.00  0.00    +0.000 C 
ATOM     23  C   UNL     1      43.469   3.017  11.688  0.00  0.00    +0.000 C 
ENDBRANCH  14  21
ENDBRANCH  13  17
ENDBRANCH   1  13
TORSDOF 5
ENDMDL
MODEL 7
REMARK VINA RESULT:    -5.252      4.510      6.954
REMARK INTER + INTRA:          -7.639
REMARK INTER:                  -7.045
REMARK INTRA:                  -0.595
REMARK UNBOUND:                -0.851
REMARK  Name = 
REMARK  8 active torsions:
REMARK  status: ('A' for Active; 'I' for Inactive)
REMARK    1  A    between atoms: C_1  and  C_2
REMARK    2  A    between atoms: C_2  and  C_3
REMARK    3  A    between atoms: C_2  and  C_4
REMARK    4  A    between atoms: C_2  and  C_5
REMARK    5  A    between atoms: C_8  and  C_9
REMARK    6  A    between atoms: C_9  and  O_10
REMARK    7  A    between atoms: O_10  and  C_11
REMARK    8  A    between atoms: C_14  and  C_15
REMARK                            x       y       z     vdW  Elec       q    Type
REMARK                         _______ _______ _______ _____ _____    ______ ____
ROOT
ATOM      1  O   UNL     1      47.690   3.012  15.127  0.00  0.00    +0.000 OA
ENDROOT
BRANCH   1   2
ATOM      2  C   UNL     1      47.168   3.869  14.186  0.00  0.00    +0.000 A 
ATOM      3  C   UNL     1      46.262   3.325  13.286  0.00  0.00    +0.000 A 
ATOM      4  C   UNL     1      45.677   4.166  12.341  0.00  0.00    +0.000 A 
ATOM      5  C   UNL     1      46.017   5.521  12.333  0.00  0.00    +0.000 A 
ATOM      6  C   UNL     1      46.936   5.969  13.275  0.00  0.00    +0.000 A 
ATOM      7  N   UNL     1      47.527   5.166  14.192  0.00  0.00    +0.000 NA
BRANCH   5   8
ATOM      8  C   UNL     1      45.423   6.504  11.408  0.00  0.00    +0.000 C 
ATOM      9  N   UNL     1      44.965   6.043  10.205  0.00  0.00    +0.000 N 
ATOM     10  O   UNL     1      45.363   7.693  11.693  0.00  0.00    +0.000 OA
ATOM     11  H   UNL     1      45.191   5.130   9.841  0.00  0.00    +0.000 HD
ATOM     12  H   UNL     1      44.640   6.743   9.551  0.00  0.00    +0.000 HD
ENDBRANCH   5   8
ENDBRANCH   1   2
BRANCH   1  13
ATOM     13  C   UNL     1      47.679   3.566  16.447  0.00  0.00    +0.000 C 
BRANCH  13  17
ATOM     14  C   UNL     1      51.765   4.016  17.906  0.00  0.00    +0.000 A 
ATOM     15  C   UNL     1      51.207   2.750  17.664  0.00  0.00    +0.000 A 
ATOM     16  C   UNL     1      49.903   2.600  17.181  0.00  0.00    +0.000 A 
ATOM     17  C   UNL     1      49.096   3.715  16.953  0.00  0.00    +0.000 A 
ATOM     18  C   UNL     1      49.640   4.984  17.170  0.00  0.00    +0.000 A 
ATOM     19  C   UNL     1      50.951   5.132  17.649  0.00  0.00    +0.000 A 
BRANCH  14  21
ATOM     20  C   UNL     1      54.239   3.414  17.646  0.00  0.00    +0.000 C 
ATOM     21  C   UNL     1      53.181   4.161  18.492  0.00  0.00    +0.000 C 
ATOM     22  C   UNL     1      53.183   3.570  19.915  0.00  0.00    +0.000 C 
ATOM     23  C   UNL     1      53.654   5.630  18.579  0.00  0.00    +0.000 C 
ENDBRANCH  14  21
ENDBRANCH  13  17
ENDBRANCH   1  13
TORSDOF 5
ENDMDL
