MODEL 1
REMARK VINA RESULT:    -7.532      0.000      0.000
REMARK INTER + INTRA:         -10.830
REMARK INTER:                  -9.733
REMARK INTRA:                  -1.097
REMARK UNBOUND:                -1.097
REMARK  Name = 
REMARK  6 active torsions:
REMARK  status: ('A' for Active; 'I' for Inactive)
REMARK    1  A    between atoms: C_1  and  C_2
REMARK    2  A    between atoms: C_4  and  C_5
REMARK    3  A    between atoms: C_10  and  O_11
REMARK    4  A    between atoms: O_11  and  C_12
REMARK    5  A    between atoms: C_12  and  C_13
REMARK    6  A    between atoms: C_17  and  C_18
REMARK                            x       y       z     vdW  Elec       q    Type
REMARK                         _______ _______ _______ _____ _____    ______ ____
ROOT
ATOM      1  O   UNL     1      44.381   6.645  12.808  0.00  0.00    +0.000 OA
ENDROOT
BRANCH   1   8
ATOM      2  C   UNL     1      46.592   4.530  13.664  0.00  0.00    +0.000 C 
ATOM      3  C   UNL     1      46.766   5.933  13.154  0.00  0.00    +0.000 A 
ATOM      4  C   UNL     1      48.104   6.375  13.040  0.00  0.00    +0.000 A 
ATOM      5  C   UNL     1      48.442   7.654  12.575  0.00  0.00    +0.000 A 
ATOM      6  C   UNL     1      47.416   8.521  12.212  0.00  0.00    +0.000 A 
ATOM      7  C   UNL     1      46.084   8.102  12.321  0.00  0.00    +0.000 A 
ATOM      8  C   UNL     1      45.739   6.820  12.787  0.00  0.00    +0.000 A 
BRANCH   5   9
ATOM      9  C   UNL     1      49.890   7.997  12.501  0.00  0.00    +0.000 C 
ATOM     10  N   UNL     1      50.695   7.288  11.658  0.00  0.00    +0.000 N 
ATOM     11  O   UNL     1      50.369   8.902  13.181  0.00  0.00    +0.000 OA
ATOM     12  H   UNL     1      50.399   6.537  11.060  0.00  0.00    +0.000 HD
ATOM     13  H   UNL     1      51.672   7.557  11.639  0.00  0.00    +0.000 HD
ENDBRANCH   5   9
ENDBRANCH   1   8
BRANCH   1  14
ATOM     14  C   UNL     1      43.697   6.314  11.605  0.00  0.00    +0.000 C 
BRANCH  14  15
ATOM     15  C   UNL     1      43.820   4.851  11.247  0.00  0.00    +0.000 A 
ATOM     16  C   UNL     1      43.250   3.861  12.036  0.00  0.00    +0.000 A 
ATOM     17  C   UNL     1      43.356   2.538  11.627  0.00  0.00    +0.000 A 
ATOM     18  C   UNL     1      44.007   2.238  10.434  0.00  0.00    +0.000 A 
ATOM     19  C   UNL     1      44.525   3.278   9.671  0.00  0.00    +0.000 A 
ATOM     20  N   UNL     1      44.435   4.571  10.066  0.00  0.00    +0.000 NA
BRANCH  19  21
ATOM     21  C   UNL     1      45.194   3.001   8.343  0.00  0.00    +0.000 C 
ATOM     22  C   UNL     1      46.031   1.713   8.393  0.00  0.00    +0.000 C 
ATOM     23  C   UNL     1      46.835   1.539   7.107  0.00  0.00    +0.000 C 
ATOM     24  C   UNL     1      47.621   2.804   6.796  0.00  0.00    +0.000 C 
ATOM     25  O   UNL     1      46.734   3.917   6.675  0.00  0.00    +0.000 OA
ATOM     26  C   UNL     1      46.055   4.192   7.906  0.00  0.00    +0.000 C 
ENDBRANCH  19  21
ENDBRANCH  14  15
ENDBRANCH   1  14
TORSDOF 5
ENDMDL
MODEL 2
REMARK VINA RESULT:    -7.457      1.890      6.436
REMARK INTER + INTRA:         -10.733
REMARK INTER:                 -10.117
REMARK INTRA:                  -0.616
REMARK UNBOUND:                -1.097
REMARK  Name = 
REMARK  6 active torsions:
REMARK  status: ('A' for Active; 'I' for Inactive)
REMARK    1  A    between atoms: C_1  and  C_2
REMARK    2  A    between atoms: C_4  and  C_5
REMARK    3  A    between atoms: C_10  and  O_11
REMARK    4  A    between atoms: O_11  and  C_12
REMARK    5  A    between atoms: C_12  and  C_13
REMARK    6  A    between atoms: C_17  and  C_18
REMARK                            x       y       z     vdW  Elec       q    Type
REMARK                         _______ _______ _______ _____ _____    ______ ____
ROOT
ATOM      1  O   UNL     1      43.892   5.101   9.840  0.00  0.00    +0.000 OA
ENDROOT
BRANCH   1   8
ATOM      2  C   UNL     1      43.636   2.086  10.809  0.00  0.00    +0.000 C 
ATOM      3  C   UNL     1      44.511   2.668   9.734  0.00  0.00    +0.000 A 
ATOM      4  C   UNL     1      45.339   1.743   9.059  0.00  0.00    +0.000 A 
ATOM      5  C   UNL     1      46.211   2.119   8.028  0.00  0.00    +0.000 A 
ATOM      6  C   UNL     1      46.260   3.459   7.655  0.00  0.00    +0.000 A 
ATOM      7  C   UNL     1      45.449   4.391   8.314  0.00  0.00    +0.000 A 
ATOM      8  C   UNL     1      44.573   4.019   9.351  0.00  0.00    +0.000 A 
BRANCH   5   9
ATOM      9  C   UNL     1      47.030   1.047   7.395  0.00  0.00    +0.000 C 
ATOM     10  N   UNL     1      46.731  -0.258   7.662  0.00  0.00    +0.000 N 
ATOM     11  O   UNL     1      47.965   1.315   6.642  0.00  0.00    +0.000 OA
ATOM     12  H   UNL     1      45.987  -0.578   8.256  0.00  0.00    +0.000 HD
ATOM     13  H   UNL     1      47.313  -0.953   7.209  0.00  0.00    +0.000 HD
ENDBRANCH   5   9
ENDBRANCH   1   8
BRANCH   1  14
ATOM     14  C   UNL     1      43.687   5.227  11.243  0.00  0.00    +0.000 C 
BRANCH  14  15
ATOM     15  C   UNL     1      44.980   5.385  12.010  0.00  0.00    +0.000 A 
ATOM     16  C   UNL     1      45.316   4.527  13.049  0.00  0.00    +0.000 A 
ATOM     17  C   UNL     1      46.541   4.694  13.683  0.00  0.00    +0.000 A 
ATOM     18  C   UNL     1      47.405   5.696  13.252  0.00  0.00    +0.000 A 
ATOM     19  C   UNL     1      47.026   6.499  12.183  0.00  0.00    +0.000 A 
ATOM     20  N   UNL     1      45.830   6.350  11.564  0.00  0.00    +0.000 NA
BRANCH  19  21
ATOM     21  C   UNL     1      47.957   7.564  11.649  0.00  0.00    +0.000 C 
ATOM     22  C   UNL     1      49.413   7.298  12.065  0.00  0.00    +0.000 C 
ATOM     23  C   UNL     1      50.312   8.466  11.669  0.00  0.00    +0.000 C 
ATOM     24  C   UNL     1      49.731   9.779  12.172  0.00  0.00    +0.000 C 
ATOM     25  O   UNL     1      48.417   9.969  11.646  0.00  0.00    +0.000 OA
ATOM     26  C   UNL     1      47.510   8.959  12.103  0.00  0.00    +0.000 C 
ENDBRANCH  19  21
ENDBRANCH  14  15
ENDBRANCH   1  14
TORSDOF 5
ENDMDL
MODEL 3
REMARK VINA RESULT:    -7.425      2.307      6.771
REMARK INTER + INTRA:         -10.692
REMARK INTER:                 -10.016
REMARK INTRA:                  -0.676
REMARK UNBOUND:                -1.097
REMARK  Name = 
REMARK  6 active torsions:
REMARK  status: ('A' for Active; 'I' for Inactive)
REMARK    1  A    between atoms: C_1  and  C_2
REMARK    2  A    between atoms: C_4  and  C_5
REMARK    3  A    between atoms: C_10  and  O_11
REMARK    4  A    between atoms: O_11  and  C_12
REMARK    5  A    between atoms: C_12  and  C_13
REMARK    6  A    between atoms: C_17  and  C_18
REMARK                            x       y       z     vdW  Elec       q    Type
REMARK                         _______ _______ _______ _____ _____    ______ ____
ROOT
ATOM      1  O   UNL     1      43.700   4.756   9.898  0.00  0.00    +0.000 OA
ENDROOT
BRANCH   1   8
ATOM      2  C   UNL     1      43.871   1.600  10.227  0.00  0.00    +0.000 C 
ATOM      3  C   UNL     1      44.686   2.510   9.351  0.00  0.00    +0.000 A 
ATOM      4  C   UNL     1      45.669   1.871   8.561  0.00  0.00    +0.000 A 
ATOM      5  C   UNL     1      46.509   2.573   7.686  0.00  0.00    +0.000 A 
ATOM      6  C   UNL     1      46.368   3.954   7.591  0.00  0.00    +0.000 A 
ATOM      7  C   UNL     1      45.401   4.605   8.368  0.00  0.00    +0.000 A 
ATOM      8  C   UNL     1      44.555   3.906   9.250  0.00  0.00    +0.000 A 
BRANCH   5   9
ATOM      9  C   UNL     1      47.505   1.782   6.907  0.00  0.00    +0.000 C 
ATOM     10  N   UNL     1      48.601   2.416   6.400  0.00  0.00    +0.000 N 
ATOM     11  O   UNL     1      47.357   0.576   6.716  0.00  0.00    +0.000 OA
ATOM     12  H   UNL     1      48.815   3.392   6.506  0.00  0.00    +0.000 HD
ATOM     13  H   UNL     1      49.252   1.838   5.879  0.00  0.00    +0.000 HD
ENDBRANCH   5   9
ENDBRANCH   1   8
BRANCH   1  14
ATOM     14  C   UNL     1      43.742   4.847  11.318  0.00  0.00    +0.000 C 
BRANCH  14  15
ATOM     15  C   UNL     1      44.826   5.778  11.811  0.00  0.00    +0.000 A 
ATOM     16  C   UNL     1      44.840   7.122  11.464  0.00  0.00    +0.000 A 
ATOM     17  C   UNL     1      45.836   7.936  11.989  0.00  0.00    +0.000 A 
ATOM     18  C   UNL     1      46.775   7.396  12.862  0.00  0.00    +0.000 A 
ATOM     19  C   UNL     1      46.685   6.050  13.198  0.00  0.00    +0.000 A 
ATOM     20  N   UNL     1      45.724   5.246  12.684  0.00  0.00    +0.000 NA
BRANCH  19  21
ATOM     21  C   UNL     1      47.654   5.434  14.184  0.00  0.00    +0.000 C 
ATOM     22  C   UNL     1      46.936   4.491  15.162  0.00  0.00    +0.000 C 
ATOM     23  C   UNL     1      47.890   4.013  16.253  0.00  0.00    +0.000 C 
ATOM     24  C   UNL     1      48.592   5.198  16.902  0.00  0.00    +0.000 C 
ATOM     25  O   UNL     1      49.305   5.947  15.917  0.00  0.00    +0.000 OA
ATOM     26  C   UNL     1      48.424   6.521  14.944  0.00  0.00    +0.000 C 
ENDBRANCH  19  21
ENDBRANCH  14  15
ENDBRANCH   1  14
TORSDOF 5
ENDMDL
MODEL 4
REMARK VINA RESULT:    -7.297      2.072      6.534
REMARK INTER + INTRA:         -10.526
REMARK INTER:                  -9.793
REMARK INTRA:                  -0.733
REMARK UNBOUND:                -1.097
REMARK  Name = 
REMARK  6 active torsions:
REMARK  status: ('A' for Active; 'I' for Inactive)
REMARK    1  A    between atoms: C_1  and  C_2
REMARK    2  A    between atoms: C_4  and  C_5
REMARK    3  A    between atoms: C_10  and  O_11
REMARK    4  A    between atoms: O_11  and  C_12
REMARK    5  A    between atoms: C_12  and  C_13
REMARK    6  A    between atoms: C_17  and  C_18
REMARK                            x       y       z     vdW  Elec       q    Type
REMARK                         _______ _______ _______ _____ _____    ______ ____
ROOT
ATOM      1  O   UNL     1      43.743   4.627   9.839  0.00  0.00    +0.000 OA
ENDROOT
BRANCH   1   8
ATOM      2  C   UNL     1      43.969   1.466   9.601  0.00  0.00    +0.000 C 
ATOM      3  C   UNL     1      44.812   2.530   8.956  0.00  0.00    +0.000 A 
ATOM      4  C   UNL     1      45.854   2.058   8.126  0.00  0.00    +0.000 A 
ATOM      5  C   UNL     1      46.728   2.917   7.446  0.00  0.00    +0.000 A 
ATOM      6  C   UNL     1      46.559   4.291   7.594  0.00  0.00    +0.000 A 
ATOM      7  C   UNL     1      45.534   4.777   8.414  0.00  0.00    +0.000 A 
ATOM      8  C   UNL     1      44.654   3.919   9.101  0.00  0.00    +0.000 A 
BRANCH   5   9
ATOM      9  C   UNL     1      47.785   2.293   6.601  0.00  0.00    +0.000 C 
ATOM     10  N   UNL     1      48.141   2.900   5.432  0.00  0.00    +0.000 N 
ATOM     11  O   UNL     1      48.339   1.248   6.936  0.00  0.00    +0.000 OA
ATOM     12  H   UNL     1      47.753   3.756   5.075  0.00  0.00    +0.000 HD
ATOM     13  H   UNL     1      48.865   2.442   4.891  0.00  0.00    +0.000 HD
ENDBRANCH   5   9
ENDBRANCH   1   8
BRANCH   1  14
ATOM     14  C   UNL     1      43.565   4.320  11.217  0.00  0.00    +0.000 C 
BRANCH  14  15
ATOM     15  C   UNL     1      44.682   4.856  12.083  0.00  0.00    +0.000 A 
ATOM     16  C   UNL     1      45.604   4.009  12.684  0.00  0.00    +0.000 A 
ATOM     17  C   UNL     1      46.636   4.566  13.428  0.00  0.00    +0.000 A 
ATOM     18  C   UNL     1      46.735   5.950  13.536  0.00  0.00    +0.000 A 
ATOM     19  C   UNL     1      45.801   6.744  12.881  0.00  0.00    +0.000 A 
ATOM     20  N   UNL     1      44.786   6.210  12.160  0.00  0.00    +0.000 NA
BRANCH  19  21
ATOM     21  C   UNL     1      45.902   8.253  12.929  0.00  0.00    +0.000 C 
ATOM     22  C   UNL     1      45.020   8.909  11.855  0.00  0.00    +0.000 C 
ATOM     23  C   UNL     1      45.263  10.415  11.800  0.00  0.00    +0.000 C 
ATOM     24  C   UNL     1      46.751  10.710  11.676  0.00  0.00    +0.000 C 
ATOM     25  O   UNL     1      47.459  10.137  12.776  0.00  0.00    +0.000 OA
ATOM     26  C   UNL     1      47.360   8.708  12.786  0.00  0.00    +0.000 C 
ENDBRANCH  19  21
ENDBRANCH  14  15
ENDBRANCH   1  14
TORSDOF 5
ENDMDL
MODEL 5
REMARK VINA RESULT:    -6.941      1.427      2.014
REMARK INTER + INTRA:         -10.066
REMARK INTER:                  -9.501
REMARK INTRA:                  -0.565
REMARK UNBOUND:                -1.097
REMARK  Name = 
REMARK  6 active torsions:
REMARK  status: ('A' for Active; 'I' for Inactive)
REMARK    1  A    between atoms: C_1  and  C_2
REMARK    2  A    between atoms: C_4  and  C_5
REMARK    3  A    between atoms: C_10  and  O_11
REMARK    4  A    between atoms: O_11  and  C_12
REMARK    5  A    between atoms: C_12  and  C_13
REMARK    6  A    between atoms: C_17  and  C_18
REMARK                            x       y       z     vdW  Elec       q    Type
REMARK                         _______ _______ _______ _____ _____    ______ ____
ROOT
ATOM      1  O   UNL     1      44.879   7.065  11.035  0.00  0.00    +0.000 OA
ENDROOT
BRANCH   1   8
ATOM      2  C   UNL     1      45.543   9.842  12.429  0.00  0.00    +0.000 C 
ATOM      3  C   UNL     1      46.183   8.497  12.635  0.00  0.00    +0.000 A 
ATOM      4  C   UNL     1      47.231   8.464  13.583  0.00  0.00    +0.000 A 
ATOM      5  C   UNL     1      47.930   7.290  13.898  0.00  0.00    +0.000 A 
ATOM      6  C   UNL     1      47.574   6.111  13.249  0.00  0.00    +0.000 A 
ATOM      7  C   UNL     1      46.541   6.125  12.305  0.00  0.00    +0.000 A 
ATOM      8  C   UNL     1      45.836   7.301  11.984  0.00  0.00    +0.000 A 
BRANCH   5   9
ATOM      9  C   UNL     1      49.014   7.388  14.917  0.00  0.00    +0.000 C 
ATOM     10  N   UNL     1      49.379   8.620  15.377  0.00  0.00    +0.000 N 
ATOM     11  O   UNL     1      49.581   6.386  15.347  0.00  0.00    +0.000 OA
ATOM     12  H   UNL     1      48.974   9.494  15.093  0.00  0.00    +0.000 HD
ATOM     13  H   UNL     1      50.118   8.638  16.069  0.00  0.00    +0.000 HD
ENDBRANCH   5   9
ENDBRANCH   1   8
BRANCH   1  14
ATOM     14  C   UNL     1      43.710   6.331  11.383  0.00  0.00    +0.000 C 
BRANCH  14  15
ATOM     15  C   UNL     1      43.836   4.855  11.082  0.00  0.00    +0.000 A 
ATOM     16  C   UNL     1      43.265   3.896  11.908  0.00  0.00    +0.000 A 
ATOM     17  C   UNL     1      43.374   2.558  11.551  0.00  0.00    +0.000 A 
ATOM     18  C   UNL     1      44.028   2.213  10.373  0.00  0.00    +0.000 A 
ATOM     19  C   UNL     1      44.548   3.222   9.571  0.00  0.00    +0.000 A 
ATOM     20  N   UNL     1      44.455   4.530   9.915  0.00  0.00    +0.000 NA
BRANCH  19  21
ATOM     21  C   UNL     1      45.221   2.895   8.256  0.00  0.00    +0.000 C 
ATOM     22  C   UNL     1      46.095   1.636   8.371  0.00  0.00    +0.000 C 
ATOM     23  C   UNL     1      46.900   1.417   7.093  0.00  0.00    +0.000 C 
ATOM     24  C   UNL     1      47.649   2.686   6.712  0.00  0.00    +0.000 C 
ATOM     25  O   UNL     1      46.730   3.766   6.537  0.00  0.00    +0.000 OA
ATOM     26  C   UNL     1      46.047   4.086   7.754  0.00  0.00    +0.000 C 
ENDBRANCH  19  21
ENDBRANCH  14  15
ENDBRANCH   1  14
TORSDOF 5
ENDMDL
MODEL 6
REMARK VINA RESULT:    -6.797      2.777      3.599
REMARK INTER + INTRA:          -9.881
REMARK INTER:                  -9.267
REMARK INTRA:                  -0.614
REMARK UNBOUND:                -1.097
REMARK  Name = 
REMARK  6 active torsions:
REMARK  status: ('A' for Active; 'I' for Inactive)
REMARK    1  A    between atoms: C_1  and  C_2
REMARK    2  A    between atoms: C_4  and  C_5
REMARK    3  A    between atoms: C_10  and  O_11
REMARK    4  A    between atoms: O_11  and  C_12
REMARK    5  A    between atoms: C_12  and  C_13
REMARK    6  A    between atoms: C_17  and  C_18
REMARK                            x       y       z     vdW  Elec       q    Type
REMARK                         _______ _______ _______ _____ _____    ______ ____
ROOT
ATOM      1  O   UNL     1      47.669   6.390  12.196  0.00  0.00    +0.000 OA
ENDROOT
BRANCH   1   8
ATOM      2  C   UNL     1      49.302   8.002  14.394  0.00  0.00    +0.000 C 
ATOM      3  C   UNL     1      48.492   6.745  14.543  0.00  0.00    +0.000 A 
ATOM      4  C   UNL     1      48.451   6.202  15.848  0.00  0.00    +0.000 A 
ATOM      5  C   UNL     1      47.736   5.038  16.161  0.00  0.00    +0.000 A 
ATOM      6  C   UNL     1      47.039   4.392  15.144  0.00  0.00    +0.000 A 
ATOM      7  C   UNL     1      47.070   4.913  13.845  0.00  0.00    +0.000 A 
ATOM      8  C   UNL     1      47.786   6.082  13.524  0.00  0.00    +0.000 A 
BRANCH   5   9
ATOM      9  C   UNL     1      47.773   4.569  17.576  0.00  0.00    +0.000 C 
ATOM     10  N   UNL     1      46.872   5.079  18.464  0.00  0.00    +0.000 N 
ATOM     11  O   UNL     1      48.594   3.736  17.953  0.00  0.00    +0.000 OA
ATOM     12  H   UNL     1      46.161   5.757  18.253  0.00  0.00    +0.000 HD
ATOM     13  H   UNL     1      46.932   4.731  19.414  0.00  0.00    +0.000 HD
ENDBRANCH   5   9
ENDBRANCH   1   8
BRANCH   1  14
ATOM     14  C   UNL     1      46.518   7.088  11.736  0.00  0.00    +0.000 C 
BRANCH  14  15
ATOM     15  C   UNL     1      45.424   6.161  11.258  0.00  0.00    +0.000 A 
ATOM     16  C   UNL     1      44.134   6.239  11.767  0.00  0.00    +0.000 A 
ATOM     17  C   UNL     1      43.161   5.391  11.252  0.00  0.00    +0.000 A 
ATOM     18  C   UNL     1      43.493   4.506  10.231  0.00  0.00    +0.000 A 
ATOM     19  C   UNL     1      44.793   4.502   9.740  0.00  0.00    +0.000 A 
ATOM     20  N   UNL     1      45.751   5.318  10.242  0.00  0.00    +0.000 NA
BRANCH  19  21
ATOM     21  C   UNL     1      45.183   3.593   8.595  0.00  0.00    +0.000 C 
ATOM     22  C   UNL     1      45.567   2.192   9.096  0.00  0.00    +0.000 C 
ATOM     23  C   UNL     1      46.121   1.342   7.957  0.00  0.00    +0.000 C 
ATOM     24  C   UNL     1      47.229   2.088   7.227  0.00  0.00    +0.000 C 
ATOM     25  O   UNL     1      46.736   3.329   6.720  0.00  0.00    +0.000 OA
ATOM     26  C   UNL     1      46.324   4.207   7.774  0.00  0.00    +0.000 C 
ENDBRANCH  19  21
ENDBRANCH  14  15
ENDBRANCH   1  14
TORSDOF 5
ENDMDL
MODEL 7
REMARK VINA RESULT:    -6.528      1.927      2.447
REMARK INTER + INTRA:          -9.533
REMARK INTER:                  -8.820
REMARK INTRA:                  -0.712
REMARK UNBOUND:                -1.097
REMARK  Name = 
REMARK  6 active torsions:
REMARK  status: ('A' for Active; 'I' for Inactive)
REMARK    1  A    between atoms: C_1  and  C_2
REMARK    2  A    between atoms: C_4  and  C_5
REMARK    3  A    between atoms: C_10  and  O_11
REMARK    4  A    between atoms: O_11  and  C_12
REMARK    5  A    between atoms: C_12  and  C_13
REMARK    6  A    between atoms: C_17  and  C_18
REMARK                            x       y       z     vdW  Elec       q    Type
REMARK                         _______ _______ _______ _____ _____    ______ ____
ROOT
ATOM      1  O   UNL     1      47.556   4.972  13.296  0.00  0.00    +0.000 OA
ENDROOT
BRANCH   1   8
ATOM      2  C   UNL     1      48.775   6.544  15.774  0.00  0.00    +0.000 C 
ATOM      3  C   UNL     1      48.380   7.063  14.419  0.00  0.00    +0.000 A 
ATOM      4  C   UNL     1      48.579   8.449  14.220  0.00  0.00    +0.000 A 
ATOM      5  C   UNL     1      48.269   9.091  13.013  0.00  0.00    +0.000 A 
ATOM      6  C   UNL     1      47.745   8.331  11.971  0.00  0.00    +0.000 A 
ATOM      7  C   UNL     1      47.539   6.958  12.151  0.00  0.00    +0.000 A 
ATOM      8  C   UNL     1      47.847   6.308  13.361  0.00  0.00    +0.000 A 
BRANCH   5   9
ATOM      9  C   UNL     1      48.526  10.557  12.929  0.00  0.00    +0.000 C 
ATOM     10  N   UNL     1      48.461  11.305  14.068  0.00  0.00    +0.000 N 
ATOM     11  O   UNL     1      48.794  11.100  11.860  0.00  0.00    +0.000 OA
ATOM     12  H   UNL     1      48.256  10.955  14.988  0.00  0.00    +0.000 HD
ATOM     13  H   UNL     1      48.645  12.297  13.965  0.00  0.00    +0.000 HD
ENDBRANCH   5   9
ENDBRANCH   1   8
BRANCH   1  14
ATOM     14  C   UNL     1      46.303   4.502  13.779  0.00  0.00    +0.000 C 
BRANCH  14  15
ATOM     15  C   UNL     1      45.198   4.629  12.755  0.00  0.00    +0.000 A 
ATOM     16  C   UNL     1      44.018   5.303  13.043  0.00  0.00    +0.000 A 
ATOM     17  C   UNL     1      43.061   5.428  12.043  0.00  0.00    +0.000 A 
ATOM     18  C   UNL     1      43.313   4.899  10.781  0.00  0.00    +0.000 A 
ATOM     19  C   UNL     1      44.528   4.267  10.548  0.00  0.00    +0.000 A 
ATOM     20  N   UNL     1      45.464   4.132  11.518  0.00  0.00    +0.000 NA
BRANCH  19  21
ATOM     21  C   UNL     1      44.865   3.723   9.176  0.00  0.00    +0.000 C 
ATOM     22  C   UNL     1      45.452   2.306   9.262  0.00  0.00    +0.000 C 
ATOM     23  C   UNL     1      45.946   1.840   7.895  0.00  0.00    +0.000 C 
ATOM     24  C   UNL     1      46.869   2.881   7.279  0.00  0.00    +0.000 C 
ATOM     25  O   UNL     1      46.189   4.131   7.157  0.00  0.00    +0.000 OA
ATOM     26  C   UNL     1      45.823   4.664   8.436  0.00  0.00    +0.000 C 
ENDBRANCH  19  21
ENDBRANCH  14  15
ENDBRANCH   1  14
TORSDOF 5
ENDMDL
MODEL 8
REMARK VINA RESULT:    -6.462      4.562      7.046
REMARK INTER + INTRA:          -9.448
REMARK INTER:                  -8.671
REMARK INTRA:                  -0.777
REMARK UNBOUND:                -1.097
REMARK  Name = 
REMARK  6 active torsions:
REMARK  status: ('A' for Active; 'I' for Inactive)
REMARK    1  A    between atoms: C_1  and  C_2
REMARK    2  A    between atoms: C_4  and  C_5
REMARK    3  A    between atoms: C_10  and  O_11
REMARK    4  A    between atoms: O_11  and  C_12
REMARK    5  A    between atoms: C_12  and  C_13
REMARK    6  A    between atoms: C_17  and  C_18
REMARK                            x       y       z     vdW  Elec       q    Type
REMARK                         _______ _______ _______ _____ _____    ______ ____
ROOT
ATOM      1  O   UNL     1      48.705   5.895  17.062  0.00  0.00    +0.000 OA
ENDROOT
BRANCH   1   8
ATOM      2  C   UNL     1      47.547   2.936  17.016  0.00  0.00    +0.000 C 
ATOM      3  C   UNL     1      48.966   3.399  17.195  0.00  0.00    +0.000 A 
ATOM      4  C   UNL     1      49.921   2.372  17.368  0.00  0.00    +0.000 A 
ATOM      5  C   UNL     1      51.287   2.631  17.542  0.00  0.00    +0.000 A 
ATOM      6  C   UNL     1      51.719   3.954  17.542  0.00  0.00    +0.000 A 
ATOM      7  C   UNL     1      50.787   4.986  17.375  0.00  0.00    +0.000 A 
ATOM      8  C   UNL     1      49.413   4.732  17.201  0.00  0.00    +0.000 A 
BRANCH   5   9
ATOM      9  C   UNL     1      52.192   1.458  17.714  0.00  0.00    +0.000 C 
ATOM     10  N   UNL     1      51.660   0.264  18.104  0.00  0.00    +0.000 N 
ATOM     11  O   UNL     1      53.402   1.548  17.513  0.00  0.00    +0.000 OA
ATOM     12  H   UNL     1      50.687   0.089  18.287  0.00  0.00    +0.000 HD
ATOM     13  H   UNL     1      52.311  -0.505  18.206  0.00  0.00    +0.000 HD
ENDBRANCH   5   9
ENDBRANCH   1   8
BRANCH   1  14
ATOM     14  C   UNL     1      49.323   7.026  16.458  0.00  0.00    +0.000 C 
BRANCH  14  15
ATOM     15  C   UNL     1      49.088   7.093  14.966  0.00  0.00    +0.000 A 
ATOM     16  C   UNL     1      49.989   7.723  14.118  0.00  0.00    +0.000 A 
ATOM     17  C   UNL     1      49.741   7.708  12.751  0.00  0.00    +0.000 A 
ATOM     18  C   UNL     1      48.616   7.049  12.265  0.00  0.00    +0.000 A 
ATOM     19  C   UNL     1      47.772   6.407  13.163  0.00  0.00    +0.000 A 
ATOM     20  N   UNL     1      48.000   6.424  14.498  0.00  0.00    +0.000 NA
BRANCH  19  21
ATOM     21  C   UNL     1      46.567   5.635  12.672  0.00  0.00    +0.000 C 
ATOM     22  C   UNL     1      45.514   6.570  12.055  0.00  0.00    +0.000 C 
ATOM     23  C   UNL     1      44.237   5.804  11.724  0.00  0.00    +0.000 C 
ATOM     24  C   UNL     1      43.761   5.013  12.934  0.00  0.00    +0.000 C 
ATOM     25  O   UNL     1      44.781   4.109  13.362  0.00  0.00    +0.000 OA
ATOM     26  C   UNL     1      45.954   4.801  13.804  0.00  0.00    +0.000 C 
ENDBRANCH  19  21
ENDBRANCH  14  15
ENDBRANCH   1  14
TORSDOF 5
ENDMDL
MODEL 9
REMARK VINA RESULT:    -6.462      3.986      7.865
REMARK INTER + INTRA:          -9.448
REMARK INTER:                  -8.507
REMARK INTRA:                  -0.940
REMARK UNBOUND:                -1.097
REMARK  Name = 
REMARK  6 active torsions:
REMARK  status: ('A' for Active; 'I' for Inactive)
REMARK    1  A    between atoms: C_1  and  C_2
REMARK    2  A    between atoms: C_4  and  C_5
REMARK    3  A    between atoms: C_10  and  O_11
REMARK    4  A    between atoms: O_11  and  C_12
REMARK    5  A    between atoms: C_12  and  C_13
REMARK    6  A    between atoms: C_17  and  C_18
REMARK                            x       y       z     vdW  Elec       q    Type
REMARK                         _______ _______ _______ _____ _____    ______ ____
ROOT
ATOM      1  O   UNL     1      48.818   6.224  13.083  0.00  0.00    +0.000 OA
ENDROOT
BRANCH   1   8
ATOM      2  C   UNL     1      46.765   4.442  14.727  0.00  0.00    +0.000 C 
ATOM      3  C   UNL     1      46.526   5.286  13.507  0.00  0.00    +0.000 A 
ATOM      4  C   UNL     1      45.198   5.287  13.021  0.00  0.00    +0.000 A 
ATOM      5  C   UNL     1      44.804   6.025  11.896  0.00  0.00    +0.000 A 
ATOM      6  C   UNL     1      45.761   6.789  11.233  0.00  0.00    +0.000 A 
ATOM      7  C   UNL     1      47.082   6.798  11.698  0.00  0.00    +0.000 A 
ATOM      8  C   UNL     1      47.484   6.058  12.827  0.00  0.00    +0.000 A 
BRANCH   5   9
ATOM      9  C   UNL     1      43.374   5.942  11.486  0.00  0.00    +0.000 C 
ATOM     10  N   UNL     1      42.701   7.093  11.197  0.00  0.00    +0.000 N 
ATOM     11  O   UNL     1      42.793   4.861  11.404  0.00  0.00    +0.000 OA
ATOM     12  H   UNL     1      43.087   8.020  11.228  0.00  0.00    +0.000 HD
ATOM     13  H   UNL     1      41.731   6.988  10.921  0.00  0.00    +0.000 HD
ENDBRANCH   5   9
ENDBRANCH   1   8
BRANCH   1  14
ATOM     14  C   UNL     1      49.271   7.423  13.701  0.00  0.00    +0.000 C 
BRANCH  14  15
ATOM     15  C   UNL     1      49.215   7.359  15.211  0.00  0.00    +0.000 A 
ATOM     16  C   UNL     1      48.664   8.389  15.960  0.00  0.00    +0.000 A 
ATOM     17  C   UNL     1      48.598   8.249  17.341  0.00  0.00    +0.000 A 
ATOM     18  C   UNL     1      49.062   7.079  17.934  0.00  0.00    +0.000 A 
ATOM     19  C   UNL     1      49.570   6.070  17.125  0.00  0.00    +0.000 A 
ATOM     20  N   UNL     1      49.647   6.201  15.779  0.00  0.00    +0.000 NA
BRANCH  19  21
ATOM     21  C   UNL     1      50.037   4.761  17.724  0.00  0.00    +0.000 C 
ATOM     22  C   UNL     1      51.525   4.510  17.436  0.00  0.00    +0.000 C 
ATOM     23  C   UNL     1      51.938   3.114  17.894  0.00  0.00    +0.000 C 
ATOM     24  C   UNL     1      50.990   2.067  17.328  0.00  0.00    +0.000 C 
ATOM     25  O   UNL     1      49.650   2.343  17.739  0.00  0.00    +0.000 OA
ATOM     26  C   UNL     1      49.182   3.593  17.218  0.00  0.00    +0.000 C 
ENDBRANCH  19  21
ENDBRANCH  14  15
ENDBRANCH   1  14
TORSDOF 5
ENDMDL
