MODEL 1
REMARK VINA RESULT:    -7.446      0.000      0.000
REMARK INTER + INTRA:         -11.549
REMARK INTER:                 -10.493
REMARK INTRA:                  -1.056
REMARK UNBOUND:                -1.056
REMARK  Name = 
REMARK  8 active torsions:
REMARK  status: ('A' for Active; 'I' for Inactive)
REMARK    1  A    between atoms: C_1  and  O_2
REMARK    2  A    between atoms: O_2  and  C_3
REMARK    3  A    between atoms: C_8  and  C_9
REMARK    4  A    between atoms: N_11  and  C_12
REMARK    5  A    between atoms: C_12  and  C_13
REMARK    6  A    between atoms: C_16  and  C_17
REMARK    7  A    between atoms: C_17  and  N_18
REMARK    8  A    between atoms: C_19  and  C_21
REMARK                            x       y       z     vdW  Elec       q    Type
REMARK                         _______ _______ _______ _____ _____    ______ ____
ROOT
ATOM      1  C   UNL     1      47.472   5.686  14.573  0.00  0.00    +0.000 A 
ATOM      2  C   UNL     1      48.367   6.174  15.526  0.00  0.00    +0.000 A 
ATOM      3  C   UNL     1      48.643   5.404  16.655  0.00  0.00    +0.000 A 
ATOM      4  C   UNL     1      48.040   4.155  16.807  0.00  0.00    +0.000 A 
ATOM      5  C   UNL     1      47.151   3.756  15.816  0.00  0.00    +0.000 A 
ATOM      6  N   UNL     1      46.867   4.479  14.706  0.00  0.00    +0.000 NA
ENDROOT
BRANCH   1   7
ATOM      7  C   UNL     1      47.203   6.470  13.308  0.00  0.00    +0.000 C 
BRANCH   7  10
ATOM      8  C   UNL     1      45.798   6.033  11.320  0.00  0.00    +0.000 C 
ATOM      9  O   UNL     1      45.362   7.182  11.309  0.00  0.00    +0.000 OA
ATOM     10  N   UNL     1      46.710   5.611  12.254  0.00  0.00    +0.000 N 
ATOM     11  H   UNL     1      46.927   4.621  12.308  0.00  0.00    +0.000 HD
BRANCH   8  17
ATOM     12  C   UNL     1      44.421   4.022  10.450  0.00  0.00    +0.000 A 
ATOM     13  C   UNL     1      44.192   3.108   9.408  0.00  0.00    +0.000 A 
ATOM     14  C   UNL     1      44.864   3.223   8.188  0.00  0.00    +0.000 A 
ATOM     15  C   UNL     1      45.767   4.258   7.988  0.00  0.00    +0.000 A 
ATOM     16  C   UNL     1      46.018   5.164   9.018  0.00  0.00    +0.000 A 
ATOM     17  C   UNL     1      45.370   5.050  10.263  0.00  0.00    +0.000 A 
BRANCH  12  19
ATOM     18  C   UNL     1      43.493   2.672  12.198  0.00  0.00    +0.000 C 
ATOM     19  O   UNL     1      43.766   3.960  11.656  0.00  0.00    +0.000 OA
ENDBRANCH  12  19
ENDBRANCH   8  17
ENDBRANCH   7  10
ENDBRANCH   1   7
BRANCH   4  20
ATOM     20  C   UNL     1      48.306   3.280  17.997  0.00  0.00    +0.000 C 
BRANCH  20  21
ATOM     21  N   UNL     1      49.715   3.031  18.166  0.00  0.00    +0.000 N 
ATOM     22  C   UNL     1      50.405   2.225  17.295  0.00  0.00    +0.000 C 
ATOM     23  O   UNL     1      49.870   1.729  16.307  0.00  0.00    +0.000 OA
ATOM     24  H   UNL     1      50.118   3.232  19.076  0.00  0.00    +0.000 HD
BRANCH  22  25
ATOM     25  C   UNL     1      51.836   2.039  17.568  0.00  0.00    +0.000 A 
ATOM     26  C   UNL     1      52.350   0.756  17.705  0.00  0.00    +0.000 A 
ATOM     27  S   UNL     1      54.035   0.718  17.962  0.00  0.00    +0.000 S 
ATOM     28  C   UNL     1      54.131   2.417  17.955  0.00  0.00    +0.000 A 
ATOM     29  N   UNL     1      55.317   3.053  18.150  0.00  0.00    +0.000 NA
ATOM     30  C   UNL     1      55.240   4.341  18.151  0.00  0.00    +0.000 A 
ATOM     31  N   UNL     1      54.080   5.052  17.972  0.00  0.00    +0.000 N 
ATOM     32  C   UNL     1      52.864   4.455  17.744  0.00  0.00    +0.000 A 
ATOM     33  O   UNL     1      51.852   5.119  17.545  0.00  0.00    +0.000 OA
ATOM     34  C   UNL     1      52.897   3.004  17.742  0.00  0.00    +0.000 A 
ATOM     35  H   UNL     1      54.089   6.063  17.977  0.00  0.00    +0.000 HD
ENDBRANCH  22  25
ENDBRANCH  20  21
ENDBRANCH   4  20
TORSDOF 7
ENDMDL
MODEL 2
REMARK VINA RESULT:    -7.430      3.055      9.608
REMARK INTER + INTRA:         -11.527
REMARK INTER:                 -10.461
REMARK INTRA:                  -1.066
REMARK UNBOUND:                -1.056
REMARK  Name = 
REMARK  8 active torsions:
REMARK  status: ('A' for Active; 'I' for Inactive)
REMARK    1  A    between atoms: C_1  and  O_2
REMARK    2  A    between atoms: O_2  and  C_3
REMARK    3  A    between atoms: C_8  and  C_9
REMARK    4  A    between atoms: N_11  and  C_12
REMARK    5  A    between atoms: C_12  and  C_13
REMARK    6  A    between atoms: C_16  and  C_17
REMARK    7  A    between atoms: C_17  and  N_18
REMARK    8  A    between atoms: C_19  and  C_21
REMARK                            x       y       z     vdW  Elec       q    Type
REMARK                         _______ _______ _______ _____ _____    ______ ____
ROOT
ATOM      1  C   UNL     1      50.080   7.411  15.324  0.00  0.00    +0.000 A 
ATOM      2  C   UNL     1      50.192   8.532  14.499  0.00  0.00    +0.000 A 
ATOM      3  C   UNL     1      49.306   8.683  13.434  0.00  0.00    +0.000 A 
ATOM      4  C   UNL     1      48.311   7.728  13.219  0.00  0.00    +0.000 A 
ATOM      5  C   UNL     1      48.283   6.637  14.080  0.00  0.00    +0.000 A 
ATOM      6  N   UNL     1      49.126   6.466  15.125  0.00  0.00    +0.000 NA
ENDROOT
BRANCH   1   7
ATOM      7  C   UNL     1      50.985   7.254  16.524  0.00  0.00    +0.000 C 
BRANCH   7  10
ATOM      8  C   UNL     1      51.101   5.095  17.726  0.00  0.00    +0.000 C 
ATOM      9  O   UNL     1      50.361   5.493  18.622  0.00  0.00    +0.000 OA
ATOM     10  N   UNL     1      51.443   5.888  16.660  0.00  0.00    +0.000 N 
ATOM     11  H   UNL     1      52.167   5.565  16.026  0.00  0.00    +0.000 HD
BRANCH   8  17
ATOM     12  C   UNL     1      50.941   2.555  17.260  0.00  0.00    +0.000 A 
ATOM     13  C   UNL     1      51.509   1.282  17.438  0.00  0.00    +0.000 A 
ATOM     14  C   UNL     1      52.750   1.127  18.061  0.00  0.00    +0.000 A 
ATOM     15  C   UNL     1      53.448   2.242  18.505  0.00  0.00    +0.000 A 
ATOM     16  C   UNL     1      52.891   3.511  18.350  0.00  0.00    +0.000 A 
ATOM     17  C   UNL     1      51.630   3.686  17.749  0.00  0.00    +0.000 A 
BRANCH  12  19
ATOM     18  C   UNL     1      48.561   2.756  17.438  0.00  0.00    +0.000 C 
ATOM     19  O   UNL     1      49.735   2.754  16.633  0.00  0.00    +0.000 OA
ENDBRANCH  12  19
ENDBRANCH   8  17
ENDBRANCH   7  10
ENDBRANCH   1   7
BRANCH   4  20
ATOM     20  C   UNL     1      47.325   7.843  12.093  0.00  0.00    +0.000 C 
BRANCH  20  21
ATOM     21  N   UNL     1      46.684   6.582  11.819  0.00  0.00    +0.000 N 
ATOM     22  C   UNL     1      45.321   6.492  11.682  0.00  0.00    +0.000 C 
ATOM     23  O   UNL     1      44.596   7.483  11.727  0.00  0.00    +0.000 OA
ATOM     24  H   UNL     1      47.219   5.739  12.002  0.00  0.00    +0.000 HD
BRANCH  22  25
ATOM     25  C   UNL     1      44.778   5.154  11.408  0.00  0.00    +0.000 A 
ATOM     26  C   UNL     1      44.037   4.499  12.383  0.00  0.00    +0.000 A 
ATOM     27  S   UNL     1      43.435   2.985  11.883  0.00  0.00    +0.000 S 
ATOM     28  C   UNL     1      44.188   3.125  10.363  0.00  0.00    +0.000 A 
ATOM     29  N   UNL     1      44.087   2.134   9.438  0.00  0.00    +0.000 NA
ATOM     30  C   UNL     1      44.732   2.357   8.342  0.00  0.00    +0.000 A 
ATOM     31  N   UNL     1      45.469   3.486   8.089  0.00  0.00    +0.000 N 
ATOM     32  C   UNL     1      45.577   4.526   8.981  0.00  0.00    +0.000 A 
ATOM     33  O   UNL     1      46.208   5.541   8.708  0.00  0.00    +0.000 OA
ATOM     34  C   UNL     1      44.875   4.318  10.234  0.00  0.00    +0.000 A 
ATOM     35  H   UNL     1      45.946   3.604   7.205  0.00  0.00    +0.000 HD
ENDBRANCH  22  25
ENDBRANCH  20  21
ENDBRANCH   4  20
TORSDOF 7
ENDMDL
MODEL 3
REMARK VINA RESULT:    -7.056      1.435      2.235
REMARK INTER + INTRA:         -10.999
REMARK INTER:                  -9.939
REMARK INTRA:                  -1.060
REMARK UNBOUND:                -1.056
REMARK  Name = 
REMARK  8 active torsions:
REMARK  status: ('A' for Active; 'I' for Inactive)
REMARK    1  A    between atoms: C_1  and  O_2
REMARK    2  A    between atoms: O_2  and  C_3
REMARK    3  A    between atoms: C_8  and  C_9
REMARK    4  A    between atoms: N_11  and  C_12
REMARK    5  A    between atoms: C_12  and  C_13
REMARK    6  A    between atoms: C_16  and  C_17
REMARK    7  A    between atoms: C_17  and  N_18
REMARK    8  A    between atoms: C_19  and  C_21
REMARK                            x       y       z     vdW  Elec       q    Type
REMARK                         _______ _______ _______ _____ _____    ______ ____
ROOT
ATOM      1  C   UNL     1      47.710   6.006  14.660  0.00  0.00    +0.000 A 
ATOM      2  C   UNL     1      48.697   6.633  15.422  0.00  0.00    +0.000 A 
ATOM      3  C   UNL     1      49.221   5.973  16.531  0.00  0.00    +0.000 A 
ATOM      4  C   UNL     1      48.769   4.692  16.853  0.00  0.00    +0.000 A 
ATOM      5  C   UNL     1      47.774   4.150  16.049  0.00  0.00    +0.000 A 
ATOM      6  N   UNL     1      47.250   4.765  14.962  0.00  0.00    +0.000 NA
ENDROOT
BRANCH   1   7
ATOM      7  C   UNL     1      47.170   6.671  13.415  0.00  0.00    +0.000 C 
BRANCH   7  10
ATOM      8  C   UNL     1      45.796   6.052  11.452  0.00  0.00    +0.000 C 
ATOM      9  O   UNL     1      45.530   7.225  11.202  0.00  0.00    +0.000 OA
ATOM     10  N   UNL     1      46.600   5.699  12.506  0.00  0.00    +0.000 N 
ATOM     11  H   UNL     1      46.672   4.718  12.756  0.00  0.00    +0.000 HD
BRANCH   8  17
ATOM     12  C   UNL     1      44.516   3.847  11.013  0.00  0.00    +0.000 A 
ATOM     13  C   UNL     1      44.181   2.837  10.096  0.00  0.00    +0.000 A 
ATOM     14  C   UNL     1      44.562   2.926   8.755  0.00  0.00    +0.000 A 
ATOM     15  C   UNL     1      45.273   4.031   8.307  0.00  0.00    +0.000 A 
ATOM     16  C   UNL     1      45.626   5.035   9.207  0.00  0.00    +0.000 A 
ATOM     17  C   UNL     1      45.275   4.951  10.569  0.00  0.00    +0.000 A 
BRANCH  12  19
ATOM     18  C   UNL     1      42.993   4.559  12.720  0.00  0.00    +0.000 C 
ATOM     19  O   UNL     1      44.142   3.811  12.335  0.00  0.00    +0.000 OA
ENDBRANCH  12  19
ENDBRANCH   8  17
ENDBRANCH   7  10
ENDBRANCH   1   7
BRANCH   4  20
ATOM     20  C   UNL     1      49.303   3.931  18.032  0.00  0.00    +0.000 C 
BRANCH  20  21
ATOM     21  N   UNL     1      50.649   3.472  17.799  0.00  0.00    +0.000 N 
ATOM     22  C   UNL     1      51.687   3.874  18.603  0.00  0.00    +0.000 C 
ATOM     23  O   UNL     1      51.508   4.592  19.584  0.00  0.00    +0.000 OA
ATOM     24  H   UNL     1      50.856   3.078  16.887  0.00  0.00    +0.000 HD
BRANCH  22  25
ATOM     25  C   UNL     1      53.017   3.347  18.269  0.00  0.00    +0.000 A 
ATOM     26  C   UNL     1      54.129   4.172  18.363  0.00  0.00    +0.000 A 
ATOM     27  S   UNL     1      55.597   3.388  17.996  0.00  0.00    +0.000 S 
ATOM     28  C   UNL     1      54.794   1.929  17.644  0.00  0.00    +0.000 A 
ATOM     29  N   UNL     1      55.483   0.831  17.235  0.00  0.00    +0.000 NA
ATOM     30  C   UNL     1      54.747  -0.196  16.972  0.00  0.00    +0.000 A 
ATOM     31  N   UNL     1      53.381  -0.223  17.085  0.00  0.00    +0.000 N 
ATOM     32  C   UNL     1      52.644   0.851  17.522  0.00  0.00    +0.000 A 
ATOM     33  O   UNL     1      51.426   0.782  17.652  0.00  0.00    +0.000 OA
ATOM     34  C   UNL     1      53.427   2.036  17.821  0.00  0.00    +0.000 A 
ATOM     35  H   UNL     1      52.861  -1.064  16.870  0.00  0.00    +0.000 HD
ENDBRANCH  22  25
ENDBRANCH  20  21
ENDBRANCH   4  20
TORSDOF 7
ENDMDL
MODEL 4
REMARK VINA RESULT:    -7.004      1.966      2.900
REMARK INTER + INTRA:         -10.926
REMARK INTER:                  -9.872
REMARK INTRA:                  -1.054
REMARK UNBOUND:                -1.056
REMARK  Name = 
REMARK  8 active torsions:
REMARK  status: ('A' for Active; 'I' for Inactive)
REMARK    1  A    between atoms: C_1  and  O_2
REMARK    2  A    between atoms: O_2  and  C_3
REMARK    3  A    between atoms: C_8  and  C_9
REMARK    4  A    between atoms: N_11  and  C_12
REMARK    5  A    between atoms: C_12  and  C_13
REMARK    6  A    between atoms: C_16  and  C_17
REMARK    7  A    between atoms: C_17  and  N_18
REMARK    8  A    between atoms: C_19  and  C_21
REMARK                            x       y       z     vdW  Elec       q    Type
REMARK                         _______ _______ _______ _____ _____    ______ ____
ROOT
ATOM      1  C   UNL     1      48.001   7.778  13.492  0.00  0.00    +0.000 A 
ATOM      2  C   UNL     1      48.151   6.497  14.026  0.00  0.00    +0.000 A 
ATOM      3  C   UNL     1      48.507   6.357  15.366  0.00  0.00    +0.000 A 
ATOM      4  C   UNL     1      48.688   7.492  16.157  0.00  0.00    +0.000 A 
ATOM      5  C   UNL     1      48.533   8.727  15.539  0.00  0.00    +0.000 A 
ATOM      6  N   UNL     1      48.183   8.894  14.242  0.00  0.00    +0.000 NA
ENDROOT
BRANCH   1   7
ATOM      7  C   UNL     1      47.554   7.960  12.059  0.00  0.00    +0.000 C 
BRANCH   7  10
ATOM      8  C   UNL     1      45.677   6.583  11.220  0.00  0.00    +0.000 C 
ATOM      9  O   UNL     1      44.870   7.498  11.368  0.00  0.00    +0.000 OA
ATOM     10  N   UNL     1      47.007   6.733  11.522  0.00  0.00    +0.000 N 
ATOM     11  H   UNL     1      47.601   5.910  11.519  0.00  0.00    +0.000 HD
BRANCH   8  17
ATOM     12  C   UNL     1      44.602   4.236  11.391  0.00  0.00    +0.000 A 
ATOM     13  C   UNL     1      44.331   3.011  10.758  0.00  0.00    +0.000 A 
ATOM     14  C   UNL     1      44.647   2.810   9.412  0.00  0.00    +0.000 A 
ATOM     15  C   UNL     1      45.226   3.833   8.674  0.00  0.00    +0.000 A 
ATOM     16  C   UNL     1      45.516   5.049   9.291  0.00  0.00    +0.000 A 
ATOM     17  C   UNL     1      45.230   5.263  10.654  0.00  0.00    +0.000 A 
BRANCH  12  19
ATOM     18  C   UNL     1      42.968   4.929  12.999  0.00  0.00    +0.000 C 
ATOM     19  O   UNL     1      44.288   4.484  12.705  0.00  0.00    +0.000 OA
ENDBRANCH  12  19
ENDBRANCH   8  17
ENDBRANCH   7  10
ENDBRANCH   1   7
BRANCH   4  20
ATOM     20  C   UNL     1      49.063   7.401  17.608  0.00  0.00    +0.000 C 
BRANCH  20  21
ATOM     21  N   UNL     1      50.162   6.493  17.814  0.00  0.00    +0.000 N 
ATOM     22  C   UNL     1      49.992   5.312  18.493  0.00  0.00    +0.000 C 
ATOM     23  O   UNL     1      48.891   4.951  18.902  0.00  0.00    +0.000 OA
ATOM     24  H   UNL     1      51.100   6.862  17.694  0.00  0.00    +0.000 HD
BRANCH  22  25
ATOM     25  C   UNL     1      51.183   4.467  18.647  0.00  0.00    +0.000 A 
ATOM     26  C   UNL     1      52.270   4.934  19.374  0.00  0.00    +0.000 A 
ATOM     27  S   UNL     1      53.544   3.809  19.502  0.00  0.00    +0.000 S 
ATOM     28  C   UNL     1      52.711   2.674  18.544  0.00  0.00    +0.000 A 
ATOM     29  N   UNL     1      53.267   1.471  18.241  0.00  0.00    +0.000 NA
ATOM     30  C   UNL     1      52.541   0.722  17.481  0.00  0.00    +0.000 A 
ATOM     31  N   UNL     1      51.305   1.068  16.999  0.00  0.00    +0.000 N 
ATOM     32  C   UNL     1      50.690   2.260  17.302  0.00  0.00    +0.000 A 
ATOM     33  O   UNL     1      49.566   2.522  16.889  0.00  0.00    +0.000 OA
ATOM     34  C   UNL     1      51.472   3.143  18.147  0.00  0.00    +0.000 A 
ATOM     35  H   UNL     1      50.782   0.431  16.413  0.00  0.00    +0.000 HD
ENDBRANCH  22  25
ENDBRANCH  20  21
ENDBRANCH   4  20
TORSDOF 7
ENDMDL
MODEL 5
REMARK VINA RESULT:    -6.645      6.127      9.603
REMARK INTER + INTRA:         -10.421
REMARK INTER:                  -9.172
REMARK INTRA:                  -1.249
REMARK UNBOUND:                -1.056
REMARK  Name = 
REMARK  8 active torsions:
REMARK  status: ('A' for Active; 'I' for Inactive)
REMARK    1  A    between atoms: C_1  and  O_2
REMARK    2  A    between atoms: O_2  and  C_3
REMARK    3  A    between atoms: C_8  and  C_9
REMARK    4  A    between atoms: N_11  and  C_12
REMARK    5  A    between atoms: C_12  and  C_13
REMARK    6  A    between atoms: C_16  and  C_17
REMARK    7  A    between atoms: C_17  and  N_18
REMARK    8  A    between atoms: C_19  and  C_21
REMARK                            x       y       z     vdW  Elec       q    Type
REMARK                         _______ _______ _______ _____ _____    ______ ____
ROOT
ATOM      1  C   UNL     1      50.378   8.905  11.427  0.00  0.00    +0.000 A 
ATOM      2  C   UNL     1      50.112   7.633  11.937  0.00  0.00    +0.000 A 
ATOM      3  C   UNL     1      48.841   7.355  12.438  0.00  0.00    +0.000 A 
ATOM      4  C   UNL     1      47.852   8.338  12.404  0.00  0.00    +0.000 A 
ATOM      5  C   UNL     1      48.210   9.580  11.893  0.00  0.00    +0.000 A 
ATOM      6  N   UNL     1      49.433   9.878  11.395  0.00  0.00    +0.000 NA
ENDROOT
BRANCH   1   7
ATOM      7  C   UNL     1      51.727   9.215  10.820  0.00  0.00    +0.000 C 
BRANCH   7  10
ATOM      8  C   UNL     1      53.499   7.906   9.694  0.00  0.00    +0.000 C 
ATOM      9  O   UNL     1      54.392   8.582  10.198  0.00  0.00    +0.000 OA
ATOM     10  N   UNL     1      52.173   8.142   9.958  0.00  0.00    +0.000 N 
ATOM     11  H   UNL     1      51.474   7.653   9.409  0.00  0.00    +0.000 HD
BRANCH   8  17
ATOM     12  C   UNL     1      53.257   6.510   7.529  0.00  0.00    +0.000 A 
ATOM     13  C   UNL     1      53.592   5.335   6.836  0.00  0.00    +0.000 A 
ATOM     14  C   UNL     1      54.508   4.423   7.365  0.00  0.00    +0.000 A 
ATOM     15  C   UNL     1      55.113   4.677   8.588  0.00  0.00    +0.000 A 
ATOM     16  C   UNL     1      54.780   5.832   9.296  0.00  0.00    +0.000 A 
ATOM     17  C   UNL     1      53.839   6.750   8.792  0.00  0.00    +0.000 A 
BRANCH  12  19
ATOM     18  C   UNL     1      52.874   8.387   6.090  0.00  0.00    +0.000 C 
ATOM     19  O   UNL     1      52.379   7.444   7.035  0.00  0.00    +0.000 OA
ENDBRANCH  12  19
ENDBRANCH   8  17
ENDBRANCH   7  10
ENDBRANCH   1   7
BRANCH   4  20
ATOM     20  C   UNL     1      46.464   8.092  12.921  0.00  0.00    +0.000 C 
BRANCH  20  21
ATOM     21  N   UNL     1      46.005   6.766  12.593  0.00  0.00    +0.000 N 
ATOM     22  C   UNL     1      44.965   6.570  11.718  0.00  0.00    +0.000 C 
ATOM     23  O   UNL     1      44.420   7.505  11.137  0.00  0.00    +0.000 OA
ATOM     24  H   UNL     1      46.274   6.012  13.216  0.00  0.00    +0.000 HD
BRANCH  22  25
ATOM     25  C   UNL     1      44.579   5.176  11.462  0.00  0.00    +0.000 A 
ATOM     26  C   UNL     1      43.856   4.474  12.417  0.00  0.00    +0.000 A 
ATOM     27  S   UNL     1      43.443   2.891  11.937  0.00  0.00    +0.000 S 
ATOM     28  C   UNL     1      44.263   3.067  10.456  0.00  0.00    +0.000 A 
ATOM     29  N   UNL     1      44.318   2.046   9.560  0.00  0.00    +0.000 NA
ATOM     30  C   UNL     1      44.998   2.305   8.494  0.00  0.00    +0.000 A 
ATOM     31  N   UNL     1      45.627   3.497   8.243  0.00  0.00    +0.000 N 
ATOM     32  C   UNL     1      45.576   4.567   9.104  0.00  0.00    +0.000 A 
ATOM     33  O   UNL     1      46.113   5.634   8.830  0.00  0.00    +0.000 OA
ATOM     34  C   UNL     1      44.829   4.322  10.324  0.00  0.00    +0.000 A 
ATOM     35  H   UNL     1      46.139   3.639   7.382  0.00  0.00    +0.000 HD
ENDBRANCH  22  25
ENDBRANCH  20  21
ENDBRANCH   4  20
TORSDOF 7
ENDMDL
MODEL 6
REMARK VINA RESULT:    -6.510      2.516      3.989
REMARK INTER + INTRA:         -10.230
REMARK INTER:                  -8.727
REMARK INTRA:                  -1.503
REMARK UNBOUND:                -1.056
REMARK  Name = 
REMARK  8 active torsions:
REMARK  status: ('A' for Active; 'I' for Inactive)
REMARK    1  A    between atoms: C_1  and  O_2
REMARK    2  A    between atoms: O_2  and  C_3
REMARK    3  A    between atoms: C_8  and  C_9
REMARK    4  A    between atoms: N_11  and  C_12
REMARK    5  A    between atoms: C_12  and  C_13
REMARK    6  A    between atoms: C_16  and  C_17
REMARK    7  A    between atoms: C_17  and  N_18
REMARK    8  A    between atoms: C_19  and  C_21
REMARK                            x       y       z     vdW  Elec       q    Type
REMARK                         _______ _______ _______ _____ _____    ______ ____
ROOT
ATOM      1  C   UNL     1      47.533   4.468  15.669  0.00  0.00    +0.000 A 
ATOM      2  C   UNL     1      47.391   3.451  16.615  0.00  0.00    +0.000 A 
ATOM      3  C   UNL     1      48.087   3.541  17.819  0.00  0.00    +0.000 A 
ATOM      4  C   UNL     1      48.897   4.649  18.071  0.00  0.00    +0.000 A 
ATOM      5  C   UNL     1      48.991   5.606  17.067  0.00  0.00    +0.000 A 
ATOM      6  N   UNL     1      48.323   5.549  15.891  0.00  0.00    +0.000 NA
ENDROOT
BRANCH   1   7
ATOM      7  C   UNL     1      46.741   4.429  14.383  0.00  0.00    +0.000 C 
BRANCH   7  10
ATOM      8  C   UNL     1      45.979   5.996  12.626  0.00  0.00    +0.000 C 
ATOM      9  O   UNL     1      45.655   5.080  11.875  0.00  0.00    +0.000 OA
ATOM     10  N   UNL     1      46.504   5.762  13.872  0.00  0.00    +0.000 N 
ATOM     11  H   UNL     1      46.887   6.544  14.393  0.00  0.00    +0.000 HD
BRANCH   8  17
ATOM     12  C   UNL     1      46.619   8.502  12.545  0.00  0.00    +0.000 A 
ATOM     13  C   UNL     1      46.246   9.806  12.181  0.00  0.00    +0.000 A 
ATOM     14  C   UNL     1      45.064  10.047  11.475  0.00  0.00    +0.000 A 
ATOM     15  C   UNL     1      44.244   8.987  11.111  0.00  0.00    +0.000 A 
ATOM     16  C   UNL     1      44.593   7.688  11.478  0.00  0.00    +0.000 A 
ATOM     17  C   UNL     1      45.766   7.427  12.213  0.00  0.00    +0.000 A 
BRANCH  12  19
ATOM     18  C   UNL     1      48.044   8.934  14.421  0.00  0.00    +0.000 C 
ATOM     19  O   UNL     1      47.782   8.218  13.219  0.00  0.00    +0.000 OA
ENDBRANCH  12  19
ENDBRANCH   8  17
ENDBRANCH   7  10
ENDBRANCH   1   7
BRANCH   4  20
ATOM     20  C   UNL     1      49.663   4.803  19.353  0.00  0.00    +0.000 C 
BRANCH  20  21
ATOM     21  N   UNL     1      50.837   3.968  19.371  0.00  0.00    +0.000 N 
ATOM     22  C   UNL     1      52.059   4.450  18.972  0.00  0.00    +0.000 C 
ATOM     23  O   UNL     1      52.218   5.622  18.639  0.00  0.00    +0.000 OA
ATOM     24  H   UNL     1      50.694   2.964  19.418  0.00  0.00    +0.000 HD
BRANCH  22  25
ATOM     25  C   UNL     1      53.185   3.508  19.028  0.00  0.00    +0.000 A 
ATOM     26  C   UNL     1      54.336   3.850  19.725  0.00  0.00    +0.000 A 
ATOM     27  S   UNL     1      55.519   2.624  19.738  0.00  0.00    +0.000 S 
ATOM     28  C   UNL     1      54.558   1.610  18.766  0.00  0.00    +0.000 A 
ATOM     29  N   UNL     1      55.002   0.384  18.379  0.00  0.00    +0.000 NA
ATOM     30  C   UNL     1      54.186  -0.265  17.618  0.00  0.00    +0.000 A 
ATOM     31  N   UNL     1      52.962   0.201  17.213  0.00  0.00    +0.000 N 
ATOM     32  C   UNL     1      52.459   1.419  17.602  0.00  0.00    +0.000 A 
ATOM     33  O   UNL     1      51.342   1.790  17.256  0.00  0.00    +0.000 OA
ATOM     34  C   UNL     1      53.345   2.193  18.451  0.00  0.00    +0.000 A 
ATOM     35  H   UNL     1      52.364  -0.362  16.621  0.00  0.00    +0.000 HD
ENDBRANCH  22  25
ENDBRANCH  20  21
ENDBRANCH   4  20
TORSDOF 7
ENDMDL
MODEL 7
REMARK VINA RESULT:    -6.471      3.516      9.109
REMARK INTER + INTRA:         -10.175
REMARK INTER:                  -8.551
REMARK INTRA:                  -1.625
REMARK UNBOUND:                -1.056
REMARK  Name = 
REMARK  8 active torsions:
REMARK  status: ('A' for Active; 'I' for Inactive)
REMARK    1  A    between atoms: C_1  and  O_2
REMARK    2  A    between atoms: O_2  and  C_3
REMARK    3  A    between atoms: C_8  and  C_9
REMARK    4  A    between atoms: N_11  and  C_12
REMARK    5  A    between atoms: C_12  and  C_13
REMARK    6  A    between atoms: C_16  and  C_17
REMARK    7  A    between atoms: C_17  and  N_18
REMARK    8  A    between atoms: C_19  and  C_21
REMARK                            x       y       z     vdW  Elec       q    Type
REMARK                         _______ _______ _______ _____ _____    ______ ____
ROOT
ATOM      1  C   UNL     1      50.314   7.439  18.938  0.00  0.00    +0.000 A 
ATOM      2  C   UNL     1      48.920   7.491  18.988  0.00  0.00    +0.000 A 
ATOM      3  C   UNL     1      48.234   8.240  18.034  0.00  0.00    +0.000 A 
ATOM      4  C   UNL     1      48.943   8.907  17.034  0.00  0.00    +0.000 A 
ATOM      5  C   UNL     1      50.329   8.811  17.069  0.00  0.00    +0.000 A 
ATOM      6  N   UNL     1      51.023   8.088  17.980  0.00  0.00    +0.000 NA
ENDROOT
BRANCH   1   7
ATOM      7  C   UNL     1      51.081   6.583  19.920  0.00  0.00    +0.000 C 
BRANCH   7  10
ATOM      8  C   UNL     1      52.370   4.820  18.758  0.00  0.00    +0.000 C 
ATOM      9  O   UNL     1      53.323   5.571  18.563  0.00  0.00    +0.000 OA
ATOM     10  N   UNL     1      51.244   5.234  19.424  0.00  0.00    +0.000 N 
ATOM     11  H   UNL     1      50.433   4.624  19.433  0.00  0.00    +0.000 HD
BRANCH   8  17
ATOM     12  C   UNL     1      51.418   2.729  17.567  0.00  0.00    +0.000 A 
ATOM     13  C   UNL     1      51.557   1.358  17.296  0.00  0.00    +0.000 A 
ATOM     14  C   UNL     1      52.686   0.651  17.716  0.00  0.00    +0.000 A 
ATOM     15  C   UNL     1      53.700   1.305  18.402  0.00  0.00    +0.000 A 
ATOM     16  C   UNL     1      53.571   2.663  18.692  0.00  0.00    +0.000 A 
ATOM     17  C   UNL     1      52.428   3.387  18.302  0.00  0.00    +0.000 A 
BRANCH  12  19
ATOM     18  C   UNL     1      49.043   2.891  17.304  0.00  0.00    +0.000 C 
ATOM     19  O   UNL     1      50.336   3.468  17.154  0.00  0.00    +0.000 OA
ENDBRANCH  12  19
ENDBRANCH   8  17
ENDBRANCH   7  10
ENDBRANCH   1   7
BRANCH   4  20
ATOM     20  C   UNL     1      48.255   9.720  15.976  0.00  0.00    +0.000 C 
BRANCH  20  21
ATOM     21  N   UNL     1      47.374   8.910  15.175  0.00  0.00    +0.000 N 
ATOM     22  C   UNL     1      47.727   8.515  13.908  0.00  0.00    +0.000 C 
ATOM     23  O   UNL     1      48.824   8.783  13.425  0.00  0.00    +0.000 OA
ATOM     24  H   UNL     1      46.398   8.871  15.450  0.00  0.00    +0.000 HD
BRANCH  22  25
ATOM     25  C   UNL     1      46.748   7.695  13.182  0.00  0.00    +0.000 A 
ATOM     26  C   UNL     1      45.869   8.297  12.292  0.00  0.00    +0.000 A 
ATOM     27  S   UNL     1      44.841   7.197  11.493  0.00  0.00    +0.000 S 
ATOM     28  C   UNL     1      45.496   5.879  12.348  0.00  0.00    +0.000 A 
ATOM     29  N   UNL     1      45.033   4.616  12.150  0.00  0.00    +0.000 NA
ATOM     30  C   UNL     1      45.597   3.718  12.886  0.00  0.00    +0.000 A 
ATOM     31  N   UNL     1      46.586   3.971  13.802  0.00  0.00    +0.000 N 
ATOM     32  C   UNL     1      47.105   5.225  14.016  0.00  0.00    +0.000 A 
ATOM     33  O   UNL     1      48.019   5.411  14.812  0.00  0.00    +0.000 OA
ATOM     34  C   UNL     1      46.496   6.272  13.218  0.00  0.00    +0.000 A 
ATOM     35  H   UNL     1      46.992   3.219  14.344  0.00  0.00    +0.000 HD
ENDBRANCH  22  25
ENDBRANCH  20  21
ENDBRANCH   4  20
TORSDOF 7
ENDMDL
MODEL 8
REMARK VINA RESULT:    -6.153      3.259      5.058
REMARK INTER + INTRA:          -9.727
REMARK INTER:                  -8.546
REMARK INTRA:                  -1.182
REMARK UNBOUND:                -1.056
REMARK  Name = 
REMARK  8 active torsions:
REMARK  status: ('A' for Active; 'I' for Inactive)
REMARK    1  A    between atoms: C_1  and  O_2
REMARK    2  A    between atoms: O_2  and  C_3
REMARK    3  A    between atoms: C_8  and  C_9
REMARK    4  A    between atoms: N_11  and  C_12
REMARK    5  A    between atoms: C_12  and  C_13
REMARK    6  A    between atoms: C_16  and  C_17
REMARK    7  A    between atoms: C_17  and  N_18
REMARK    8  A    between atoms: C_19  and  C_21
REMARK                            x       y       z     vdW  Elec       q    Type
REMARK                         _______ _______ _______ _____ _____    ______ ____
ROOT
ATOM      1  C   UNL     1      48.672   3.640  17.239  0.00  0.00    +0.000 A 
ATOM      2  C   UNL     1      49.501   2.527  17.094  0.00  0.00    +0.000 A 
ATOM      3  C   UNL     1      50.864   2.656  17.358  0.00  0.00    +0.000 A 
ATOM      4  C   UNL     1      51.375   3.883  17.782  0.00  0.00    +0.000 A 
ATOM      5  C   UNL     1      50.479   4.941  17.885  0.00  0.00    +0.000 A 
ATOM      6  N   UNL     1      49.151   4.845  17.640  0.00  0.00    +0.000 NA
ENDROOT
BRANCH   1   7
ATOM      7  C   UNL     1      47.182   3.514  17.021  0.00  0.00    +0.000 C 
BRANCH   7  10
ATOM      8  C   UNL     1      46.929   4.012  14.611  0.00  0.00    +0.000 C 
ATOM      9  O   UNL     1      47.469   2.958  14.283  0.00  0.00    +0.000 OA
ATOM     10  N   UNL     1      46.739   4.350  15.927  0.00  0.00    +0.000 N 
ATOM     11  H   UNL     1      46.421   5.289  16.146  0.00  0.00    +0.000 HD
BRANCH   8  17
ATOM     12  C   UNL     1      45.157   4.853  12.924  0.00  0.00    +0.000 A 
ATOM     13  C   UNL     1      44.842   5.747  11.887  0.00  0.00    +0.000 A 
ATOM     14  C   UNL     1      45.738   6.749  11.503  0.00  0.00    +0.000 A 
ATOM     15  C   UNL     1      46.955   6.880  12.157  0.00  0.00    +0.000 A 
ATOM     16  C   UNL     1      47.289   5.991  13.178  0.00  0.00    +0.000 A 
ATOM     17  C   UNL     1      46.411   4.958  13.562  0.00  0.00    +0.000 A 
BRANCH  12  19
ATOM     18  C   UNL     1      43.665   3.067  12.357  0.00  0.00    +0.000 C 
ATOM     19  O   UNL     1      44.297   3.869  13.349  0.00  0.00    +0.000 OA
ENDBRANCH  12  19
ENDBRANCH   8  17
ENDBRANCH   7  10
ENDBRANCH   1   7
BRANCH   4  20
ATOM     20  C   UNL     1      52.831   4.078  18.089  0.00  0.00    +0.000 C 
BRANCH  20  21
ATOM     21  N   UNL     1      53.359   5.246  17.432  0.00  0.00    +0.000 N 
ATOM     22  C   UNL     1      53.536   6.426  18.112  0.00  0.00    +0.000 C 
ATOM     23  O   UNL     1      53.308   6.523  19.315  0.00  0.00    +0.000 OA
ATOM     24  H   UNL     1      53.337   5.260  16.417  0.00  0.00    +0.000 HD
BRANCH  22  25
ATOM     25  C   UNL     1      54.077   7.552  17.339  0.00  0.00    +0.000 A 
ATOM     26  C   UNL     1      55.244   8.177  17.756  0.00  0.00    +0.000 A 
ATOM     27  S   UNL     1      55.763   9.425  16.717  0.00  0.00    +0.000 S 
ATOM     28  C   UNL     1      54.415   9.212  15.699  0.00  0.00    +0.000 A 
ATOM     29  N   UNL     1      54.234   9.997  14.604  0.00  0.00    +0.000 NA
ATOM     30  C   UNL     1      53.156   9.749  13.940  0.00  0.00    +0.000 A 
ATOM     31  N   UNL     1      52.242   8.782  14.273  0.00  0.00    +0.000 N 
ATOM     32  C   UNL     1      52.396   7.946  15.352  0.00  0.00    +0.000 A 
ATOM     33  O   UNL     1      51.582   7.063  15.599  0.00  0.00    +0.000 OA
ATOM     34  C   UNL     1      53.591   8.192  16.138  0.00  0.00    +0.000 A 
ATOM     35  H   UNL     1      51.418   8.632  13.705  0.00  0.00    +0.000 HD
ENDBRANCH  22  25
ENDBRANCH  20  21
ENDBRANCH   4  20
TORSDOF 7
ENDMDL
MODEL 9
REMARK VINA RESULT:    -6.016      2.248      3.747
REMARK INTER + INTRA:          -9.534
REMARK INTER:                  -8.311
REMARK INTRA:                  -1.223
REMARK UNBOUND:                -1.056
REMARK  Name = 
REMARK  8 active torsions:
REMARK  status: ('A' for Active; 'I' for Inactive)
REMARK    1  A    between atoms: C_1  and  O_2
REMARK    2  A    between atoms: O_2  and  C_3
REMARK    3  A    between atoms: C_8  and  C_9
REMARK    4  A    between atoms: N_11  and  C_12
REMARK    5  A    between atoms: C_12  and  C_13
REMARK    6  A    between atoms: C_16  and  C_17
REMARK    7  A    between atoms: C_17  and  N_18
REMARK    8  A    between atoms: C_19  and  C_21
REMARK                            x       y       z     vdW  Elec       q    Type
REMARK                         _______ _______ _______ _____ _____    ______ ____
ROOT
ATOM      1  C   UNL     1      48.936   8.183  13.311  0.00  0.00    +0.000 A 
ATOM      2  C   UNL     1      48.962   7.166  14.266  0.00  0.00    +0.000 A 
ATOM      3  C   UNL     1      49.975   7.157  15.223  0.00  0.00    +0.000 A 
ATOM      4  C   UNL     1      50.934   8.171  15.226  0.00  0.00    +0.000 A 
ATOM      5  C   UNL     1      50.840   9.135  14.230  0.00  0.00    +0.000 A 
ATOM      6  N   UNL     1      49.865   9.172  13.291  0.00  0.00    +0.000 NA
ENDROOT
BRANCH   1   7
ATOM      7  C   UNL     1      47.813   8.254  12.302  0.00  0.00    +0.000 C 
BRANCH   7  10
ATOM      8  C   UNL     1      45.731   6.975  11.911  0.00  0.00    +0.000 C 
ATOM      9  O   UNL     1      45.118   7.979  11.560  0.00  0.00    +0.000 OA
ATOM     10  N   UNL     1      47.053   7.023  12.276  0.00  0.00    +0.000 N 
ATOM     11  H   UNL     1      47.473   6.198  12.694  0.00  0.00    +0.000 HD
BRANCH   8  17
ATOM     12  C   UNL     1      45.576   4.460  12.497  0.00  0.00    +0.000 A 
ATOM     13  C   UNL     1      44.884   3.248  12.334  0.00  0.00    +0.000 A 
ATOM     14  C   UNL     1      43.679   3.196  11.628  0.00  0.00    +0.000 A 
ATOM     15  C   UNL     1      43.141   4.356  11.086  0.00  0.00    +0.000 A 
ATOM     16  C   UNL     1      43.823   5.564  11.227  0.00  0.00    +0.000 A 
ATOM     17  C   UNL     1      45.053   5.632  11.911  0.00  0.00    +0.000 A 
BRANCH  12  19
ATOM     18  C   UNL     1      46.705   4.329  14.606  0.00  0.00    +0.000 C 
ATOM     19  O   UNL     1      46.751   4.560  13.202  0.00  0.00    +0.000 OA
ENDBRANCH  12  19
ENDBRANCH   8  17
ENDBRANCH   7  10
ENDBRANCH   1   7
BRANCH   4  20
ATOM     20  C   UNL     1      52.042   8.216  16.238  0.00  0.00    +0.000 C 
BRANCH  20  21
ATOM     21  N   UNL     1      52.519   6.896  16.561  0.00  0.00    +0.000 N 
ATOM     22  C   UNL     1      52.236   6.313  17.771  0.00  0.00    +0.000 C 
ATOM     23  O   UNL     1      51.522   6.864  18.606  0.00  0.00    +0.000 OA
ATOM     24  H   UNL     1      53.280   6.526  16.001  0.00  0.00    +0.000 HD
BRANCH  22  25
ATOM     25  C   UNL     1      52.778   4.966  17.992  0.00  0.00    +0.000 A 
ATOM     26  C   UNL     1      54.096   4.812  18.399  0.00  0.00    +0.000 A 
ATOM     27  S   UNL     1      54.546   3.189  18.664  0.00  0.00    +0.000 S 
ATOM     28  C   UNL     1      53.009   2.628  18.192  0.00  0.00    +0.000 A 
ATOM     29  N   UNL     1      52.725   1.299  18.170  0.00  0.00    +0.000 NA
ATOM     30  C   UNL     1      51.534   1.013  17.762  0.00  0.00    +0.000 A 
ATOM     31  N   UNL     1      50.600   1.940  17.378  0.00  0.00    +0.000 N 
ATOM     32  C   UNL     1      50.831   3.294  17.411  0.00  0.00    +0.000 A 
ATOM     33  O   UNL     1      49.959   4.099  17.101  0.00  0.00    +0.000 OA
ATOM     34  C   UNL     1      52.161   3.667  17.854  0.00  0.00    +0.000 A 
ATOM     35  H   UNL     1      49.679   1.650  17.075  0.00  0.00    +0.000 HD
ENDBRANCH  22  25
ENDBRANCH  20  21
ENDBRANCH   4  20
TORSDOF 7
ENDMDL
