MODEL 1
REMARK VINA RESULT:    -8.152      0.000      0.000
REMARK INTER + INTRA:         -12.503
REMARK INTER:                 -11.488
REMARK INTRA:                  -1.016
REMARK UNBOUND:                -1.016
REMARK  Name = 
REMARK  7 active torsions:
REMARK  status: ('A' for Active; 'I' for Inactive)
REMARK    1  A    between atoms: C_2  and  N_3
REMARK    2  A    between atoms: C_4  and  C_21
REMARK    3  A    between atoms: N_5  and  C_6
REMARK    4  A    between atoms: C_6  and  C_7
REMARK    5  A    between atoms: C_10  and  O_11
REMARK    6  A    between atoms: O_11  and  C_12
REMARK    7  A    between atoms: C_12  and  C_13
REMARK                            x       y       z     vdW  Elec       q    Type
REMARK                         _______ _______ _______ _____ _____    ______ ____
ROOT
ATOM      1  N   UNL     1      49.665   6.771  15.212  0.00  0.00    +0.000 NA
ATOM      2  C   UNL     1      48.629   6.099  15.618  0.00  0.00    +0.000 C 
ATOM      3  N   UNL     1      47.532   5.939  14.809  0.00  0.00    +0.000 N 
ATOM      4  H   UNL     1      46.630   5.805  15.266  0.00  0.00    +0.000 HD
ENDROOT
BRANCH   2   5
ATOM      5  C   UNL     1      48.514   5.400  16.918  0.00  0.00    +0.000 A 
ATOM      6  C   UNL     1      48.516   4.014  17.021  0.00  0.00    +0.000 A 
ATOM      7  S   UNL     1      48.463   3.426  18.622  0.00  0.00    +0.000 S 
ATOM      8  C   UNL     1      48.347   5.001  19.247  0.00  0.00    +0.000 A 
ATOM      9  N   UNL     1      48.268   5.206  20.592  0.00  0.00    +0.000 NA
ATOM     10  C   UNL     1      48.179   6.447  20.933  0.00  0.00    +0.000 A 
ATOM     11  N   UNL     1      48.143   7.499  20.057  0.00  0.00    +0.000 N 
ATOM     12  C   UNL     1      48.142   7.330  18.692  0.00  0.00    +0.000 A 
ATOM     13  O   UNL     1      47.931   8.274  17.938  0.00  0.00    +0.000 OA
ATOM     14  C   UNL     1      48.327   5.957  18.249  0.00  0.00    +0.000 A 
ATOM     15  H   UNL     1      48.009   8.442  20.391  0.00  0.00    +0.000 HD
ENDBRANCH   2   5
BRANCH   1  17
ATOM     16  N   UNL     1      51.637   7.196  16.674  0.00  0.00    +0.000 NA
ATOM     17  C   UNL     1      50.731   6.998  15.978  0.00  0.00    +0.000 C 
ENDBRANCH   1  17
BRANCH   3  18
ATOM     18  C   UNL     1      47.389   6.609  13.532  0.00  0.00    +0.000 C 
BRANCH  18  19
ATOM     19  C   UNL     1      46.451   5.871  12.608  0.00  0.00    +0.000 A 
ATOM     20  C   UNL     1      46.101   6.397  11.356  0.00  0.00    +0.000 A 
ATOM     21  C   UNL     1      45.303   5.661  10.474  0.00  0.00    +0.000 A 
ATOM     22  C   UNL     1      44.852   4.390  10.827  0.00  0.00    +0.000 A 
ATOM     23  C   UNL     1      45.129   3.894  12.102  0.00  0.00    +0.000 A 
ATOM     24  C   UNL     1      45.927   4.627  12.983  0.00  0.00    +0.000 A 
BRANCH  22  25
ATOM     25  O   UNL     1      44.156   3.709   9.863  0.00  0.00    +0.000 OA
BRANCH  25  26
ATOM     26  C   UNL     1      44.620   2.372   9.626  0.00  0.00    +0.000 C 
BRANCH  26  27
ATOM     27  C   UNL     1      45.532   2.286   8.422  0.00  0.00    +0.000 A 
ATOM     28  C   UNL     1      45.716   3.377   7.575  0.00  0.00    +0.000 A 
ATOM     29  C   UNL     1      46.638   3.278   6.537  0.00  0.00    +0.000 A 
ATOM     30  C   UNL     1      47.362   2.103   6.379  0.00  0.00    +0.000 A 
ATOM     31  C   UNL     1      47.131   1.069   7.268  0.00  0.00    +0.000 A 
ATOM     32  N   UNL     1      46.241   1.134   8.283  0.00  0.00    +0.000 NA
ENDBRANCH  26  27
ENDBRANCH  25  26
ENDBRANCH  22  25
ENDBRANCH  18  19
ENDBRANCH   3  18
TORSDOF 7
ENDMDL
MODEL 2
REMARK VINA RESULT:    -7.969      1.620      2.093
REMARK INTER + INTRA:         -12.246
REMARK INTER:                 -11.237
REMARK INTRA:                  -1.009
REMARK UNBOUND:                -1.016
REMARK  Name = 
REMARK  7 active torsions:
REMARK  status: ('A' for Active; 'I' for Inactive)
REMARK    1  A    between atoms: C_2  and  N_3
REMARK    2  A    between atoms: C_4  and  C_21
REMARK    3  A    between atoms: N_5  and  C_6
REMARK    4  A    between atoms: C_6  and  C_7
REMARK    5  A    between atoms: C_10  and  O_11
REMARK    6  A    between atoms: O_11  and  C_12
REMARK    7  A    between atoms: C_12  and  C_13
REMARK                            x       y       z     vdW  Elec       q    Type
REMARK                         _______ _______ _______ _____ _____    ______ ____
ROOT
ATOM      1  N   UNL     1      50.245   6.921  15.177  0.00  0.00    +0.000 NA
ATOM      2  C   UNL     1      49.047   6.919  15.682  0.00  0.00    +0.000 C 
ATOM      3  N   UNL     1      47.941   6.845  14.874  0.00  0.00    +0.000 N 
ATOM      4  H   UNL     1      47.078   7.261  15.223  0.00  0.00    +0.000 HD
ENDROOT
BRANCH   2   5
ATOM      5  C   UNL     1      48.724   6.938  17.128  0.00  0.00    +0.000 A 
ATOM      6  C   UNL     1      48.306   8.091  17.782  0.00  0.00    +0.000 A 
ATOM      7  S   UNL     1      47.903   7.863  19.423  0.00  0.00    +0.000 S 
ATOM      8  C   UNL     1      48.352   6.226  19.356  0.00  0.00    +0.000 A 
ATOM      9  N   UNL     1      48.245   5.435  20.459  0.00  0.00    +0.000 NA
ATOM     10  C   UNL     1      48.624   4.215  20.275  0.00  0.00    +0.000 A 
ATOM     11  N   UNL     1      49.116   3.719  19.097  0.00  0.00    +0.000 N 
ATOM     12  C   UNL     1      49.312   4.503  17.984  0.00  0.00    +0.000 A 
ATOM     13  O   UNL     1      49.915   4.074  17.006  0.00  0.00    +0.000 OA
ATOM     14  C   UNL     1      48.823   5.867  18.107  0.00  0.00    +0.000 A 
ATOM     15  H   UNL     1      49.452   2.769  19.040  0.00  0.00    +0.000 HD
ENDBRANCH   2   5
BRANCH   1  17
ATOM     16  N   UNL     1      52.313   7.180  16.541  0.00  0.00    +0.000 NA
ATOM     17  C   UNL     1      51.346   7.043  15.916  0.00  0.00    +0.000 C 
ENDBRANCH   1  17
BRANCH   3  18
ATOM     18  C   UNL     1      48.016   6.906  13.428  0.00  0.00    +0.000 C 
BRANCH  18  19
ATOM     19  C   UNL     1      46.921   6.101  12.770  0.00  0.00    +0.000 A 
ATOM     20  C   UNL     1      46.266   6.567  11.621  0.00  0.00    +0.000 A 
ATOM     21  C   UNL     1      45.317   5.770  10.971  0.00  0.00    +0.000 A 
ATOM     22  C   UNL     1      45.018   4.498  11.455  0.00  0.00    +0.000 A 
ATOM     23  C   UNL     1      45.606   4.060  12.642  0.00  0.00    +0.000 A 
ATOM     24  C   UNL     1      46.554   4.854  13.292  0.00  0.00    +0.000 A 
BRANCH  22  25
ATOM     25  O   UNL     1      44.147   3.757  10.700  0.00  0.00    +0.000 OA
BRANCH  25  26
ATOM     26  C   UNL     1      44.176   4.053   9.296  0.00  0.00    +0.000 C 
BRANCH  26  27
ATOM     27  C   UNL     1      45.283   3.318   8.576  0.00  0.00    +0.000 A 
ATOM     28  C   UNL     1      45.472   1.948   8.748  0.00  0.00    +0.000 A 
ATOM     29  C   UNL     1      46.443   1.300   7.991  0.00  0.00    +0.000 A 
ATOM     30  C   UNL     1      47.189   2.028   7.072  0.00  0.00    +0.000 A 
ATOM     31  C   UNL     1      46.934   3.382   6.950  0.00  0.00    +0.000 A 
ATOM     32  N   UNL     1      46.001   4.039   7.673  0.00  0.00    +0.000 NA
ENDBRANCH  26  27
ENDBRANCH  25  26
ENDBRANCH  22  25
ENDBRANCH  18  19
ENDBRANCH   3  18
TORSDOF 7
ENDMDL
MODEL 3
REMARK VINA RESULT:    -7.814      1.845      2.305
REMARK INTER + INTRA:         -12.028
REMARK INTER:                 -11.508
REMARK INTRA:                  -0.520
REMARK UNBOUND:                -1.016
REMARK  Name = 
REMARK  7 active torsions:
REMARK  status: ('A' for Active; 'I' for Inactive)
REMARK    1  A    between atoms: C_2  and  N_3
REMARK    2  A    between atoms: C_4  and  C_21
REMARK    3  A    between atoms: N_5  and  C_6
REMARK    4  A    between atoms: C_6  and  C_7
REMARK    5  A    between atoms: C_10  and  O_11
REMARK    6  A    between atoms: O_11  and  C_12
REMARK    7  A    between atoms: C_12  and  C_13
REMARK                            x       y       z     vdW  Elec       q    Type
REMARK                         _______ _______ _______ _____ _____    ______ ____
ROOT
ATOM      1  N   UNL     1      49.403   7.636  13.966  0.00  0.00    +0.000 NA
ATOM      2  C   UNL     1      48.468   7.095  14.689  0.00  0.00    +0.000 C 
ATOM      3  N   UNL     1      47.178   7.013  14.227  0.00  0.00    +0.000 N 
ATOM      4  H   UNL     1      46.433   6.995  14.922  0.00  0.00    +0.000 HD
ENDROOT
BRANCH   2   5
ATOM      5  C   UNL     1      48.661   6.472  16.018  0.00  0.00    +0.000 A 
ATOM      6  C   UNL     1      49.342   7.109  17.048  0.00  0.00    +0.000 A 
ATOM      7  S   UNL     1      49.366   6.245  18.519  0.00  0.00    +0.000 S 
ATOM      8  C   UNL     1      48.539   4.937  17.819  0.00  0.00    +0.000 A 
ATOM      9  N   UNL     1      48.233   3.837  18.562  0.00  0.00    +0.000 NA
ATOM     10  C   UNL     1      47.609   2.915  17.909  0.00  0.00    +0.000 A 
ATOM     11  N   UNL     1      47.280   2.983  16.582  0.00  0.00    +0.000 N 
ATOM     12  C   UNL     1      47.639   4.041  15.779  0.00  0.00    +0.000 A 
ATOM     13  O   UNL     1      47.486   3.993  14.563  0.00  0.00    +0.000 OA
ATOM     14  C   UNL     1      48.269   5.149  16.480  0.00  0.00    +0.000 A 
ATOM     15  H   UNL     1      46.847   2.197  16.119  0.00  0.00    +0.000 HD
ENDBRANCH   2   5
BRANCH   1  17
ATOM     16  N   UNL     1      51.747   7.949  14.750  0.00  0.00    +0.000 NA
ATOM     17  C   UNL     1      50.656   7.785  14.392  0.00  0.00    +0.000 C 
ENDBRANCH   1  17
BRANCH   3  18
ATOM     18  C   UNL     1      46.742   7.635  12.992  0.00  0.00    +0.000 C 
BRANCH  18  19
ATOM     19  C   UNL     1      45.978   6.675  12.113  0.00  0.00    +0.000 A 
ATOM     20  C   UNL     1      46.276   6.543  10.750  0.00  0.00    +0.000 A 
ATOM     21  C   UNL     1      45.622   5.585   9.968  0.00  0.00    +0.000 A 
ATOM     22  C   UNL     1      44.669   4.743  10.540  0.00  0.00    +0.000 A 
ATOM     23  C   UNL     1      44.310   4.922  11.876  0.00  0.00    +0.000 A 
ATOM     24  C   UNL     1      44.963   5.878  12.658  0.00  0.00    +0.000 A 
BRANCH  22  25
ATOM     25  O   UNL     1      44.151   3.777   9.718  0.00  0.00    +0.000 OA
BRANCH  25  26
ATOM     26  C   UNL     1      44.881   2.542   9.718  0.00  0.00    +0.000 C 
BRANCH  26  27
ATOM     27  C   UNL     1      45.642   2.325   8.430  0.00  0.00    +0.000 A 
ATOM     28  C   UNL     1      45.723   3.324   7.461  0.00  0.00    +0.000 A 
ATOM     29  C   UNL     1      46.514   3.111   6.336  0.00  0.00    +0.000 A 
ATOM     30  C   UNL     1      47.217   1.919   6.213  0.00  0.00    +0.000 A 
ATOM     31  C   UNL     1      47.095   0.982   7.223  0.00  0.00    +0.000 A 
ATOM     32  N   UNL     1      46.333   1.158   8.324  0.00  0.00    +0.000 NA
ENDBRANCH  26  27
ENDBRANCH  25  26
ENDBRANCH  22  25
ENDBRANCH  18  19
ENDBRANCH   3  18
TORSDOF 7
ENDMDL
MODEL 4
REMARK VINA RESULT:    -7.538      1.380      1.702
REMARK INTER + INTRA:         -11.639
REMARK INTER:                 -10.618
REMARK INTRA:                  -1.021
REMARK UNBOUND:                -1.016
REMARK  Name = 
REMARK  7 active torsions:
REMARK  status: ('A' for Active; 'I' for Inactive)
REMARK    1  A    between atoms: C_2  and  N_3
REMARK    2  A    between atoms: C_4  and  C_21
REMARK    3  A    between atoms: N_5  and  C_6
REMARK    4  A    between atoms: C_6  and  C_7
REMARK    5  A    between atoms: C_10  and  O_11
REMARK    6  A    between atoms: O_11  and  C_12
REMARK    7  A    between atoms: C_12  and  C_13
REMARK                            x       y       z     vdW  Elec       q    Type
REMARK                         _______ _______ _______ _____ _____    ______ ____
ROOT
ATOM      1  N   UNL     1      50.137   6.024  16.109  0.00  0.00    +0.000 NA
ATOM      2  C   UNL     1      48.903   6.321  16.385  0.00  0.00    +0.000 C 
ATOM      3  N   UNL     1      47.960   6.409  15.392  0.00  0.00    +0.000 N 
ATOM      4  H   UNL     1      47.166   7.027  15.555  0.00  0.00    +0.000 HD
ENDROOT
BRANCH   2   5
ATOM      5  C   UNL     1      48.354   6.539  17.743  0.00  0.00    +0.000 A 
ATOM      6  C   UNL     1      48.048   5.488  18.601  0.00  0.00    +0.000 A 
ATOM      7  S   UNL     1      47.514   5.973  20.146  0.00  0.00    +0.000 S 
ATOM      8  C   UNL     1      47.585   7.613  19.710  0.00  0.00    +0.000 A 
ATOM      9  N   UNL     1      47.248   8.581  20.606  0.00  0.00    +0.000 NA
ATOM     10  C   UNL     1      47.340   9.783  20.146  0.00  0.00    +0.000 A 
ATOM     11  N   UNL     1      47.721  10.106  18.871  0.00  0.00    +0.000 N 
ATOM     12  C   UNL     1      47.994   9.156  17.914  0.00  0.00    +0.000 A 
ATOM     13  O   UNL     1      48.159   9.470  16.740  0.00  0.00    +0.000 OA
ATOM     14  C   UNL     1      47.989   7.785  18.399  0.00  0.00    +0.000 A 
ATOM     15  H   UNL     1      47.711  11.065  18.559  0.00  0.00    +0.000 HD
ENDBRANCH   2   5
BRANCH   1  17
ATOM     16  N   UNL     1      51.954   5.915  17.810  0.00  0.00    +0.000 NA
ATOM     17  C   UNL     1      51.098   5.977  17.030  0.00  0.00    +0.000 C 
ENDBRANCH   1  17
BRANCH   3  18
ATOM     18  C   UNL     1      48.288   6.321  13.983  0.00  0.00    +0.000 C 
BRANCH  18  19
ATOM     19  C   UNL     1      47.134   5.794  13.165  0.00  0.00    +0.000 A 
ATOM     20  C   UNL     1      46.568   6.554  12.132  0.00  0.00    +0.000 A 
ATOM     21  C   UNL     1      45.560   6.017  11.324  0.00  0.00    +0.000 A 
ATOM     22  C   UNL     1      45.112   4.713  11.533  0.00  0.00    +0.000 A 
ATOM     23  C   UNL     1      45.613   3.980  12.609  0.00  0.00    +0.000 A 
ATOM     24  C   UNL     1      46.621   4.514  13.415  0.00  0.00    +0.000 A 
BRANCH  22  25
ATOM     25  O   UNL     1      44.190   4.243  10.634  0.00  0.00    +0.000 OA
BRANCH  25  26
ATOM     26  C   UNL     1      44.376   2.873  10.252  0.00  0.00    +0.000 C 
BRANCH  26  27
ATOM     27  C   UNL     1      45.238   2.733   9.017  0.00  0.00    +0.000 A 
ATOM     28  C   UNL     1      45.525   3.831   8.208  0.00  0.00    +0.000 A 
ATOM     29  C   UNL     1      46.399   3.670   7.137  0.00  0.00    +0.000 A 
ATOM     30  C   UNL     1      46.977   2.427   6.910  0.00  0.00    +0.000 A 
ATOM     31  C   UNL     1      46.651   1.390   7.764  0.00  0.00    +0.000 A 
ATOM     32  N   UNL     1      45.804   1.514   8.809  0.00  0.00    +0.000 NA
ENDBRANCH  26  27
ENDBRANCH  25  26
ENDBRANCH  22  25
ENDBRANCH  18  19
ENDBRANCH   3  18
TORSDOF 7
ENDMDL
MODEL 5
REMARK VINA RESULT:    -7.523      2.860      4.437
REMARK INTER + INTRA:         -11.618
REMARK INTER:                 -10.441
REMARK INTRA:                  -1.177
REMARK UNBOUND:                -1.016
REMARK  Name = 
REMARK  7 active torsions:
REMARK  status: ('A' for Active; 'I' for Inactive)
REMARK    1  A    between atoms: C_2  and  N_3
REMARK    2  A    between atoms: C_4  and  C_21
REMARK    3  A    between atoms: N_5  and  C_6
REMARK    4  A    between atoms: C_6  and  C_7
REMARK    5  A    between atoms: C_10  and  O_11
REMARK    6  A    between atoms: O_11  and  C_12
REMARK    7  A    between atoms: C_12  and  C_13
REMARK                            x       y       z     vdW  Elec       q    Type
REMARK                         _______ _______ _______ _____ _____    ______ ____
ROOT
ATOM      1  N   UNL     1      49.307   6.119  15.854  0.00  0.00    +0.000 NA
ATOM      2  C   UNL     1      48.668   6.924  15.058  0.00  0.00    +0.000 C 
ATOM      3  N   UNL     1      47.545   6.509  14.388  0.00  0.00    +0.000 N 
ATOM      4  H   UNL     1      47.333   6.968  13.502  0.00  0.00    +0.000 HD
ENDROOT
BRANCH   2   5
ATOM      5  C   UNL     1      49.010   8.345  14.819  0.00  0.00    +0.000 A 
ATOM      6  C   UNL     1      48.845   9.325  15.790  0.00  0.00    +0.000 A 
ATOM      7  S   UNL     1      49.386  10.875  15.328  0.00  0.00    +0.000 S 
ATOM      8  C   UNL     1      49.787  10.323  13.772  0.00  0.00    +0.000 A 
ATOM      9  N   UNL     1      50.317  11.177  12.853  0.00  0.00    +0.000 NA
ATOM     10  C   UNL     1      50.571  10.632  11.710  0.00  0.00    +0.000 A 
ATOM     11  N   UNL     1      50.328   9.322  11.397  0.00  0.00    +0.000 N 
ATOM     12  C   UNL     1      49.722   8.449  12.271  0.00  0.00    +0.000 A 
ATOM     13  O   UNL     1      49.358   7.336  11.903  0.00  0.00    +0.000 OA
ATOM     14  C   UNL     1      49.491   8.984  13.603  0.00  0.00    +0.000 A 
ATOM     15  H   UNL     1      50.493   8.977  10.463  0.00  0.00    +0.000 HD
ENDBRANCH   2   5
BRANCH   1  17
ATOM     16  N   UNL     1      51.426   6.738  17.008  0.00  0.00    +0.000 NA
ATOM     17  C   UNL     1      50.429   6.458  16.485  0.00  0.00    +0.000 C 
ENDBRANCH   1  17
BRANCH   3  18
ATOM     18  C   UNL     1      47.080   5.137  14.403  0.00  0.00    +0.000 C 
BRANCH  18  19
ATOM     19  C   UNL     1      46.255   4.805  13.183  0.00  0.00    +0.000 A 
ATOM     20  C   UNL     1      46.028   5.756  12.178  0.00  0.00    +0.000 A 
ATOM     21  C   UNL     1      45.337   5.408  11.012  0.00  0.00    +0.000 A 
ATOM     22  C   UNL     1      44.873   4.106  10.833  0.00  0.00    +0.000 A 
ATOM     23  C   UNL     1      45.024   3.176  11.863  0.00  0.00    +0.000 A 
ATOM     24  C   UNL     1      45.714   3.522  13.027  0.00  0.00    +0.000 A 
BRANCH  22  25
ATOM     25  O   UNL     1      44.292   3.836   9.622  0.00  0.00    +0.000 OA
BRANCH  25  26
ATOM     26  C   UNL     1      44.445   2.481   9.177  0.00  0.00    +0.000 C 
BRANCH  26  27
ATOM     27  C   UNL     1      45.565   2.329   8.173  0.00  0.00    +0.000 A 
ATOM     28  C   UNL     1      45.955   3.390   7.358  0.00  0.00    +0.000 A 
ATOM     29  C   UNL     1      47.053   3.229   6.519  0.00  0.00    +0.000 A 
ATOM     30  C   UNL     1      47.743   2.023   6.523  0.00  0.00    +0.000 A 
ATOM     31  C   UNL     1      47.302   1.022   7.369  0.00  0.00    +0.000 A 
ATOM     32  N   UNL     1      46.238   1.147   8.192  0.00  0.00    +0.000 NA
ENDBRANCH  26  27
ENDBRANCH  25  26
ENDBRANCH  22  25
ENDBRANCH  18  19
ENDBRANCH   3  18
TORSDOF 7
ENDMDL
MODEL 6
REMARK VINA RESULT:    -7.490      1.713      2.310
REMARK INTER + INTRA:         -11.571
REMARK INTER:                 -10.590
REMARK INTRA:                  -0.981
REMARK UNBOUND:                -1.016
REMARK  Name = 
REMARK  7 active torsions:
REMARK  status: ('A' for Active; 'I' for Inactive)
REMARK    1  A    between atoms: C_2  and  N_3
REMARK    2  A    between atoms: C_4  and  C_21
REMARK    3  A    between atoms: N_5  and  C_6
REMARK    4  A    between atoms: C_6  and  C_7
REMARK    5  A    between atoms: C_10  and  O_11
REMARK    6  A    between atoms: O_11  and  C_12
REMARK    7  A    between atoms: C_12  and  C_13
REMARK                            x       y       z     vdW  Elec       q    Type
REMARK                         _______ _______ _______ _____ _____    ______ ____
ROOT
ATOM      1  N   UNL     1      48.637   8.170  15.836  0.00  0.00    +0.000 NA
ATOM      2  C   UNL     1      48.543   6.879  15.722  0.00  0.00    +0.000 C 
ATOM      3  N   UNL     1      48.034   6.307  14.583  0.00  0.00    +0.000 N 
ATOM      4  H   UNL     1      47.589   5.395  14.678  0.00  0.00    +0.000 HD
ENDROOT
BRANCH   2   5
ATOM      5  C   UNL     1      49.001   5.892  16.727  0.00  0.00    +0.000 A 
ATOM      6  C   UNL     1      48.117   5.191  17.539  0.00  0.00    +0.000 A 
ATOM      7  S   UNL     1      48.856   4.042  18.559  0.00  0.00    +0.000 S 
ATOM      8  C   UNL     1      50.404   4.490  18.022  0.00  0.00    +0.000 A 
ATOM      9  N   UNL     1      51.512   3.869  18.515  0.00  0.00    +0.000 NA
ATOM     10  C   UNL     1      52.624   4.308  18.028  0.00  0.00    +0.000 A 
ATOM     11  N   UNL     1      52.732   5.318  17.110  0.00  0.00    +0.000 N 
ATOM     12  C   UNL     1      51.644   6.021  16.647  0.00  0.00    +0.000 A 
ATOM     13  O   UNL     1      51.787   7.031  15.965  0.00  0.00    +0.000 OA
ATOM     14  C   UNL     1      50.357   5.515  17.096  0.00  0.00    +0.000 A 
ATOM     15  H   UNL     1      53.638   5.653  16.819  0.00  0.00    +0.000 HD
ENDBRANCH   2   5
BRANCH   1  17
ATOM     16  N   UNL     1      49.451   9.267  17.920  0.00  0.00    +0.000 NA
ATOM     17  C   UNL     1      49.075   8.773  16.940  0.00  0.00    +0.000 C 
ENDBRANCH   1  17
BRANCH   3  18
ATOM     18  C   UNL     1      47.445   7.080  13.509  0.00  0.00    +0.000 C 
BRANCH  18  19
ATOM     19  C   UNL     1      46.531   6.245  12.646  0.00  0.00    +0.000 A 
ATOM     20  C   UNL     1      46.149   6.672  11.366  0.00  0.00    +0.000 A 
ATOM     21  C   UNL     1      45.375   5.847  10.543  0.00  0.00    +0.000 A 
ATOM     22  C   UNL     1      44.980   4.584  10.984  0.00  0.00    +0.000 A 
ATOM     23  C   UNL     1      45.288   4.186  12.286  0.00  0.00    +0.000 A 
ATOM     24  C   UNL     1      46.061   5.009  13.108  0.00  0.00    +0.000 A 
BRANCH  22  25
ATOM     25  O   UNL     1      44.305   3.813  10.075  0.00  0.00    +0.000 OA
BRANCH  25  26
ATOM     26  C   UNL     1      44.856   2.503   9.880  0.00  0.00    +0.000 C 
BRANCH  26  27
ATOM     27  C   UNL     1      45.594   2.380   8.566  0.00  0.00    +0.000 A 
ATOM     28  C   UNL     1      45.657   3.445   7.670  0.00  0.00    +0.000 A 
ATOM     29  C   UNL     1      46.428   3.314   6.519  0.00  0.00    +0.000 A 
ATOM     30  C   UNL     1      47.128   2.135   6.298  0.00  0.00    +0.000 A 
ATOM     31  C   UNL     1      47.025   1.128   7.240  0.00  0.00    +0.000 A 
ATOM     32  N   UNL     1      46.282   1.224   8.365  0.00  0.00    +0.000 NA
ENDBRANCH  26  27
ENDBRANCH  25  26
ENDBRANCH  22  25
ENDBRANCH  18  19
ENDBRANCH   3  18
TORSDOF 7
ENDMDL
MODEL 7
REMARK VINA RESULT:    -7.462      1.937      2.478
REMARK INTER + INTRA:         -11.531
REMARK INTER:                 -10.561
REMARK INTRA:                  -0.970
REMARK UNBOUND:                -1.016
REMARK  Name = 
REMARK  7 active torsions:
REMARK  status: ('A' for Active; 'I' for Inactive)
REMARK    1  A    between atoms: C_2  and  N_3
REMARK    2  A    between atoms: C_4  and  C_21
REMARK    3  A    between atoms: N_5  and  C_6
REMARK    4  A    between atoms: C_6  and  C_7
REMARK    5  A    between atoms: C_10  and  O_11
REMARK    6  A    between atoms: O_11  and  C_12
REMARK    7  A    between atoms: C_12  and  C_13
REMARK                            x       y       z     vdW  Elec       q    Type
REMARK                         _______ _______ _______ _____ _____    ______ ____
ROOT
ATOM      1  N   UNL     1      49.103   4.395  16.739  0.00  0.00    +0.000 NA
ATOM      2  C   UNL     1      48.598   5.518  16.323  0.00  0.00    +0.000 C 
ATOM      3  N   UNL     1      47.518   5.533  15.476  0.00  0.00    +0.000 N 
ATOM      4  H   UNL     1      47.421   6.337  14.857  0.00  0.00    +0.000 HD
ENDROOT
BRANCH   2   5
ATOM      5  C   UNL     1      49.054   6.868  16.726  0.00  0.00    +0.000 A 
ATOM      6  C   UNL     1      50.018   7.572  16.013  0.00  0.00    +0.000 A 
ATOM      7  S   UNL     1      50.324   9.142  16.605  0.00  0.00    +0.000 S 
ATOM      8  C   UNL     1      49.242   8.920  17.895  0.00  0.00    +0.000 A 
ATOM      9  N   UNL     1      49.033   9.916  18.800  0.00  0.00    +0.000 NA
ATOM     10  C   UNL     1      48.192   9.616  19.732  0.00  0.00    +0.000 A 
ATOM     11  N   UNL     1      47.557   8.408  19.853  0.00  0.00    +0.000 N 
ATOM     12  C   UNL     1      47.800   7.352  19.007  0.00  0.00    +0.000 A 
ATOM     13  O   UNL     1      47.353   6.235  19.244  0.00  0.00    +0.000 OA
ATOM     14  C   UNL     1      48.674   7.659  17.886  0.00  0.00    +0.000 A 
ATOM     15  H   UNL     1      46.959   8.220  20.644  0.00  0.00    +0.000 HD
ENDBRANCH   2   5
BRANCH   1  17
ATOM     16  N   UNL     1      51.117   4.305  18.204  0.00  0.00    +0.000 NA
ATOM     17  C   UNL     1      50.181   4.328  17.519  0.00  0.00    +0.000 C 
ENDBRANCH   1  17
BRANCH   3  18
ATOM     18  C   UNL     1      46.963   4.333  14.884  0.00  0.00    +0.000 C 
BRANCH  18  19
ATOM     19  C   UNL     1      46.398   4.590  13.508  0.00  0.00    +0.000 A 
ATOM     20  C   UNL     1      46.682   5.775  12.814  0.00  0.00    +0.000 A 
ATOM     21  C   UNL     1      46.225   5.959  11.505  0.00  0.00    +0.000 A 
ATOM     22  C   UNL     1      45.486   4.961  10.871  0.00  0.00    +0.000 A 
ATOM     23  C   UNL     1      45.131   3.815  11.582  0.00  0.00    +0.000 A 
ATOM     24  C   UNL     1      45.588   3.628  12.889  0.00  0.00    +0.000 A 
BRANCH  22  25
ATOM     25  O   UNL     1      45.163   5.194   9.560  0.00  0.00    +0.000 OA
BRANCH  25  26
ATOM     26  C   UNL     1      44.515   4.095   8.903  0.00  0.00    +0.000 C 
BRANCH  26  27
ATOM     27  C   UNL     1      45.497   3.190   8.193  0.00  0.00    +0.000 A 
ATOM     28  C   UNL     1      46.425   3.700   7.286  0.00  0.00    +0.000 A 
ATOM     29  C   UNL     1      47.369   2.842   6.731  0.00  0.00    +0.000 A 
ATOM     30  C   UNL     1      47.376   1.504   7.105  0.00  0.00    +0.000 A 
ATOM     31  C   UNL     1      46.431   1.076   8.020  0.00  0.00    +0.000 A 
ATOM     32  N   UNL     1      45.500   1.884   8.573  0.00  0.00    +0.000 NA
ENDBRANCH  26  27
ENDBRANCH  25  26
ENDBRANCH  22  25
ENDBRANCH  18  19
ENDBRANCH   3  18
TORSDOF 7
ENDMDL
MODEL 8
REMARK VINA RESULT:    -7.308      2.141      3.375
REMARK INTER + INTRA:         -11.315
REMARK INTER:                 -10.299
REMARK INTRA:                  -1.016
REMARK UNBOUND:                -1.016
REMARK  Name = 
REMARK  7 active torsions:
REMARK  status: ('A' for Active; 'I' for Inactive)
REMARK    1  A    between atoms: C_2  and  N_3
REMARK    2  A    between atoms: C_4  and  C_21
REMARK    3  A    between atoms: N_5  and  C_6
REMARK    4  A    between atoms: C_6  and  C_7
REMARK    5  A    between atoms: C_10  and  O_11
REMARK    6  A    between atoms: O_11  and  C_12
REMARK    7  A    between atoms: C_12  and  C_13
REMARK                            x       y       z     vdW  Elec       q    Type
REMARK                         _______ _______ _______ _____ _____    ______ ____
ROOT
ATOM      1  N   UNL     1      47.616   4.960  17.571  0.00  0.00    +0.000 NA
ATOM      2  C   UNL     1      48.242   5.519  16.578  0.00  0.00    +0.000 C 
ATOM      3  N   UNL     1      47.809   5.347  15.287  0.00  0.00    +0.000 N 
ATOM      4  H   UNL     1      48.508   5.415  14.547  0.00  0.00    +0.000 HD
ENDROOT
BRANCH   2   5
ATOM      5  C   UNL     1      49.413   6.418  16.696  0.00  0.00    +0.000 A 
ATOM      6  C   UNL     1      49.342   7.775  16.404  0.00  0.00    +0.000 A 
ATOM      7  S   UNL     1      50.786   8.635  16.695  0.00  0.00    +0.000 S 
ATOM      8  C   UNL     1      51.599   7.212  17.143  0.00  0.00    +0.000 A 
ATOM      9  N   UNL     1      52.907   7.255  17.519  0.00  0.00    +0.000 NA
ATOM     10  C   UNL     1      53.406   6.105  17.829  0.00  0.00    +0.000 A 
ATOM     11  N   UNL     1      52.725   4.918  17.781  0.00  0.00    +0.000 N 
ATOM     12  C   UNL     1      51.428   4.823  17.332  0.00  0.00    +0.000 A 
ATOM     13  O   UNL     1      50.905   3.732  17.133  0.00  0.00    +0.000 OA
ATOM     14  C   UNL     1      50.787   6.098  17.050  0.00  0.00    +0.000 A 
ATOM     15  H   UNL     1      53.195   4.048  17.977  0.00  0.00    +0.000 HD
ENDBRANCH   2   5
BRANCH   1  17
ATOM     16  N   UNL     1      48.351   5.147  19.944  0.00  0.00    +0.000 NA
ATOM     17  C   UNL     1      48.027   5.055  18.835  0.00  0.00    +0.000 C 
ENDBRANCH   1  17
BRANCH   3  18
ATOM     18  C   UNL     1      46.738   4.439  14.928  0.00  0.00    +0.000 C 
BRANCH  18  19
ATOM     19  C   UNL     1      46.225   4.693  13.532  0.00  0.00    +0.000 A 
ATOM     20  C   UNL     1      46.662   5.797  12.786  0.00  0.00    +0.000 A 
ATOM     21  C   UNL     1      46.246   5.969  11.461  0.00  0.00    +0.000 A 
ATOM     22  C   UNL     1      45.397   5.038  10.864  0.00  0.00    +0.000 A 
ATOM     23  C   UNL     1      44.895   3.981  11.624  0.00  0.00    +0.000 A 
ATOM     24  C   UNL     1      45.310   3.808  12.947  0.00  0.00    +0.000 A 
BRANCH  22  25
ATOM     25  O   UNL     1      45.121   5.240   9.537  0.00  0.00    +0.000 OA
BRANCH  25  26
ATOM     26  C   UNL     1      44.518   4.119   8.876  0.00  0.00    +0.000 C 
BRANCH  26  27
ATOM     27  C   UNL     1      45.535   3.263   8.154  0.00  0.00    +0.000 A 
ATOM     28  C   UNL     1      45.734   1.929   8.501  0.00  0.00    +0.000 A 
ATOM     29  C   UNL     1      46.611   1.158   7.745  0.00  0.00    +0.000 A 
ATOM     30  C   UNL     1      47.255   1.730   6.655  0.00  0.00    +0.000 A 
ATOM     31  C   UNL     1      46.995   3.057   6.367  0.00  0.00    +0.000 A 
ATOM     32  N   UNL     1      46.152   3.832   7.083  0.00  0.00    +0.000 NA
ENDBRANCH  26  27
ENDBRANCH  25  26
ENDBRANCH  22  25
ENDBRANCH  18  19
ENDBRANCH   3  18
TORSDOF 7
ENDMDL
MODEL 9
REMARK VINA RESULT:    -7.007      2.142      3.070
REMARK INTER + INTRA:         -10.890
REMARK INTER:                  -9.734
REMARK INTRA:                  -1.157
REMARK UNBOUND:                -1.016
REMARK  Name = 
REMARK  7 active torsions:
REMARK  status: ('A' for Active; 'I' for Inactive)
REMARK    1  A    between atoms: C_2  and  N_3
REMARK    2  A    between atoms: C_4  and  C_21
REMARK    3  A    between atoms: N_5  and  C_6
REMARK    4  A    between atoms: C_6  and  C_7
REMARK    5  A    between atoms: C_10  and  O_11
REMARK    6  A    between atoms: O_11  and  C_12
REMARK    7  A    between atoms: C_12  and  C_13
REMARK                            x       y       z     vdW  Elec       q    Type
REMARK                         _______ _______ _______ _____ _____    ______ ____
ROOT
ATOM      1  N   UNL     1      48.563   8.266  16.651  0.00  0.00    +0.000 NA
ATOM      2  C   UNL     1      49.116   7.297  15.985  0.00  0.00    +0.000 C 
ATOM      3  N   UNL     1      48.801   7.078  14.667  0.00  0.00    +0.000 N 
ATOM      4  H   UNL     1      48.895   6.126  14.316  0.00  0.00    +0.000 HD
ENDROOT
BRANCH   2   5
ATOM      5  C   UNL     1      50.152   6.376  16.507  0.00  0.00    +0.000 A 
ATOM      6  C   UNL     1      51.474   6.767  16.687  0.00  0.00    +0.000 A 
ATOM      7  S   UNL     1      52.473   5.573  17.382  0.00  0.00    +0.000 S 
ATOM      8  C   UNL     1      51.201   4.447  17.395  0.00  0.00    +0.000 A 
ATOM      9  N   UNL     1      51.397   3.190  17.882  0.00  0.00    +0.000 NA
ATOM     10  C   UNL     1      50.353   2.434  17.829  0.00  0.00    +0.000 A 
ATOM     11  N   UNL     1      49.139   2.811  17.319  0.00  0.00    +0.000 N 
ATOM     12  C   UNL     1      48.923   4.044  16.748  0.00  0.00    +0.000 A 
ATOM     13  O   UNL     1      47.884   4.288  16.144  0.00  0.00    +0.000 OA
ATOM     14  C   UNL     1      50.040   4.969  16.857  0.00  0.00    +0.000 A 
ATOM     15  H   UNL     1      48.381   2.148  17.251  0.00  0.00    +0.000 HD
ENDBRANCH   2   5
BRANCH   1  17
ATOM     16  N   UNL     1      48.993   8.713  19.064  0.00  0.00    +0.000 NA
ATOM     17  C   UNL     1      48.797   8.486  17.944  0.00  0.00    +0.000 C 
ENDBRANCH   1  17
BRANCH   3  18
ATOM     18  C   UNL     1      47.750   7.800  13.978  0.00  0.00    +0.000 C 
BRANCH  18  19
ATOM     19  C   UNL     1      46.875   6.881  13.160  0.00  0.00    +0.000 A 
ATOM     20  C   UNL     1      46.953   5.488  13.300  0.00  0.00    +0.000 A 
ATOM     21  C   UNL     1      46.073   4.654  12.601  0.00  0.00    +0.000 A 
ATOM     22  C   UNL     1      45.103   5.200  11.762  0.00  0.00    +0.000 A 
ATOM     23  C   UNL     1      45.073   6.579  11.556  0.00  0.00    +0.000 A 
ATOM     24  C   UNL     1      45.949   7.414  12.253  0.00  0.00    +0.000 A 
BRANCH  22  25
ATOM     25  O   UNL     1      44.229   4.310  11.195  0.00  0.00    +0.000 OA
BRANCH  25  26
ATOM     26  C   UNL     1      44.041   4.479   9.783  0.00  0.00    +0.000 C 
BRANCH  26  27
ATOM     27  C   UNL     1      45.062   3.715   8.971  0.00  0.00    +0.000 A 
ATOM     28  C   UNL     1      45.211   2.336   9.110  0.00  0.00    +0.000 A 
ATOM     29  C   UNL     1      46.098   1.665   8.273  0.00  0.00    +0.000 A 
ATOM     30  C   UNL     1      46.801   2.380   7.311  0.00  0.00    +0.000 A 
ATOM     31  C   UNL     1      46.589   3.744   7.228  0.00  0.00    +0.000 A 
ATOM     32  N   UNL     1      45.738   4.424   8.028  0.00  0.00    +0.000 NA
ENDBRANCH  26  27
ENDBRANCH  25  26
ENDBRANCH  22  25
ENDBRANCH  18  19
ENDBRANCH   3  18
TORSDOF 7
ENDMDL
