MODEL 1
REMARK VINA RESULT:    -8.098      0.000      0.000
REMARK INTER + INTRA:         -12.102
REMARK INTER:                 -11.412
REMARK INTRA:                  -0.690
REMARK UNBOUND:                -0.690
REMARK  Name = 
REMARK  10 active torsions:
REMARK  status: ('A' for Active; 'I' for Inactive)
REMARK    1  A    between atoms: C_1  and  C_2
REMARK    2  A    between atoms: C_2  and  C_3
REMARK    3  A    between atoms: C_2  and  C_4
REMARK    4  A    between atoms: C_2  and  C_23
REMARK    5  A    between atoms: C_4  and  N_5
REMARK    6  A    between atoms: C_10  and  C_11
REMARK    7  A    between atoms: C_14  and  N_15
REMARK    8  A    between atoms: N_15  and  S_16
REMARK    9  A    between atoms: S_16  and  C_17
REMARK   10  A    between atoms: C_26  and  C_27
REMARK                            x       y       z     vdW  Elec       q    Type
REMARK                         _______ _______ _______ _____ _____    ______ ____
ROOT
ATOM      1  N   UNL     1      46.344   5.008  12.669  0.00  0.00    +0.000 N 
ATOM      2  C   UNL     1      47.047   5.944  13.419  0.00  0.00    +0.000 A 
ATOM      3  N   UNL     1      46.970   7.245  13.105  0.00  0.00    +0.000 NA
ATOM      4  C   UNL     1      47.699   8.094  13.841  0.00  0.00    +0.000 A 
ATOM      5  C   UNL     1      48.484   7.699  14.893  0.00  0.00    +0.000 A 
ATOM      6  C   UNL     1      48.514   6.344  15.157  0.00  0.00    +0.000 A 
ATOM      7  N   UNL     1      47.813   5.467  14.404  0.00  0.00    +0.000 NA
ATOM      8  H   UNL     1      47.028   4.618  12.025  0.00  0.00    +0.000 HD
ENDROOT
BRANCH   6   9
ATOM      9  C   UNL     1      49.272   5.761  16.287  0.00  0.00    +0.000 A 
ATOM     10  C   UNL     1      50.510   6.307  16.678  0.00  0.00    +0.000 A 
ATOM     11  C   UNL     1      51.274   5.737  17.703  0.00  0.00    +0.000 A 
ATOM     12  C   UNL     1      50.823   4.592  18.345  0.00  0.00    +0.000 A 
ATOM     13  C   UNL     1      49.578   4.059  18.025  0.00  0.00    +0.000 A 
ATOM     14  C   UNL     1      48.811   4.641  17.004  0.00  0.00    +0.000 A 
BRANCH  12  15
ATOM     15  N   UNL     1      51.693   3.918  19.246  0.00  0.00    +0.000 N 
ATOM     16  H   UNL     1      51.872   4.387  20.133  0.00  0.00    +0.000 HD
BRANCH  15  17
ATOM     17  S   UNL     1      53.067   3.140  18.674  0.00  0.00    +0.000 S 
ATOM     18  C   UNL     1      52.331   1.810  17.746  0.00  0.00    +0.000 C 
ATOM     19  O   UNL     1      53.809   3.999  17.786  0.00  0.00    +0.000 OA
ATOM     20  O   UNL     1      53.687   2.551  19.848  0.00  0.00    +0.000 OA
ENDBRANCH  15  17
ENDBRANCH  12  15
ENDBRANCH   6   9
BRANCH   1  21
ATOM     21  C   UNL     1      45.179   5.554  11.977  0.00  0.00    +0.000 C 
BRANCH  21  23
ATOM     22  C   UNL     1      44.074   3.329  12.461  0.00  0.00    +0.000 C 
ATOM     23  C   UNL     1      44.279   4.425  11.385  0.00  0.00    +0.000 C 
ATOM     24  C   UNL     1      42.885   5.036  11.106  0.00  0.00    +0.000 C 
BRANCH  23  25
ATOM     25  C   UNL     1      44.891   3.875  10.074  0.00  0.00    +0.000 A 
ATOM     26  C   UNL     1      44.964   2.501   9.811  0.00  0.00    +0.000 A 
ATOM     27  C   UNL     1      45.601   2.008   8.668  0.00  0.00    +0.000 A 
ATOM     28  C   UNL     1      46.177   2.883   7.748  0.00  0.00    +0.000 A 
ATOM     29  C   UNL     1      46.101   4.260   7.975  0.00  0.00    +0.000 A 
ATOM     30  C   UNL     1      45.462   4.748   9.125  0.00  0.00    +0.000 A 
BRANCH  28  31
ATOM     31  C   UNL     1      46.897   2.296   6.588  0.00  0.00    +0.000 C 
ATOM     32  N   UNL     1      47.154   3.113   5.523  0.00  0.00    +0.000 N 
ATOM     33  O   UNL     1      47.223   1.116   6.565  0.00  0.00    +0.000 OA
ATOM     34  H   UNL     1      46.756   4.035   5.419  0.00  0.00    +0.000 HD
ATOM     35  H   UNL     1      47.568   2.674   4.711  0.00  0.00    +0.000 HD
ENDBRANCH  28  31
ENDBRANCH  23  25
ENDBRANCH  21  23
ENDBRANCH   1  21
TORSDOF 7
ENDMDL
MODEL 2
REMARK VINA RESULT:    -7.726      3.387      4.362
REMARK INTER + INTRA:         -11.578
REMARK INTER:                 -10.625
REMARK INTRA:                  -0.953
REMARK UNBOUND:                -0.690
REMARK  Name = 
REMARK  10 active torsions:
REMARK  status: ('A' for Active; 'I' for Inactive)
REMARK    1  A    between atoms: C_1  and  C_2
REMARK    2  A    between atoms: C_2  and  C_3
REMARK    3  A    between atoms: C_2  and  C_4
REMARK    4  A    between atoms: C_2  and  C_23
REMARK    5  A    between atoms: C_4  and  N_5
REMARK    6  A    between atoms: C_10  and  C_11
REMARK    7  A    between atoms: C_14  and  N_15
REMARK    8  A    between atoms: N_15  and  S_16
REMARK    9  A    between atoms: S_16  and  C_17
REMARK   10  A    between atoms: C_26  and  C_27
REMARK                            x       y       z     vdW  Elec       q    Type
REMARK                         _______ _______ _______ _____ _____    ______ ____
ROOT
ATOM      1  N   UNL     1      45.829   5.062  12.505  0.00  0.00    +0.000 N 
ATOM      2  C   UNL     1      46.634   5.142  13.636  0.00  0.00    +0.000 A 
ATOM      3  N   UNL     1      46.484   4.252  14.626  0.00  0.00    +0.000 NA
ATOM      4  C   UNL     1      47.263   4.403  15.706  0.00  0.00    +0.000 A 
ATOM      5  C   UNL     1      48.203   5.394  15.825  0.00  0.00    +0.000 A 
ATOM      6  C   UNL     1      48.300   6.274  14.765  0.00  0.00    +0.000 A 
ATOM      7  N   UNL     1      47.499   6.159  13.683  0.00  0.00    +0.000 NA
ATOM      8  H   UNL     1      45.097   5.752  12.654  0.00  0.00    +0.000 HD
ENDROOT
BRANCH   6   9
ATOM      9  C   UNL     1      49.297   7.367  14.717  0.00  0.00    +0.000 A 
ATOM     10  C   UNL     1      49.128   8.453  13.835  0.00  0.00    +0.000 A 
ATOM     11  C   UNL     1      50.086   9.468  13.728  0.00  0.00    +0.000 A 
ATOM     12  C   UNL     1      51.247   9.405  14.487  0.00  0.00    +0.000 A 
ATOM     13  C   UNL     1      51.420   8.378  15.410  0.00  0.00    +0.000 A 
ATOM     14  C   UNL     1      50.452   7.369  15.522  0.00  0.00    +0.000 A 
BRANCH  12  15
ATOM     15  N   UNL     1      52.292  10.335  14.228  0.00  0.00    +0.000 N 
ATOM     16  H   UNL     1      52.019  11.316  14.184  0.00  0.00    +0.000 HD
BRANCH  15  17
ATOM     17  S   UNL     1      53.484   9.976  13.101  0.00  0.00    +0.000 S 
ATOM     18  C   UNL     1      54.923   9.914  14.150  0.00  0.00    +0.000 C 
ATOM     19  O   UNL     1      53.258   8.681  12.511  0.00  0.00    +0.000 OA
ATOM     20  O   UNL     1      53.604  11.169  12.281  0.00  0.00    +0.000 OA
ENDBRANCH  15  17
ENDBRANCH  12  15
ENDBRANCH   6   9
BRANCH   1  21
ATOM     21  C   UNL     1      45.290   3.728  12.252  0.00  0.00    +0.000 C 
BRANCH  21  23
ATOM     22  C   UNL     1      43.127   2.756  11.367  0.00  0.00    +0.000 C 
ATOM     23  C   UNL     1      44.292   3.728  11.052  0.00  0.00    +0.000 C 
ATOM     24  C   UNL     1      43.674   5.144  10.958  0.00  0.00    +0.000 C 
BRANCH  23  25
ATOM     25  C   UNL     1      45.028   3.380   9.735  0.00  0.00    +0.000 A 
ATOM     26  C   UNL     1      45.265   2.054   9.348  0.00  0.00    +0.000 A 
ATOM     27  C   UNL     1      46.010   1.748   8.206  0.00  0.00    +0.000 A 
ATOM     28  C   UNL     1      46.532   2.767   7.409  0.00  0.00    +0.000 A 
ATOM     29  C   UNL     1      46.293   4.098   7.760  0.00  0.00    +0.000 A 
ATOM     30  C   UNL     1      45.546   4.399   8.909  0.00  0.00    +0.000 A 
BRANCH  28  31
ATOM     31  C   UNL     1      47.370   2.379   6.246  0.00  0.00    +0.000 C 
ATOM     32  N   UNL     1      47.204   3.078   5.083  0.00  0.00    +0.000 N 
ATOM     33  O   UNL     1      48.161   1.445   6.307  0.00  0.00    +0.000 OA
ATOM     34  H   UNL     1      46.450   3.732   4.930  0.00  0.00    +0.000 HD
ATOM     35  H   UNL     1      47.721   2.744   4.281  0.00  0.00    +0.000 HD
ENDBRANCH  28  31
ENDBRANCH  23  25
ENDBRANCH  21  23
ENDBRANCH   1  21
TORSDOF 7
ENDMDL
MODEL 3
REMARK VINA RESULT:    -7.185      3.555      5.036
REMARK INTER + INTRA:         -10.815
REMARK INTER:                  -9.740
REMARK INTRA:                  -1.075
REMARK UNBOUND:                -0.690
REMARK  Name = 
REMARK  10 active torsions:
REMARK  status: ('A' for Active; 'I' for Inactive)
REMARK    1  A    between atoms: C_1  and  C_2
REMARK    2  A    between atoms: C_2  and  C_3
REMARK    3  A    between atoms: C_2  and  C_4
REMARK    4  A    between atoms: C_2  and  C_23
REMARK    5  A    between atoms: C_4  and  N_5
REMARK    6  A    between atoms: C_10  and  C_11
REMARK    7  A    between atoms: C_14  and  N_15
REMARK    8  A    between atoms: N_15  and  S_16
REMARK    9  A    between atoms: S_16  and  C_17
REMARK   10  A    between atoms: C_26  and  C_27
REMARK                            x       y       z     vdW  Elec       q    Type
REMARK                         _______ _______ _______ _____ _____    ______ ____
ROOT
ATOM      1  N   UNL     1      49.650   7.222  15.318  0.00  0.00    +0.000 N 
ATOM      2  C   UNL     1      49.463   6.422  16.440  0.00  0.00    +0.000 A 
ATOM      3  N   UNL     1      48.506   6.729  17.326  0.00  0.00    +0.000 NA
ATOM      4  C   UNL     1      48.398   5.942  18.405  0.00  0.00    +0.000 A 
ATOM      5  C   UNL     1      49.192   4.845  18.621  0.00  0.00    +0.000 A 
ATOM      6  C   UNL     1      50.156   4.591  17.665  0.00  0.00    +0.000 A 
ATOM      7  N   UNL     1      50.304   5.394  16.588  0.00  0.00    +0.000 NA
ATOM      8  H   UNL     1      50.435   7.825  15.553  0.00  0.00    +0.000 HD
ENDROOT
BRANCH   6   9
ATOM      9  C   UNL     1      51.060   3.420  17.725  0.00  0.00    +0.000 A 
ATOM     10  C   UNL     1      52.398   3.567  18.141  0.00  0.00    +0.000 A 
ATOM     11  C   UNL     1      53.288   2.487  18.148  0.00  0.00    +0.000 A 
ATOM     12  C   UNL     1      52.861   1.238  17.717  0.00  0.00    +0.000 A 
ATOM     13  C   UNL     1      51.531   1.043  17.355  0.00  0.00    +0.000 A 
ATOM     14  C   UNL     1      50.640   2.127  17.360  0.00  0.00    +0.000 A 
BRANCH  12  15
ATOM     15  N   UNL     1      53.820   0.201  17.549  0.00  0.00    +0.000 N 
ATOM     16  H   UNL     1      53.766  -0.324  16.678  0.00  0.00    +0.000 HD
BRANCH  15  17
ATOM     17  S   UNL     1      54.231  -0.790  18.841  0.00  0.00    +0.000 S 
ATOM     18  C   UNL     1      55.288  -1.972  18.028  0.00  0.00    +0.000 C 
ATOM     19  O   UNL     1      54.988  -0.059  19.826  0.00  0.00    +0.000 OA
ATOM     20  O   UNL     1      53.005  -1.484  19.194  0.00  0.00    +0.000 OA
ENDBRANCH  15  17
ENDBRANCH  12  15
ENDBRANCH   6   9
BRANCH   1  21
ATOM     21  C   UNL     1      48.466   7.982  14.925  0.00  0.00    +0.000 C 
BRANCH  21  23
ATOM     22  C   UNL     1      47.879   9.154  12.760  0.00  0.00    +0.000 C 
ATOM     23  C   UNL     1      48.122   7.772  13.417  0.00  0.00    +0.000 C 
ATOM     24  C   UNL     1      49.372   7.170  12.731  0.00  0.00    +0.000 C 
BRANCH  23  25
ATOM     25  C   UNL     1      46.916   6.813  13.265  0.00  0.00    +0.000 A 
ATOM     26  C   UNL     1      47.014   5.448  13.564  0.00  0.00    +0.000 A 
ATOM     27  C   UNL     1      45.949   4.572  13.336  0.00  0.00    +0.000 A 
ATOM     28  C   UNL     1      44.746   5.043  12.810  0.00  0.00    +0.000 A 
ATOM     29  C   UNL     1      44.614   6.404  12.522  0.00  0.00    +0.000 A 
ATOM     30  C   UNL     1      45.688   7.279  12.751  0.00  0.00    +0.000 A 
BRANCH  28  31
ATOM     31  C   UNL     1      43.676   4.053  12.529  0.00  0.00    +0.000 C 
ATOM     32  N   UNL     1      42.583   4.482  11.830  0.00  0.00    +0.000 N 
ATOM     33  O   UNL     1      43.746   2.899  12.934  0.00  0.00    +0.000 OA
ATOM     34  H   UNL     1      42.397   5.454  11.629  0.00  0.00    +0.000 HD
ATOM     35  H   UNL     1      41.828   3.816  11.723  0.00  0.00    +0.000 HD
ENDBRANCH  28  31
ENDBRANCH  23  25
ENDBRANCH  21  23
ENDBRANCH   1  21
TORSDOF 7
ENDMDL
MODEL 4
REMARK VINA RESULT:    -6.774      2.987      3.754
REMARK INTER + INTRA:         -10.236
REMARK INTER:                  -9.335
REMARK INTRA:                  -0.901
REMARK UNBOUND:                -0.690
REMARK  Name = 
REMARK  10 active torsions:
REMARK  status: ('A' for Active; 'I' for Inactive)
REMARK    1  A    between atoms: C_1  and  C_2
REMARK    2  A    between atoms: C_2  and  C_3
REMARK    3  A    between atoms: C_2  and  C_4
REMARK    4  A    between atoms: C_2  and  C_23
REMARK    5  A    between atoms: C_4  and  N_5
REMARK    6  A    between atoms: C_10  and  C_11
REMARK    7  A    between atoms: C_14  and  N_15
REMARK    8  A    between atoms: N_15  and  S_16
REMARK    9  A    between atoms: S_16  and  C_17
REMARK   10  A    between atoms: C_26  and  C_27
REMARK                            x       y       z     vdW  Elec       q    Type
REMARK                         _______ _______ _______ _____ _____    ______ ____
ROOT
ATOM      1  N   UNL     1      46.201   5.391  13.568  0.00  0.00    +0.000 N 
ATOM      2  C   UNL     1      46.977   5.042  14.667  0.00  0.00    +0.000 A 
ATOM      3  N   UNL     1      46.750   3.886  15.305  0.00  0.00    +0.000 NA
ATOM      4  C   UNL     1      47.506   3.623  16.379  0.00  0.00    +0.000 A 
ATOM      5  C   UNL     1      48.498   4.457  16.826  0.00  0.00    +0.000 A 
ATOM      6  C   UNL     1      48.675   5.630  16.118  0.00  0.00    +0.000 A 
ATOM      7  N   UNL     1      47.898   5.930  15.054  0.00  0.00    +0.000 NA
ATOM      8  H   UNL     1      45.505   6.038  13.932  0.00  0.00    +0.000 HD
ENDROOT
BRANCH   6   9
ATOM      9  C   UNL     1      49.733   6.613  16.442  0.00  0.00    +0.000 A 
ATOM     10  C   UNL     1      50.600   7.090  15.439  0.00  0.00    +0.000 A 
ATOM     11  C   UNL     1      51.646   7.973  15.731  0.00  0.00    +0.000 A 
ATOM     12  C   UNL     1      51.860   8.381  17.041  0.00  0.00    +0.000 A 
ATOM     13  C   UNL     1      50.988   7.976  18.047  0.00  0.00    +0.000 A 
ATOM     14  C   UNL     1      49.934   7.100  17.747  0.00  0.00    +0.000 A 
BRANCH  12  15
ATOM     15  N   UNL     1      53.035   9.120  17.350  0.00  0.00    +0.000 N 
ATOM     16  H   UNL     1      53.791   8.598  17.790  0.00  0.00    +0.000 HD
BRANCH  15  17
ATOM     17  S   UNL     1      52.917  10.675  17.974  0.00  0.00    +0.000 S 
ATOM     18  C   UNL     1      54.451  11.377  17.402  0.00  0.00    +0.000 C 
ATOM     19  O   UNL     1      51.809  11.382  17.381  0.00  0.00    +0.000 OA
ATOM     20  O   UNL     1      53.029  10.517  19.413  0.00  0.00    +0.000 OA
ENDBRANCH  15  17
ENDBRANCH  12  15
ENDBRANCH   6   9
BRANCH   1  21
ATOM     21  C   UNL     1      45.593   4.253  12.883  0.00  0.00    +0.000 C 
BRANCH  21  23
ATOM     22  C   UNL     1      43.172   4.258  12.145  0.00  0.00    +0.000 C 
ATOM     23  C   UNL     1      44.604   4.712  11.767  0.00  0.00    +0.000 C 
ATOM     24  C   UNL     1      44.591   6.260  11.762  0.00  0.00    +0.000 C 
BRANCH  23  25
ATOM     25  C   UNL     1      45.060   4.180  10.386  0.00  0.00    +0.000 A 
ATOM     26  C   UNL     1      45.002   2.818  10.062  0.00  0.00    +0.000 A 
ATOM     27  C   UNL     1      45.501   2.333   8.850  0.00  0.00    +0.000 A 
ATOM     28  C   UNL     1      46.064   3.205   7.918  0.00  0.00    +0.000 A 
ATOM     29  C   UNL     1      46.116   4.571   8.207  0.00  0.00    +0.000 A 
ATOM     30  C   UNL     1      45.616   5.052   9.427  0.00  0.00    +0.000 A 
BRANCH  28  31
ATOM     31  C   UNL     1      46.636   2.621   6.678  0.00  0.00    +0.000 C 
ATOM     32  N   UNL     1      46.846   3.461   5.621  0.00  0.00    +0.000 N 
ATOM     33  O   UNL     1      46.883   1.425   6.586  0.00  0.00    +0.000 OA
ATOM     34  H   UNL     1      46.500   4.409   5.585  0.00  0.00    +0.000 HD
ATOM     35  H   UNL     1      47.156   3.030   4.759  0.00  0.00    +0.000 HD
ENDBRANCH  28  31
ENDBRANCH  23  25
ENDBRANCH  21  23
ENDBRANCH   1  21
TORSDOF 7
ENDMDL
MODEL 5
REMARK VINA RESULT:    -6.094      5.825     10.520
REMARK INTER + INTRA:          -9.278
REMARK INTER:                  -8.549
REMARK INTRA:                  -0.730
REMARK UNBOUND:                -0.690
REMARK  Name = 
REMARK  10 active torsions:
REMARK  status: ('A' for Active; 'I' for Inactive)
REMARK    1  A    between atoms: C_1  and  C_2
REMARK    2  A    between atoms: C_2  and  C_3
REMARK    3  A    between atoms: C_2  and  C_4
REMARK    4  A    between atoms: C_2  and  C_23
REMARK    5  A    between atoms: C_4  and  N_5
REMARK    6  A    between atoms: C_10  and  C_11
REMARK    7  A    between atoms: C_14  and  N_15
REMARK    8  A    between atoms: N_15  and  S_16
REMARK    9  A    between atoms: S_16  and  C_17
REMARK   10  A    between atoms: C_26  and  C_27
REMARK                            x       y       z     vdW  Elec       q    Type
REMARK                         _______ _______ _______ _____ _____    ______ ____
ROOT
ATOM      1  N   UNL     1      53.283  -0.961  18.524  0.00  0.00    +0.000 N 
ATOM      2  C   UNL     1      53.263   0.407  18.275  0.00  0.00    +0.000 A 
ATOM      3  N   UNL     1      54.400   1.113  18.336  0.00  0.00    +0.000 NA
ATOM      4  C   UNL     1      54.311   2.433  18.122  0.00  0.00    +0.000 A 
ATOM      5  C   UNL     1      53.135   3.072  17.826  0.00  0.00    +0.000 A 
ATOM      6  C   UNL     1      52.004   2.279  17.780  0.00  0.00    +0.000 A 
ATOM      7  N   UNL     1      52.068   0.952  18.027  0.00  0.00    +0.000 NA
ATOM      8  H   UNL     1      52.976  -1.057  19.490  0.00  0.00    +0.000 HD
ENDROOT
BRANCH   6   9
ATOM      9  C   UNL     1      50.666   2.805  17.425  0.00  0.00    +0.000 A 
ATOM     10  C   UNL     1      49.678   1.953  16.894  0.00  0.00    +0.000 A 
ATOM     11  C   UNL     1      48.427   2.438  16.495  0.00  0.00    +0.000 A 
ATOM     12  C   UNL     1      48.147   3.794  16.600  0.00  0.00    +0.000 A 
ATOM     13  C   UNL     1      49.077   4.655  17.174  0.00  0.00    +0.000 A 
ATOM     14  C   UNL     1      50.326   4.161  17.583  0.00  0.00    +0.000 A 
BRANCH  12  15
ATOM     15  N   UNL     1      46.952   4.298  16.017  0.00  0.00    +0.000 N 
ATOM     16  H   UNL     1      46.080   4.004  16.454  0.00  0.00    +0.000 HD
BRANCH  15  17
ATOM     17  S   UNL     1      46.801   4.396  14.347  0.00  0.00    +0.000 S 
ATOM     18  C   UNL     1      47.524   5.995  14.042  0.00  0.00    +0.000 C 
ATOM     19  O   UNL     1      47.588   3.376  13.701  0.00  0.00    +0.000 OA
ATOM     20  O   UNL     1      45.374   4.518  14.101  0.00  0.00    +0.000 OA
ENDBRANCH  15  17
ENDBRANCH  12  15
ENDBRANCH   6   9
BRANCH   1  21
ATOM     21  C   UNL     1      54.580  -1.589  18.290  0.00  0.00    +0.000 C 
BRANCH  21  23
ATOM     22  C   UNL     1      55.729  -3.637  19.236  0.00  0.00    +0.000 C 
ATOM     23  C   UNL     1      54.502  -3.142  18.429  0.00  0.00    +0.000 C 
ATOM     24  C   UNL     1      53.251  -3.473  19.278  0.00  0.00    +0.000 C 
BRANCH  23  25
ATOM     25  C   UNL     1      54.392  -3.805  17.035  0.00  0.00    +0.000 A 
ATOM     26  C   UNL     1      53.837  -5.080  16.864  0.00  0.00    +0.000 A 
ATOM     27  C   UNL     1      53.824  -5.711  15.617  0.00  0.00    +0.000 A 
ATOM     28  C   UNL     1      54.360  -5.075  14.498  0.00  0.00    +0.000 A 
ATOM     29  C   UNL     1      54.901  -3.794  14.635  0.00  0.00    +0.000 A 
ATOM     30  C   UNL     1      54.913  -3.166  15.891  0.00  0.00    +0.000 A 
BRANCH  28  31
ATOM     31  C   UNL     1      54.376  -5.823  13.215  0.00  0.00    +0.000 C 
ATOM     32  N   UNL     1      53.594  -6.940  13.122  0.00  0.00    +0.000 N 
ATOM     33  O   UNL     1      55.087  -5.477  12.279  0.00  0.00    +0.000 OA
ATOM     34  H   UNL     1      53.130  -7.362  13.913  0.00  0.00    +0.000 HD
ATOM     35  H   UNL     1      53.684  -7.482  12.273  0.00  0.00    +0.000 HD
ENDBRANCH  28  31
ENDBRANCH  23  25
ENDBRANCH  21  23
ENDBRANCH   1  21
TORSDOF 7
ENDMDL
MODEL 6
REMARK VINA RESULT:    -5.978      2.672      3.772
REMARK INTER + INTRA:          -9.115
REMARK INTER:                  -8.474
REMARK INTRA:                  -0.641
REMARK UNBOUND:                -0.690
REMARK  Name = 
REMARK  10 active torsions:
REMARK  status: ('A' for Active; 'I' for Inactive)
REMARK    1  A    between atoms: C_1  and  C_2
REMARK    2  A    between atoms: C_2  and  C_3
REMARK    3  A    between atoms: C_2  and  C_4
REMARK    4  A    between atoms: C_2  and  C_23
REMARK    5  A    between atoms: C_4  and  N_5
REMARK    6  A    between atoms: C_10  and  C_11
REMARK    7  A    between atoms: C_14  and  N_15
REMARK    8  A    between atoms: N_15  and  S_16
REMARK    9  A    between atoms: S_16  and  C_17
REMARK   10  A    between atoms: C_26  and  C_27
REMARK                            x       y       z     vdW  Elec       q    Type
REMARK                         _______ _______ _______ _____ _____    ______ ____
ROOT
ATOM      1  N   UNL     1      49.010   7.367  12.535  0.00  0.00    +0.000 N 
ATOM      2  C   UNL     1      49.794   7.857  13.573  0.00  0.00    +0.000 A 
ATOM      3  N   UNL     1      50.120   9.156  13.608  0.00  0.00    +0.000 NA
ATOM      4  C   UNL     1      50.908   9.560  14.614  0.00  0.00    +0.000 A 
ATOM      5  C   UNL     1      51.362   8.723  15.600  0.00  0.00    +0.000 A 
ATOM      6  C   UNL     1      50.984   7.398  15.498  0.00  0.00    +0.000 A 
ATOM      7  N   UNL     1      50.220   6.964  14.472  0.00  0.00    +0.000 NA
ATOM      8  H   UNL     1      49.668   6.944  11.885  0.00  0.00    +0.000 HD
ENDROOT
BRANCH   6   9
ATOM      9  C   UNL     1      51.350   6.378  16.507  0.00  0.00    +0.000 A 
ATOM     10  C   UNL     1      52.656   6.324  17.032  0.00  0.00    +0.000 A 
ATOM     11  C   UNL     1      53.042   5.332  17.941  0.00  0.00    +0.000 A 
ATOM     12  C   UNL     1      52.132   4.357  18.326  0.00  0.00    +0.000 A 
ATOM     13  C   UNL     1      50.817   4.413  17.872  0.00  0.00    +0.000 A 
ATOM     14  C   UNL     1      50.432   5.417  16.970  0.00  0.00    +0.000 A 
BRANCH  12  15
ATOM     15  N   UNL     1      52.589   3.251  19.095  0.00  0.00    +0.000 N 
ATOM     16  H   UNL     1      52.935   3.466  20.029  0.00  0.00    +0.000 HD
BRANCH  15  17
ATOM     17  S   UNL     1      53.488   2.031  18.371  0.00  0.00    +0.000 S 
ATOM     18  C   UNL     1      52.189   1.026  17.683  0.00  0.00    +0.000 C 
ATOM     19  O   UNL     1      54.307   2.560  17.309  0.00  0.00    +0.000 OA
ATOM     20  O   UNL     1      54.071   1.283  19.472  0.00  0.00    +0.000 OA
ENDBRANCH  15  17
ENDBRANCH  12  15
ENDBRANCH   6   9
BRANCH   1  21
ATOM     21  C   UNL     1      48.172   8.378  11.894  0.00  0.00    +0.000 C 
BRANCH  21  23
ATOM     22  C   UNL     1      46.686   8.716  13.915  0.00  0.00    +0.000 C 
ATOM     23  C   UNL     1      46.702   8.324  12.416  0.00  0.00    +0.000 C 
ATOM     24  C   UNL     1      45.899   9.413  11.665  0.00  0.00    +0.000 C 
BRANCH  23  25
ATOM     25  C   UNL     1      46.085   6.929  12.151  0.00  0.00    +0.000 A 
ATOM     26  C   UNL     1      45.894   6.438  10.854  0.00  0.00    +0.000 A 
ATOM     27  C   UNL     1      45.251   5.219  10.620  0.00  0.00    +0.000 A 
ATOM     28  C   UNL     1      44.790   4.448  11.687  0.00  0.00    +0.000 A 
ATOM     29  C   UNL     1      44.986   4.904  12.993  0.00  0.00    +0.000 A 
ATOM     30  C   UNL     1      45.629   6.130  13.221  0.00  0.00    +0.000 A 
BRANCH  28  31
ATOM     31  C   UNL     1      44.058   3.195  11.372  0.00  0.00    +0.000 C 
ATOM     32  N   UNL     1      43.782   2.345  12.406  0.00  0.00    +0.000 N 
ATOM     33  O   UNL     1      43.737   2.909  10.225  0.00  0.00    +0.000 OA
ATOM     34  H   UNL     1      44.173   2.448  13.331  0.00  0.00    +0.000 HD
ATOM     35  H   UNL     1      43.359   1.460  12.160  0.00  0.00    +0.000 HD
ENDBRANCH  28  31
ENDBRANCH  23  25
ENDBRANCH  21  23
ENDBRANCH   1  21
TORSDOF 7
ENDMDL
MODEL 7
REMARK VINA RESULT:    -5.570      3.458      5.900
REMARK INTER + INTRA:          -8.540
REMARK INTER:                  -7.835
REMARK INTRA:                  -0.705
REMARK UNBOUND:                -0.690
REMARK  Name = 
REMARK  10 active torsions:
REMARK  status: ('A' for Active; 'I' for Inactive)
REMARK    1  A    between atoms: C_1  and  C_2
REMARK    2  A    between atoms: C_2  and  C_3
REMARK    3  A    between atoms: C_2  and  C_4
REMARK    4  A    between atoms: C_2  and  C_23
REMARK    5  A    between atoms: C_4  and  N_5
REMARK    6  A    between atoms: C_10  and  C_11
REMARK    7  A    between atoms: C_14  and  N_15
REMARK    8  A    between atoms: N_15  and  S_16
REMARK    9  A    between atoms: S_16  and  C_17
REMARK   10  A    between atoms: C_26  and  C_27
REMARK                            x       y       z     vdW  Elec       q    Type
REMARK                         _______ _______ _______ _____ _____    ______ ____
ROOT
ATOM      1  N   UNL     1      49.775   7.351  17.383  0.00  0.00    +0.000 N 
ATOM      2  C   UNL     1      49.469   5.996  17.448  0.00  0.00    +0.000 A 
ATOM      3  N   UNL     1      48.189   5.600  17.456  0.00  0.00    +0.000 NA
ATOM      4  C   UNL     1      47.958   4.284  17.557  0.00  0.00    +0.000 A 
ATOM      5  C   UNL     1      48.955   3.346  17.627  0.00  0.00    +0.000 A 
ATOM      6  C   UNL     1      50.249   3.829  17.614  0.00  0.00    +0.000 A 
ATOM      7  N   UNL     1      50.502   5.155  17.548  0.00  0.00    +0.000 NA
ATOM      8  H   UNL     1      49.975   7.622  18.342  0.00  0.00    +0.000 HD
ENDROOT
BRANCH   6   9
ATOM      9  C   UNL     1      51.437   2.946  17.634  0.00  0.00    +0.000 A 
ATOM     10  C   UNL     1      51.327   1.588  17.277  0.00  0.00    +0.000 A 
ATOM     11  C   UNL     1      52.423   0.719  17.346  0.00  0.00    +0.000 A 
ATOM     12  C   UNL     1      53.650   1.189  17.795  0.00  0.00    +0.000 A 
ATOM     13  C   UNL     1      53.809   2.538  18.100  0.00  0.00    +0.000 A 
ATOM     14  C   UNL     1      52.710   3.407  18.019  0.00  0.00    +0.000 A 
BRANCH  12  15
ATOM     15  N   UNL     1      54.697   0.259  18.041  0.00  0.00    +0.000 N 
ATOM     16  H   UNL     1      55.122  -0.167  17.218  0.00  0.00    +0.000 HD
BRANCH  15  17
ATOM     17  S   UNL     1      54.576  -0.837  19.308  0.00  0.00    +0.000 S 
ATOM     18  C   UNL     1      55.665  -2.125  18.736  0.00  0.00    +0.000 C 
ATOM     19  O   UNL     1      55.094  -0.269  20.527  0.00  0.00    +0.000 OA
ATOM     20  O   UNL     1      53.222  -1.357  19.233  0.00  0.00    +0.000 OA
ENDBRANCH  15  17
ENDBRANCH  12  15
ENDBRANCH   6   9
BRANCH   1  21
ATOM     21  C   UNL     1      48.723   8.169  16.784  0.00  0.00    +0.000 C 
BRANCH  21  23
ATOM     22  C   UNL     1      49.111  10.232  15.369  0.00  0.00    +0.000 C 
ATOM     23  C   UNL     1      49.129   8.683  15.367  0.00  0.00    +0.000 C 
ATOM     24  C   UNL     1      50.596   8.258  15.118  0.00  0.00    +0.000 C 
BRANCH  23  25
ATOM     25  C   UNL     1      48.207   8.071  14.285  0.00  0.00    +0.000 A 
ATOM     26  C   UNL     1      47.195   8.817  13.666  0.00  0.00    +0.000 A 
ATOM     27  C   UNL     1      46.307   8.234  12.758  0.00  0.00    +0.000 A 
ATOM     28  C   UNL     1      46.415   6.882  12.433  0.00  0.00    +0.000 A 
ATOM     29  C   UNL     1      47.428   6.119  13.020  0.00  0.00    +0.000 A 
ATOM     30  C   UNL     1      48.316   6.710  13.932  0.00  0.00    +0.000 A 
BRANCH  28  31
ATOM     31  C   UNL     1      45.402   6.306  11.513  0.00  0.00    +0.000 C 
ATOM     32  N   UNL     1      45.850   5.745  10.349  0.00  0.00    +0.000 N 
ATOM     33  O   UNL     1      44.204   6.355  11.764  0.00  0.00    +0.000 OA
ATOM     34  H   UNL     1      46.798   5.835  10.016  0.00  0.00    +0.000 HD
ATOM     35  H   UNL     1      45.140   5.435   9.698  0.00  0.00    +0.000 HD
ENDBRANCH  28  31
ENDBRANCH  23  25
ENDBRANCH  21  23
ENDBRANCH   1  21
TORSDOF 7
ENDMDL
MODEL 8
REMARK VINA RESULT:    -5.489      3.929      5.491
REMARK INTER + INTRA:          -8.426
REMARK INTER:                  -7.642
REMARK INTRA:                  -0.784
REMARK UNBOUND:                -0.690
REMARK  Name = 
REMARK  10 active torsions:
REMARK  status: ('A' for Active; 'I' for Inactive)
REMARK    1  A    between atoms: C_1  and  C_2
REMARK    2  A    between atoms: C_2  and  C_3
REMARK    3  A    between atoms: C_2  and  C_4
REMARK    4  A    between atoms: C_2  and  C_23
REMARK    5  A    between atoms: C_4  and  N_5
REMARK    6  A    between atoms: C_10  and  C_11
REMARK    7  A    between atoms: C_14  and  N_15
REMARK    8  A    between atoms: N_15  and  S_16
REMARK    9  A    between atoms: S_16  and  C_17
REMARK   10  A    between atoms: C_26  and  C_27
REMARK                            x       y       z     vdW  Elec       q    Type
REMARK                         _______ _______ _______ _____ _____    ______ ____
ROOT
ATOM      1  N   UNL     1      46.479   4.907  14.571  0.00  0.00    +0.000 N 
ATOM      2  C   UNL     1      47.414   4.270  15.379  0.00  0.00    +0.000 A 
ATOM      3  N   UNL     1      47.573   2.942  15.295  0.00  0.00    +0.000 NA
ATOM      4  C   UNL     1      48.463   2.380  16.125  0.00  0.00    +0.000 A 
ATOM      5  C   UNL     1      49.218   3.096  17.018  0.00  0.00    +0.000 A 
ATOM      6  C   UNL     1      49.000   4.460  17.047  0.00  0.00    +0.000 A 
ATOM      7  N   UNL     1      48.082   5.040  16.243  0.00  0.00    +0.000 NA
ATOM      8  H   UNL     1      45.665   5.042  15.166  0.00  0.00    +0.000 HD
ENDROOT
BRANCH   6   9
ATOM      9  C   UNL     1      49.767   5.378  17.918  0.00  0.00    +0.000 A 
ATOM     10  C   UNL     1      51.069   5.046  18.341  0.00  0.00    +0.000 A 
ATOM     11  C   UNL     1      51.791   5.869  19.213  0.00  0.00    +0.000 A 
ATOM     12  C   UNL     1      51.214   7.036  19.697  0.00  0.00    +0.000 A 
ATOM     13  C   UNL     1      49.953   7.425  19.254  0.00  0.00    +0.000 A 
ATOM     14  C   UNL     1      49.238   6.601  18.372  0.00  0.00    +0.000 A 
BRANCH  12  15
ATOM     15  N   UNL     1      51.880   7.759  20.725  0.00  0.00    +0.000 N 
ATOM     16  H   UNL     1      51.454   7.719  21.650  0.00  0.00    +0.000 HD
BRANCH  15  17
ATOM     17  S   UNL     1      52.525   9.277  20.411  0.00  0.00    +0.000 S 
ATOM     18  C   UNL     1      52.898   9.125  18.676  0.00  0.00    +0.000 C 
ATOM     19  O   UNL     1      51.534  10.306  20.606  0.00  0.00    +0.000 OA
ATOM     20  O   UNL     1      53.793   9.306  21.120  0.00  0.00    +0.000 OA
ENDBRANCH  15  17
ENDBRANCH  12  15
ENDBRANCH   6   9
BRANCH   1  21
ATOM     21  C   UNL     1      46.156   4.179  13.347  0.00  0.00    +0.000 C 
BRANCH  21  23
ATOM     22  C   UNL     1      45.507   4.418  10.912  0.00  0.00    +0.000 C 
ATOM     23  C   UNL     1      45.439   5.094  12.305  0.00  0.00    +0.000 C 
ATOM     24  C   UNL     1      43.942   5.159  12.692  0.00  0.00    +0.000 C 
BRANCH  23  25
ATOM     25  C   UNL     1      46.054   6.514  12.316  0.00  0.00    +0.000 A 
ATOM     26  C   UNL     1      45.288   7.650  12.606  0.00  0.00    +0.000 A 
ATOM     27  C   UNL     1      45.829   8.937  12.524  0.00  0.00    +0.000 A 
ATOM     28  C   UNL     1      47.161   9.121  12.157  0.00  0.00    +0.000 A 
ATOM     29  C   UNL     1      47.954   8.004  11.882  0.00  0.00    +0.000 A 
ATOM     30  C   UNL     1      47.406   6.715  11.965  0.00  0.00    +0.000 A 
BRANCH  28  31
ATOM     31  C   UNL     1      47.659  10.514  12.023  0.00  0.00    +0.000 C 
ATOM     32  N   UNL     1      47.643  11.303  13.140  0.00  0.00    +0.000 N 
ATOM     33  O   UNL     1      48.040  10.960  10.948  0.00  0.00    +0.000 OA
ATOM     34  H   UNL     1      47.180  11.043  13.998  0.00  0.00    +0.000 HD
ATOM     35  H   UNL     1      47.905  12.271  13.009  0.00  0.00    +0.000 HD
ENDBRANCH  28  31
ENDBRANCH  23  25
ENDBRANCH  21  23
ENDBRANCH   1  21
TORSDOF 7
ENDMDL
MODEL 9
REMARK VINA RESULT:    -5.126     11.159     13.719
REMARK INTER + INTRA:          -7.914
REMARK INTER:                  -6.965
REMARK INTRA:                  -0.949
REMARK UNBOUND:                -0.690
REMARK  Name = 
REMARK  10 active torsions:
REMARK  status: ('A' for Active; 'I' for Inactive)
REMARK    1  A    between atoms: C_1  and  C_2
REMARK    2  A    between atoms: C_2  and  C_3
REMARK    3  A    between atoms: C_2  and  C_4
REMARK    4  A    between atoms: C_2  and  C_23
REMARK    5  A    between atoms: C_4  and  N_5
REMARK    6  A    between atoms: C_10  and  C_11
REMARK    7  A    between atoms: C_14  and  N_15
REMARK    8  A    between atoms: N_15  and  S_16
REMARK    9  A    between atoms: S_16  and  C_17
REMARK   10  A    between atoms: C_26  and  C_27
REMARK                            x       y       z     vdW  Elec       q    Type
REMARK                         _______ _______ _______ _____ _____    ______ ____
ROOT
ATOM      1  N   UNL     1      43.209  -4.663  17.853  0.00  0.00    +0.000 N 
ATOM      2  C   UNL     1      42.300  -4.273  16.875  0.00  0.00    +0.000 A 
ATOM      3  N   UNL     1      42.291  -4.892  15.687  0.00  0.00    +0.000 NA
ATOM      4  C   UNL     1      41.418  -4.447  14.774  0.00  0.00    +0.000 A 
ATOM      5  C   UNL     1      40.537  -3.423  15.008  0.00  0.00    +0.000 A 
ATOM      6  C   UNL     1      40.605  -2.832  16.255  0.00  0.00    +0.000 A 
ATOM      7  N   UNL     1      41.503  -3.244  17.178  0.00  0.00    +0.000 NA
ATOM      8  H   UNL     1      43.966  -3.987  17.794  0.00  0.00    +0.000 HD
ENDROOT
BRANCH   6   9
ATOM      9  C   UNL     1      39.692  -1.748  16.683  0.00  0.00    +0.000 A 
ATOM     10  C   UNL     1      38.895  -1.068  15.741  0.00  0.00    +0.000 A 
ATOM     11  C   UNL     1      38.069  -0.000  16.112  0.00  0.00    +0.000 A 
ATOM     12  C   UNL     1      38.042   0.425  17.434  0.00  0.00    +0.000 A 
ATOM     13  C   UNL     1      38.772  -0.260  18.400  0.00  0.00    +0.000 A 
ATOM     14  C   UNL     1      39.590  -1.338  18.025  0.00  0.00    +0.000 A 
BRANCH  12  15
ATOM     15  N   UNL     1      37.351   1.624  17.758  0.00  0.00    +0.000 N 
ATOM     16  H   UNL     1      36.334   1.583  17.716  0.00  0.00    +0.000 HD
BRANCH  15  17
ATOM     17  S   UNL     1      37.929   3.106  17.220  0.00  0.00    +0.000 S 
ATOM     18  C   UNL     1      37.506   4.148  18.601  0.00  0.00    +0.000 C 
ATOM     19  O   UNL     1      39.361   3.070  17.060  0.00  0.00    +0.000 OA
ATOM     20  O   UNL     1      37.056   3.478  16.120  0.00  0.00    +0.000 OA
ENDBRANCH  15  17
ENDBRANCH  12  15
ENDBRANCH   6   9
BRANCH   1  21
ATOM     21  C   UNL     1      43.682  -6.038  17.709  0.00  0.00    +0.000 C 
BRANCH  21  23
ATOM     22  C   UNL     1      44.502  -5.378  20.011  0.00  0.00    +0.000 C 
ATOM     23  C   UNL     1      44.581  -6.466  18.911  0.00  0.00    +0.000 C 
ATOM     24  C   UNL     1      43.969  -7.752  19.517  0.00  0.00    +0.000 C 
BRANCH  23  25
ATOM     25  C   UNL     1      46.028  -6.738  18.436  0.00  0.00    +0.000 A 
ATOM     26  C   UNL     1      46.753  -7.855  18.870  0.00  0.00    +0.000 A 
ATOM     27  C   UNL     1      48.091  -8.045  18.510  0.00  0.00    +0.000 A 
ATOM     28  C   UNL     1      48.739  -7.122  17.691  0.00  0.00    +0.000 A 
ATOM     29  C   UNL     1      48.034  -6.009  17.226  0.00  0.00    +0.000 A 
ATOM     30  C   UNL     1      46.692  -5.822  17.592  0.00  0.00    +0.000 A 
BRANCH  28  31
ATOM     31  C   UNL     1      50.178  -7.344  17.397  0.00  0.00    +0.000 C 
ATOM     32  N   UNL     1      50.692  -8.585  17.651  0.00  0.00    +0.000 N 
ATOM     33  O   UNL     1      50.894  -6.445  16.974  0.00  0.00    +0.000 OA
ATOM     34  H   UNL     1      50.194  -9.301  18.158  0.00  0.00    +0.000 HD
ATOM     35  H   UNL     1      51.690  -8.692  17.524  0.00  0.00    +0.000 HD
ENDBRANCH  28  31
ENDBRANCH  23  25
ENDBRANCH  21  23
ENDBRANCH   1  21
TORSDOF 7
ENDMDL
