MODEL 1
REMARK VINA RESULT:    -8.221      0.000      0.000
REMARK INTER + INTRA:         -11.183
REMARK INTER:                 -10.625
REMARK INTRA:                  -0.558
REMARK UNBOUND:                -0.558
REMARK  Name = 
REMARK  5 active torsions:
REMARK  status: ('A' for Active; 'I' for Inactive)
REMARK    1  A    between atoms: C_2  and  C_4
REMARK    2  A    between atoms: C_7  and  O_8
REMARK    3  A    between atoms: O_8  and  C_9
REMARK    4  A    between atoms: C_9  and  C_10
REMARK    5  A    between atoms: C_13  and  C_14
REMARK                            x       y       z     vdW  Elec       q    Type
REMARK                         _______ _______ _______ _____ _____    ______ ____
ROOT
ATOM      1  C   UNL     1      43.828   3.240  11.781  0.00  0.00    +0.000 C 
ENDROOT
BRANCH   1   2
ATOM      2  C   UNL     1      44.781   4.280  12.299  0.00  0.00    +0.000 A 
ATOM      3  C   UNL     1      44.467   5.630  12.267  0.00  0.00    +0.000 A 
ATOM      4  C   UNL     1      45.396   6.547  12.745  0.00  0.00    +0.000 A 
ATOM      5  C   UNL     1      46.609   6.086  13.242  0.00  0.00    +0.000 A 
ATOM      6  N   UNL     1      46.882   4.764  13.248  0.00  0.00    +0.000 NA
ATOM      7  N   UNL     1      45.968   3.857  12.781  0.00  0.00    +0.000 NA
BRANCH   5   8
ATOM      8  C   UNL     1      47.679   7.048  13.730  0.00  0.00    +0.000 C 
ATOM      9  C   UNL     1      47.209   8.514  13.821  0.00  0.00    +0.000 C 
ATOM     10  C   UNL     1      47.111   9.178  12.445  0.00  0.00    +0.000 C 
ATOM     11  N   UNL     1      48.368   9.092  11.701  0.00  0.00    +0.000 NA
ATOM     12  C   UNL     1      48.800   7.704  11.542  0.00  0.00    +0.000 C 
ATOM     13  C   UNL     1      48.967   7.001  12.888  0.00  0.00    +0.000 C 
ATOM     14  H   UNL     1      49.087   9.619  12.197  0.00  0.00    +0.000 HD
ENDBRANCH   5   8
ENDBRANCH   1   2
BRANCH   1  15
ATOM     15  O   UNL     1      43.475   3.563  10.435  0.00  0.00    +0.000 OA
BRANCH  15  19
ATOM     16  C   UNL     1      46.422   2.681   7.619  0.00  0.00    +0.000 A 
ATOM     17  C   UNL     1      46.012   4.012   7.762  0.00  0.00    +0.000 A 
ATOM     18  C   UNL     1      45.022   4.348   8.692  0.00  0.00    +0.000 A 
ATOM     19  C   UNL     1      44.434   3.358   9.482  0.00  0.00    +0.000 A 
ATOM     20  C   UNL     1      44.832   2.028   9.324  0.00  0.00    +0.000 A 
ATOM     21  C   UNL     1      45.816   1.686   8.393  0.00  0.00    +0.000 A 
BRANCH  16  23
ATOM     22  N   UNL     1      47.542   2.999   5.481  0.00  0.00    +0.000 N 
ATOM     23  C   UNL     1      47.473   2.288   6.647  0.00  0.00    +0.000 C 
ATOM     24  O   UNL     1      48.274   1.394   6.887  0.00  0.00    +0.000 OA
ATOM     25  H   UNL     1      48.330   2.793   4.879  0.00  0.00    +0.000 HD
ATOM     26  H   UNL     1      47.084   3.892   5.361  0.00  0.00    +0.000 HD
ENDBRANCH  16  23
ENDBRANCH  15  19
ENDBRANCH   1  15
TORSDOF 5
ENDMDL
MODEL 2
REMARK VINA RESULT:    -7.868      1.504      1.817
REMARK INTER + INTRA:         -10.726
REMARK INTER:                 -10.374
REMARK INTRA:                  -0.351
REMARK UNBOUND:                -0.558
REMARK  Name = 
REMARK  5 active torsions:
REMARK  status: ('A' for Active; 'I' for Inactive)
REMARK    1  A    between atoms: C_2  and  C_4
REMARK    2  A    between atoms: C_7  and  O_8
REMARK    3  A    between atoms: O_8  and  C_9
REMARK    4  A    between atoms: C_9  and  C_10
REMARK    5  A    between atoms: C_13  and  C_14
REMARK                            x       y       z     vdW  Elec       q    Type
REMARK                         _______ _______ _______ _____ _____    ______ ____
ROOT
ATOM      1  C   UNL     1      43.775   4.705  11.333  0.00  0.00    +0.000 C 
ENDROOT
BRANCH   1   2
ATOM      2  C   UNL     1      44.697   5.794  11.806  0.00  0.00    +0.000 A 
ATOM      3  C   UNL     1      44.491   7.119  11.455  0.00  0.00    +0.000 A 
ATOM      4  C   UNL     1      45.387   8.080  11.910  0.00  0.00    +0.000 A 
ATOM      5  C   UNL     1      46.459   7.686  12.702  0.00  0.00    +0.000 A 
ATOM      6  N   UNL     1      46.630   6.384  13.014  0.00  0.00    +0.000 NA
ATOM      7  N   UNL     1      45.748   5.434  12.571  0.00  0.00    +0.000 NA
BRANCH   5   8
ATOM      8  C   UNL     1      47.495   8.688  13.183  0.00  0.00    +0.000 C 
ATOM      9  C   UNL     1      48.512   9.105  12.101  0.00  0.00    +0.000 C 
ATOM     10  C   UNL     1      49.556   8.018  11.836  0.00  0.00    +0.000 C 
ATOM     11  N   UNL     1      50.250   7.611  13.059  0.00  0.00    +0.000 NA
ATOM     12  C   UNL     1      49.310   7.146  14.077  0.00  0.00    +0.000 C 
ATOM     13  C   UNL     1      48.271   8.211  14.424  0.00  0.00    +0.000 C 
ATOM     14  H   UNL     1      50.781   8.403  13.421  0.00  0.00    +0.000 HD
ENDBRANCH   5   8
ENDBRANCH   1   2
BRANCH   1  15
ATOM     15  O   UNL     1      43.698   4.749   9.906  0.00  0.00    +0.000 OA
BRANCH  15  19
ATOM     16  C   UNL     1      46.250   2.080   7.968  0.00  0.00    +0.000 A 
ATOM     17  C   UNL     1      46.373   3.445   7.686  0.00  0.00    +0.000 A 
ATOM     18  C   UNL     1      45.532   4.373   8.311  0.00  0.00    +0.000 A 
ATOM     19  C   UNL     1      44.562   3.942   9.220  0.00  0.00    +0.000 A 
ATOM     20  C   UNL     1      44.430   2.577   9.486  0.00  0.00    +0.000 A 
ATOM     21  C   UNL     1      45.263   1.646   8.860  0.00  0.00    +0.000 A 
BRANCH  16  23
ATOM     22  N   UNL     1      46.869  -0.246   7.603  0.00  0.00    +0.000 N 
ATOM     23  C   UNL     1      47.128   1.068   7.328  0.00  0.00    +0.000 C 
ATOM     24  O   UNL     1      48.023   1.385   6.556  0.00  0.00    +0.000 OA
ATOM     25  H   UNL     1      47.403  -0.925   7.075  0.00  0.00    +0.000 HD
ATOM     26  H   UNL     1      45.998  -0.554   8.013  0.00  0.00    +0.000 HD
ENDBRANCH  16  23
ENDBRANCH  15  19
ENDBRANCH   1  15
TORSDOF 5
ENDMDL
MODEL 3
REMARK VINA RESULT:    -7.724      2.384      3.414
REMARK INTER + INTRA:         -10.540
REMARK INTER:                 -10.040
REMARK INTRA:                  -0.499
REMARK UNBOUND:                -0.558
REMARK  Name = 
REMARK  5 active torsions:
REMARK  status: ('A' for Active; 'I' for Inactive)
REMARK    1  A    between atoms: C_2  and  C_4
REMARK    2  A    between atoms: C_7  and  O_8
REMARK    3  A    between atoms: O_8  and  C_9
REMARK    4  A    between atoms: C_9  and  C_10
REMARK    5  A    between atoms: C_13  and  C_14
REMARK                            x       y       z     vdW  Elec       q    Type
REMARK                         _______ _______ _______ _____ _____    ______ ____
ROOT
ATOM      1  C   UNL     1      44.228   4.649  11.480  0.00  0.00    +0.000 C 
ENDROOT
BRANCH   1   2
ATOM      2  C   UNL     1      45.265   4.595  12.567  0.00  0.00    +0.000 A 
ATOM      3  C   UNL     1      45.793   5.751  13.121  0.00  0.00    +0.000 A 
ATOM      4  C   UNL     1      46.761   5.638  14.113  0.00  0.00    +0.000 A 
ATOM      5  C   UNL     1      47.171   4.374  14.519  0.00  0.00    +0.000 A 
ATOM      6  N   UNL     1      46.639   3.272  13.948  0.00  0.00    +0.000 NA
ATOM      7  N   UNL     1      45.682   3.378  12.973  0.00  0.00    +0.000 NA
BRANCH   5   8
ATOM      8  C   UNL     1      48.262   4.195  15.561  0.00  0.00    +0.000 C 
ATOM      9  C   UNL     1      48.175   2.865  16.336  0.00  0.00    +0.000 C 
ATOM     10  C   UNL     1      47.055   2.873  17.380  0.00  0.00    +0.000 C 
ATOM     11  N   UNL     1      47.176   3.998  18.308  0.00  0.00    +0.000 NA
ATOM     12  C   UNL     1      47.192   5.276  17.600  0.00  0.00    +0.000 C 
ATOM     13  C   UNL     1      48.325   5.349  16.578  0.00  0.00    +0.000 C 
ATOM     14  H   UNL     1      48.037   3.895  18.847  0.00  0.00    +0.000 HD
ENDBRANCH   5   8
ENDBRANCH   1   2
BRANCH   1  15
ATOM     15  O   UNL     1      44.176   3.380  10.825  0.00  0.00    +0.000 OA
BRANCH  15  19
ATOM     16  C   UNL     1      46.520   2.692   7.445  0.00  0.00    +0.000 A 
ATOM     17  C   UNL     1      46.158   4.009   7.749  0.00  0.00    +0.000 A 
ATOM     18  C   UNL     1      45.367   4.281   8.871  0.00  0.00    +0.000 A 
ATOM     19  C   UNL     1      44.933   3.240   9.695  0.00  0.00    +0.000 A 
ATOM     20  C   UNL     1      45.280   1.924   9.378  0.00  0.00    +0.000 A 
ATOM     21  C   UNL     1      46.065   1.647   8.255  0.00  0.00    +0.000 A 
BRANCH  16  23
ATOM     22  N   UNL     1      47.342   3.249   5.222  0.00  0.00    +0.000 N 
ATOM     23  C   UNL     1      47.361   2.366   6.266  0.00  0.00    +0.000 C 
ATOM     24  O   UNL     1      48.076   1.372   6.237  0.00  0.00    +0.000 OA
ATOM     25  H   UNL     1      48.001   3.070   4.475  0.00  0.00    +0.000 HD
ATOM     26  H   UNL     1      46.981   4.188   5.312  0.00  0.00    +0.000 HD
ENDBRANCH  16  23
ENDBRANCH  15  19
ENDBRANCH   1  15
TORSDOF 5
ENDMDL
MODEL 4
REMARK VINA RESULT:    -7.093      4.364      8.343
REMARK INTER + INTRA:          -9.725
REMARK INTER:                  -9.280
REMARK INTRA:                  -0.445
REMARK UNBOUND:                -0.558
REMARK  Name = 
REMARK  5 active torsions:
REMARK  status: ('A' for Active; 'I' for Inactive)
REMARK    1  A    between atoms: C_2  and  C_4
REMARK    2  A    between atoms: C_7  and  O_8
REMARK    3  A    between atoms: O_8  and  C_9
REMARK    4  A    between atoms: C_9  and  C_10
REMARK    5  A    between atoms: C_13  and  C_14
REMARK                            x       y       z     vdW  Elec       q    Type
REMARK                         _______ _______ _______ _____ _____    ______ ____
ROOT
ATOM      1  C   UNL     1      46.568   5.019  14.283  0.00  0.00    +0.000 C 
ENDROOT
BRANCH   1   2
ATOM      2  C   UNL     1      46.023   4.630  12.938  0.00  0.00    +0.000 A 
ATOM      3  C   UNL     1      45.878   5.559  11.920  0.00  0.00    +0.000 A 
ATOM      4  C   UNL     1      45.352   5.143  10.701  0.00  0.00    +0.000 A 
ATOM      5  C   UNL     1      44.990   3.811  10.540  0.00  0.00    +0.000 A 
ATOM      6  N   UNL     1      45.138   2.939  11.559  0.00  0.00    +0.000 NA
ATOM      7  N   UNL     1      45.659   3.344  12.759  0.00  0.00    +0.000 NA
BRANCH   5   8
ATOM      8  C   UNL     1      44.364   3.315   9.247  0.00  0.00    +0.000 C 
ATOM      9  C   UNL     1      44.593   1.815   8.975  0.00  0.00    +0.000 C 
ATOM     10  C   UNL     1      46.019   1.522   8.502  0.00  0.00    +0.000 C 
ATOM     11  N   UNL     1      46.383   2.315   7.326  0.00  0.00    +0.000 NA
ATOM     12  C   UNL     1      46.239   3.747   7.582  0.00  0.00    +0.000 C 
ATOM     13  C   UNL     1      44.818   4.110   8.009  0.00  0.00    +0.000 C 
ATOM     14  H   UNL     1      45.786   2.045   6.544  0.00  0.00    +0.000 HD
ENDBRANCH   5   8
ENDBRANCH   1   2
BRANCH   1  15
ATOM     15  O   UNL     1      46.773   3.838  15.061  0.00  0.00    +0.000 OA
BRANCH  15  19
ATOM     16  C   UNL     1      49.050   4.496  18.493  0.00  0.00    +0.000 A 
ATOM     17  C   UNL     1      48.292   3.322  18.409  0.00  0.00    +0.000 A 
ATOM     18  C   UNL     1      47.510   3.067  17.277  0.00  0.00    +0.000 A 
ATOM     19  C   UNL     1      47.479   3.983  16.223  0.00  0.00    +0.000 A 
ATOM     20  C   UNL     1      48.222   5.163  16.317  0.00  0.00    +0.000 A 
ATOM     21  C   UNL     1      49.000   5.425  17.449  0.00  0.00    +0.000 A 
BRANCH  16  23
ATOM     22  N   UNL     1      51.175   4.318  19.666  0.00  0.00    +0.000 N 
ATOM     23  C   UNL     1      49.895   4.797  19.676  0.00  0.00    +0.000 C 
ATOM     24  O   UNL     1      49.484   5.478  20.607  0.00  0.00    +0.000 OA
ATOM     25  H   UNL     1      51.771   4.623  20.426  0.00  0.00    +0.000 HD
ATOM     26  H   UNL     1      51.625   3.987  18.824  0.00  0.00    +0.000 HD
ENDBRANCH  16  23
ENDBRANCH  15  19
ENDBRANCH   1  15
TORSDOF 5
ENDMDL
MODEL 5
REMARK VINA RESULT:    -6.832      5.221      7.982
REMARK INTER + INTRA:          -9.387
REMARK INTER:                  -8.944
REMARK INTRA:                  -0.443
REMARK UNBOUND:                -0.558
REMARK  Name = 
REMARK  5 active torsions:
REMARK  status: ('A' for Active; 'I' for Inactive)
REMARK    1  A    between atoms: C_2  and  C_4
REMARK    2  A    between atoms: C_7  and  O_8
REMARK    3  A    between atoms: O_8  and  C_9
REMARK    4  A    between atoms: C_9  and  C_10
REMARK    5  A    between atoms: C_13  and  C_14
REMARK                            x       y       z     vdW  Elec       q    Type
REMARK                         _______ _______ _______ _____ _____    ______ ____
ROOT
ATOM      1  C   UNL     1      48.514   5.894  15.926  0.00  0.00    +0.000 C 
ENDROOT
BRANCH   1   2
ATOM      2  C   UNL     1      47.610   5.515  14.787  0.00  0.00    +0.000 A 
ATOM      3  C   UNL     1      47.606   6.228  13.598  0.00  0.00    +0.000 A 
ATOM      4  C   UNL     1      46.736   5.839  12.585  0.00  0.00    +0.000 A 
ATOM      5  C   UNL     1      45.899   4.750  12.793  0.00  0.00    +0.000 A 
ATOM      6  N   UNL     1      45.927   4.086  13.968  0.00  0.00    +0.000 NA
ATOM      7  N   UNL     1      46.785   4.464  14.967  0.00  0.00    +0.000 NA
BRANCH   5   8
ATOM      8  C   UNL     1      44.894   4.315  11.739  0.00  0.00    +0.000 C 
ATOM      9  C   UNL     1      44.574   5.402  10.694  0.00  0.00    +0.000 C 
ATOM     10  C   UNL     1      43.652   6.490  11.252  0.00  0.00    +0.000 C 
ATOM     11  N   UNL     1      42.417   5.934  11.806  0.00  0.00    +0.000 NA
ATOM     12  C   UNL     1      42.695   4.949  12.849  0.00  0.00    +0.000 C 
ATOM     13  C   UNL     1      43.570   3.807  12.336  0.00  0.00    +0.000 C 
ATOM     14  H   UNL     1      41.882   5.496  11.055  0.00  0.00    +0.000 HD
ENDBRANCH   5   8
ENDBRANCH   1   2
BRANCH   1  15
ATOM     15  O   UNL     1      48.377   4.928  16.970  0.00  0.00    +0.000 OA
BRANCH  15  19
ATOM     16  C   UNL     1      51.448   2.171  17.571  0.00  0.00    +0.000 A 
ATOM     17  C   UNL     1      51.714   3.526  17.797  0.00  0.00    +0.000 A 
ATOM     18  C   UNL     1      50.712   4.483  17.601  0.00  0.00    +0.000 A 
ATOM     19  C   UNL     1      49.440   4.093  17.177  0.00  0.00    +0.000 A 
ATOM     20  C   UNL     1      49.183   2.741  16.934  0.00  0.00    +0.000 A 
ATOM     21  C   UNL     1      50.182   1.782  17.122  0.00  0.00    +0.000 A 
BRANCH  16  23
ATOM     22  N   UNL     1      52.082  -0.050  18.341  0.00  0.00    +0.000 N 
ATOM     23  C   UNL     1      52.484   1.127  17.773  0.00  0.00    +0.000 C 
ATOM     24  O   UNL     1      53.644   1.289  17.415  0.00  0.00    +0.000 OA
ATOM     25  H   UNL     1      52.774  -0.789  18.371  0.00  0.00    +0.000 HD
ATOM     26  H   UNL     1      51.110  -0.318  18.406  0.00  0.00    +0.000 HD
ENDBRANCH  16  23
ENDBRANCH  15  19
ENDBRANCH   1  15
TORSDOF 5
ENDMDL
MODEL 6
REMARK VINA RESULT:    -6.764      4.900      7.884
REMARK INTER + INTRA:          -9.300
REMARK INTER:                  -8.943
REMARK INTRA:                  -0.357
REMARK UNBOUND:                -0.558
REMARK  Name = 
REMARK  5 active torsions:
REMARK  status: ('A' for Active; 'I' for Inactive)
REMARK    1  A    between atoms: C_2  and  C_4
REMARK    2  A    between atoms: C_7  and  O_8
REMARK    3  A    between atoms: O_8  and  C_9
REMARK    4  A    between atoms: C_9  and  C_10
REMARK    5  A    between atoms: C_13  and  C_14
REMARK                            x       y       z     vdW  Elec       q    Type
REMARK                         _______ _______ _______ _____ _____    ______ ____
ROOT
ATOM      1  C   UNL     1      48.005   5.780  15.319  0.00  0.00    +0.000 C 
ENDROOT
BRANCH   1   2
ATOM      2  C   UNL     1      47.071   5.594  14.157  0.00  0.00    +0.000 A 
ATOM      3  C   UNL     1      47.268   6.260  12.956  0.00  0.00    +0.000 A 
ATOM      4  C   UNL     1      46.361   6.060  11.922  0.00  0.00    +0.000 A 
ATOM      5  C   UNL     1      45.286   5.201  12.119  0.00  0.00    +0.000 A 
ATOM      6  N   UNL     1      45.124   4.579  13.306  0.00  0.00    +0.000 NA
ATOM      7  N   UNL     1      46.017   4.770  14.327  0.00  0.00    +0.000 NA
BRANCH   5   8
ATOM      8  C   UNL     1      44.239   4.987  11.040  0.00  0.00    +0.000 C 
ATOM      9  C   UNL     1      43.027   4.152  11.500  0.00  0.00    +0.000 C 
ATOM     10  C   UNL     1      43.355   2.661  11.602  0.00  0.00    +0.000 C 
ATOM     11  N   UNL     1      43.895   2.129  10.351  0.00  0.00    +0.000 NA
ATOM     12  C   UNL     1      45.087   2.862   9.928  0.00  0.00    +0.000 C 
ATOM     13  C   UNL     1      44.809   4.354   9.757  0.00  0.00    +0.000 C 
ATOM     14  H   UNL     1      43.181   2.191   9.625  0.00  0.00    +0.000 HD
ENDBRANCH   5   8
ENDBRANCH   1   2
BRANCH   1  15
ATOM     15  O   UNL     1      47.692   4.816  16.326  0.00  0.00    +0.000 OA
BRANCH  15  19
ATOM     16  C   UNL     1      50.859   2.310  17.367  0.00  0.00    +0.000 A 
ATOM     17  C   UNL     1      49.707   1.737  16.816  0.00  0.00    +0.000 A 
ATOM     18  C   UNL     1      48.620   2.542  16.459  0.00  0.00    +0.000 A 
ATOM     19  C   UNL     1      48.677   3.925  16.651  0.00  0.00    +0.000 A 
ATOM     20  C   UNL     1      49.820   4.493  17.218  0.00  0.00    +0.000 A 
ATOM     21  C   UNL     1      50.906   3.691  17.582  0.00  0.00    +0.000 A 
BRANCH  16  23
ATOM     22  N   UNL     1      51.795   0.189  18.110  0.00  0.00    +0.000 N 
ATOM     23  C   UNL     1      52.033   1.488  17.752  0.00  0.00    +0.000 C 
ATOM     24  O   UNL     1      53.173   1.932  17.717  0.00  0.00    +0.000 OA
ATOM     25  H   UNL     1      52.613  -0.387  18.263  0.00  0.00    +0.000 HD
ATOM     26  H   UNL     1      50.925  -0.280  17.903  0.00  0.00    +0.000 HD
ENDBRANCH  16  23
ENDBRANCH  15  19
ENDBRANCH   1  15
TORSDOF 5
ENDMDL
MODEL 7
REMARK VINA RESULT:    -6.491      6.131      8.415
REMARK INTER + INTRA:          -8.946
REMARK INTER:                  -8.469
REMARK INTRA:                  -0.477
REMARK UNBOUND:                -0.558
REMARK  Name = 
REMARK  5 active torsions:
REMARK  status: ('A' for Active; 'I' for Inactive)
REMARK    1  A    between atoms: C_2  and  C_4
REMARK    2  A    between atoms: C_7  and  O_8
REMARK    3  A    between atoms: O_8  and  C_9
REMARK    4  A    between atoms: C_9  and  C_10
REMARK    5  A    between atoms: C_13  and  C_14
REMARK                            x       y       z     vdW  Elec       q    Type
REMARK                         _______ _______ _______ _____ _____    ______ ____
ROOT
ATOM      1  C   UNL     1      48.908   4.857  17.828  0.00  0.00    +0.000 C 
ENDROOT
BRANCH   1   2
ATOM      2  C   UNL     1      48.309   5.029  16.460  0.00  0.00    +0.000 A 
ATOM      3  C   UNL     1      47.314   4.183  15.995  0.00  0.00    +0.000 A 
ATOM      4  C   UNL     1      46.809   4.382  14.715  0.00  0.00    +0.000 A 
ATOM      5  C   UNL     1      47.315   5.419  13.941  0.00  0.00    +0.000 A 
ATOM      6  N   UNL     1      48.290   6.216  14.426  0.00  0.00    +0.000 NA
ATOM      7  N   UNL     1      48.788   6.026  15.689  0.00  0.00    +0.000 NA
BRANCH   5   8
ATOM      8  C   UNL     1      46.835   5.648  12.517  0.00  0.00    +0.000 C 
ATOM      9  C   UNL     1      46.833   7.128  12.087  0.00  0.00    +0.000 C 
ATOM     10  C   UNL     1      45.668   7.909  12.701  0.00  0.00    +0.000 C 
ATOM     11  N   UNL     1      44.375   7.291  12.406  0.00  0.00    +0.000 NA
ATOM     12  C   UNL     1      44.328   5.905  12.866  0.00  0.00    +0.000 C 
ATOM     13  C   UNL     1      45.438   5.059  12.246  0.00  0.00    +0.000 C 
ATOM     14  H   UNL     1      44.211   7.322  11.399  0.00  0.00    +0.000 HD
ENDBRANCH   5   8
ENDBRANCH   1   2
BRANCH   1  15
ATOM     15  O   UNL     1      50.332   4.920  17.723  0.00  0.00    +0.000 OA
BRANCH  15  19
ATOM     16  C   UNL     1      52.603   1.423  17.778  0.00  0.00    +0.000 A 
ATOM     17  C   UNL     1      51.266   1.344  17.374  0.00  0.00    +0.000 A 
ATOM     18  C   UNL     1      50.468   2.493  17.347  0.00  0.00    +0.000 A 
ATOM     19  C   UNL     1      51.001   3.728  17.725  0.00  0.00    +0.000 A 
ATOM     20  C   UNL     1      52.332   3.801  18.146  0.00  0.00    +0.000 A 
ATOM     21  C   UNL     1      53.131   2.655  18.180  0.00  0.00    +0.000 A 
BRANCH  16  23
ATOM     22  N   UNL     1      53.872  -0.297  16.613  0.00  0.00    +0.000 N 
ATOM     23  C   UNL     1      53.480   0.226  17.814  0.00  0.00    +0.000 C 
ATOM     24  O   UNL     1      53.873  -0.256  18.868  0.00  0.00    +0.000 OA
ATOM     25  H   UNL     1      54.556  -1.043  16.653  0.00  0.00    +0.000 HD
ATOM     26  H   UNL     1      53.790   0.214  15.745  0.00  0.00    +0.000 HD
ENDBRANCH  16  23
ENDBRANCH  15  19
ENDBRANCH   1  15
TORSDOF 5
ENDMDL
MODEL 8
REMARK VINA RESULT:    -6.389      3.763      5.182
REMARK INTER + INTRA:          -8.815
REMARK INTER:                  -8.430
REMARK INTRA:                  -0.385
REMARK UNBOUND:                -0.558
REMARK  Name = 
REMARK  5 active torsions:
REMARK  status: ('A' for Active; 'I' for Inactive)
REMARK    1  A    between atoms: C_2  and  C_4
REMARK    2  A    between atoms: C_7  and  O_8
REMARK    3  A    between atoms: O_8  and  C_9
REMARK    4  A    between atoms: C_9  and  C_10
REMARK    5  A    between atoms: C_13  and  C_14
REMARK                            x       y       z     vdW  Elec       q    Type
REMARK                         _______ _______ _______ _____ _____    ______ ____
ROOT
ATOM      1  C   UNL     1      47.531   6.785  13.131  0.00  0.00    +0.000 C 
ENDROOT
BRANCH   1   2
ATOM      2  C   UNL     1      47.966   6.248  14.465  0.00  0.00    +0.000 A 
ATOM      3  C   UNL     1      48.737   7.005  15.333  0.00  0.00    +0.000 A 
ATOM      4  C   UNL     1      49.123   6.448  16.548  0.00  0.00    +0.000 A 
ATOM      5  C   UNL     1      48.724   5.154  16.857  0.00  0.00    +0.000 A 
ATOM      6  N   UNL     1      47.981   4.445  15.981  0.00  0.00    +0.000 NA
ATOM      7  N   UNL     1      47.596   4.991  14.785  0.00  0.00    +0.000 NA
BRANCH   5   8
ATOM      8  C   UNL     1      49.161   4.481  18.147  0.00  0.00    +0.000 C 
ATOM      9  C   UNL     1      50.602   4.822  18.575  0.00  0.00    +0.000 C 
ATOM     10  C   UNL     1      51.647   4.087  17.733  0.00  0.00    +0.000 C 
ATOM     11  N   UNL     1      51.442   2.638  17.743  0.00  0.00    +0.000 NA
ATOM     12  C   UNL     1      50.103   2.284  17.275  0.00  0.00    +0.000 C 
ATOM     13  C   UNL     1      49.012   2.948  18.113  0.00  0.00    +0.000 C 
ATOM     14  H   UNL     1      51.576   2.288  18.692  0.00  0.00    +0.000 HD
ENDBRANCH   5   8
ENDBRANCH   1   2
BRANCH   1  15
ATOM     15  O   UNL     1      46.135   6.528  12.959  0.00  0.00    +0.000 OA
BRANCH  15  19
ATOM     16  C   UNL     1      45.019   3.880   9.937  0.00  0.00    +0.000 A 
ATOM     17  C   UNL     1      45.546   5.124   9.573  0.00  0.00    +0.000 A 
ATOM     18  C   UNL     1      45.928   6.043  10.557  0.00  0.00    +0.000 A 
ATOM     19  C   UNL     1      45.783   5.726  11.909  0.00  0.00    +0.000 A 
ATOM     20  C   UNL     1      45.239   4.490  12.270  0.00  0.00    +0.000 A 
ATOM     21  C   UNL     1      44.851   3.571  11.291  0.00  0.00    +0.000 A 
BRANCH  16  23
ATOM     22  N   UNL     1      44.368   3.336   7.655  0.00  0.00    +0.000 N 
ATOM     23  C   UNL     1      44.608   2.879   8.921  0.00  0.00    +0.000 C 
ATOM     24  O   UNL     1      44.524   1.687   9.186  0.00  0.00    +0.000 OA
ATOM     25  H   UNL     1      44.197   2.629   6.951  0.00  0.00    +0.000 HD
ATOM     26  H   UNL     1      44.675   4.246   7.339  0.00  0.00    +0.000 HD
ENDBRANCH  16  23
ENDBRANCH  15  19
ENDBRANCH   1  15
TORSDOF 5
ENDMDL
MODEL 9
REMARK VINA RESULT:    -6.165      3.493      5.635
REMARK INTER + INTRA:          -8.525
REMARK INTER:                  -7.989
REMARK INTRA:                  -0.536
REMARK UNBOUND:                -0.558
REMARK  Name = 
REMARK  5 active torsions:
REMARK  status: ('A' for Active; 'I' for Inactive)
REMARK    1  A    between atoms: C_2  and  C_4
REMARK    2  A    between atoms: C_7  and  O_8
REMARK    3  A    between atoms: O_8  and  C_9
REMARK    4  A    between atoms: C_9  and  C_10
REMARK    5  A    between atoms: C_13  and  C_14
REMARK                            x       y       z     vdW  Elec       q    Type
REMARK                         _______ _______ _______ _____ _____    ______ ____
ROOT
ATOM      1  C   UNL     1      47.988   7.700  12.543  0.00  0.00    +0.000 C 
ENDROOT
BRANCH   1   2
ATOM      2  C   UNL     1      48.381   7.478  13.977  0.00  0.00    +0.000 A 
ATOM      3  C   UNL     1      48.336   8.506  14.906  0.00  0.00    +0.000 A 
ATOM      4  C   UNL     1      48.727   8.244  16.215  0.00  0.00    +0.000 A 
ATOM      5  C   UNL     1      49.149   6.964  16.552  0.00  0.00    +0.000 A 
ATOM      6  N   UNL     1      49.188   5.993  15.616  0.00  0.00    +0.000 NA
ATOM      7  N   UNL     1      48.800   6.245  14.326  0.00  0.00    +0.000 NA
BRANCH   5   8
ATOM      8  C   UNL     1      49.636   6.638  17.955  0.00  0.00    +0.000 C 
ATOM      9  C   UNL     1      49.656   5.130  18.275  0.00  0.00    +0.000 C 
ATOM     10  C   UNL     1      48.254   4.573  18.535  0.00  0.00    +0.000 C 
ATOM     11  N   UNL     1      47.556   5.309  19.590  0.00  0.00    +0.000 NA
ATOM     12  C   UNL     1      47.463   6.734  19.275  0.00  0.00    +0.000 C 
ATOM     13  C   UNL     1      48.839   7.360  19.057  0.00  0.00    +0.000 C 
ATOM     14  H   UNL     1      48.055   5.185  20.471  0.00  0.00    +0.000 HD
ENDBRANCH   5   8
ENDBRANCH   1   2
BRANCH   1  15
ATOM     15  O   UNL     1      46.562   7.720  12.450  0.00  0.00    +0.000 OA
BRANCH  15  19
ATOM     16  C   UNL     1      44.662   4.157  11.407  0.00  0.00    +0.000 A 
ATOM     17  C   UNL     1      44.892   4.419  12.763  0.00  0.00    +0.000 A 
ATOM     18  C   UNL     1      45.531   5.601  13.154  0.00  0.00    +0.000 A 
ATOM     19  C   UNL     1      45.947   6.526  12.194  0.00  0.00    +0.000 A 
ATOM     20  C   UNL     1      45.733   6.253  10.840  0.00  0.00    +0.000 A 
ATOM     21  C   UNL     1      45.099   5.072  10.444  0.00  0.00    +0.000 A 
BRANCH  16  23
ATOM     22  N   UNL     1      44.596   2.189   9.975  0.00  0.00    +0.000 N 
ATOM     23  C   UNL     1      43.981   2.917  10.956  0.00  0.00    +0.000 C 
ATOM     24  O   UNL     1      42.935   2.533  11.462  0.00  0.00    +0.000 OA
ATOM     25  H   UNL     1      44.178   1.294   9.756  0.00  0.00    +0.000 HD
ATOM     26  H   UNL     1      45.565   2.326   9.724  0.00  0.00    +0.000 HD
ENDBRANCH  16  23
ENDBRANCH  15  19
ENDBRANCH   1  15
TORSDOF 5
ENDMDL
