MODEL 1
REMARK VINA RESULT:    -7.411      0.000      0.000
REMARK INTER + INTRA:          -9.028
REMARK INTER:                  -8.711
REMARK INTRA:                  -0.318
REMARK UNBOUND:                -0.318
REMARK  Name = 
REMARK  5 active torsions:
REMARK  status: ('A' for Active; 'I' for Inactive)
REMARK    1  A    between atoms: C_1  and  C_2
REMARK    2  A    between atoms: C_5  and  C_6
REMARK    3  A    between atoms: C_6  and  C_7
REMARK    4  A    between atoms: C_6  and  N_8
REMARK    5  A    between atoms: C_12  and  C_13
REMARK                            x       y       z     vdW  Elec       q    Type
REMARK                         _______ _______ _______ _____ _____    ______ ____
ROOT
ATOM      1  N   UNL     1      43.819   4.929   9.887  0.00  0.00    +0.000 N 
ATOM      2  C   UNL     1      44.588   3.929   9.276  0.00  0.00    +0.000 A 
ATOM      3  C   UNL     1      44.851   4.048   7.913  0.00  0.00    +0.000 A 
ATOM      4  C   UNL     1      45.612   3.073   7.265  0.00  0.00    +0.000 A 
ATOM      5  C   UNL     1      46.106   1.989   7.988  0.00  0.00    +0.000 A 
ATOM      6  C   UNL     1      45.785   1.939   9.334  0.00  0.00    +0.000 A 
ATOM      7  N   UNL     1      45.038   2.872   9.982  0.00  0.00    +0.000 NA
ATOM      8  H   UNL     1      44.259   5.828   9.708  0.00  0.00    +0.000 HD
ENDROOT
BRANCH   5   9
ATOM      9  C   UNL     1      46.926   0.966   7.293  0.00  0.00    +0.000 C 
ATOM     10  N   UNL     1      46.746  -0.354   7.600  0.00  0.00    +0.000 N 
ATOM     11  O   UNL     1      47.764   1.288   6.459  0.00  0.00    +0.000 OA
ATOM     12  H   UNL     1      46.106  -0.727   8.284  0.00  0.00    +0.000 HD
ATOM     13  H   UNL     1      47.337  -1.014   7.108  0.00  0.00    +0.000 HD
ENDBRANCH   5   9
BRANCH   1  14
ATOM     14  C   UNL     1      43.524   4.756  11.313  0.00  0.00    +0.000 C 
ATOM     15  C   UNL     1      42.275   5.558  11.691  0.00  0.00    +0.000 C 
BRANCH  14  20
ATOM     16  C   UNL     1      48.180   6.457  14.417  0.00  0.00    +0.000 C 
ATOM     17  C   UNL     1      46.978   6.026  13.633  0.00  0.00    +0.000 A 
ATOM     18  C   UNL     1      46.328   4.820  13.917  0.00  0.00    +0.000 A 
ATOM     19  C   UNL     1      45.218   4.421  13.168  0.00  0.00    +0.000 A 
ATOM     20  C   UNL     1      44.731   5.219  12.121  0.00  0.00    +0.000 A 
ATOM     21  C   UNL     1      45.388   6.427  11.842  0.00  0.00    +0.000 A 
ATOM     22  C   UNL     1      46.498   6.827  12.592  0.00  0.00    +0.000 A 
ENDBRANCH  14  20
ENDBRANCH   1  14
TORSDOF 3
ENDMDL
MODEL 2
REMARK VINA RESULT:    -7.380      3.495      6.930
REMARK INTER + INTRA:          -8.992
REMARK INTER:                  -8.550
REMARK INTRA:                  -0.442
REMARK UNBOUND:                -0.318
REMARK  Name = 
REMARK  5 active torsions:
REMARK  status: ('A' for Active; 'I' for Inactive)
REMARK    1  A    between atoms: C_1  and  C_2
REMARK    2  A    between atoms: C_5  and  C_6
REMARK    3  A    between atoms: C_6  and  C_7
REMARK    4  A    between atoms: C_6  and  N_8
REMARK    5  A    between atoms: C_12  and  C_13
REMARK                            x       y       z     vdW  Elec       q    Type
REMARK                         _______ _______ _______ _____ _____    ______ ____
ROOT
ATOM      1  N   UNL     1      45.121   4.583  11.756  0.00  0.00    +0.000 N 
ATOM      2  C   UNL     1      45.137   5.982  11.840  0.00  0.00    +0.000 A 
ATOM      3  C   UNL     1      45.982   6.570  12.779  0.00  0.00    +0.000 A 
ATOM      4  C   UNL     1      46.029   7.961  12.897  0.00  0.00    +0.000 A 
ATOM      5  C   UNL     1      45.232   8.750  12.070  0.00  0.00    +0.000 A 
ATOM      6  C   UNL     1      44.410   8.086  11.176  0.00  0.00    +0.000 A 
ATOM      7  N   UNL     1      44.342   6.734  11.052  0.00  0.00    +0.000 NA
ATOM      8  H   UNL     1      46.072   4.258  11.601  0.00  0.00    +0.000 HD
ENDROOT
BRANCH   5   9
ATOM      9  C   UNL     1      45.299  10.228  12.194  0.00  0.00    +0.000 C 
ATOM     10  N   UNL     1      46.506  10.822  12.440  0.00  0.00    +0.000 N 
ATOM     11  O   UNL     1      44.291  10.917  12.088  0.00  0.00    +0.000 OA
ATOM     12  H   UNL     1      47.388  10.353  12.568  0.00  0.00    +0.000 HD
ATOM     13  H   UNL     1      46.499  11.831  12.527  0.00  0.00    +0.000 HD
ENDBRANCH   5   9
BRANCH   1  14
ATOM     14  C   UNL     1      44.193   3.991  10.786  0.00  0.00    +0.000 C 
ATOM     15  C   UNL     1      43.404   2.854  11.442  0.00  0.00    +0.000 C 
BRANCH  14  20
ATOM     16  C   UNL     1      47.312   2.087   6.219  0.00  0.00    +0.000 C 
ATOM     17  C   UNL     1      46.500   2.578   7.380  0.00  0.00    +0.000 A 
ATOM     18  C   UNL     1      46.300   3.945   7.591  0.00  0.00    +0.000 A 
ATOM     19  C   UNL     1      45.555   4.391   8.687  0.00  0.00    +0.000 A 
ATOM     20  C   UNL     1      44.993   3.479   9.593  0.00  0.00    +0.000 A 
ATOM     21  C   UNL     1      45.199   2.108   9.375  0.00  0.00    +0.000 A 
ATOM     22  C   UNL     1      45.943   1.663   8.279  0.00  0.00    +0.000 A 
ENDBRANCH  14  20
ENDBRANCH   1  14
TORSDOF 3
ENDMDL
MODEL 3
REMARK VINA RESULT:    -7.281      3.334      6.833
REMARK INTER + INTRA:          -8.876
REMARK INTER:                  -8.400
REMARK INTRA:                  -0.476
REMARK UNBOUND:                -0.318
REMARK  Name = 
REMARK  5 active torsions:
REMARK  status: ('A' for Active; 'I' for Inactive)
REMARK    1  A    between atoms: C_1  and  C_2
REMARK    2  A    between atoms: C_5  and  C_6
REMARK    3  A    between atoms: C_6  and  C_7
REMARK    4  A    between atoms: C_6  and  N_8
REMARK    5  A    between atoms: C_12  and  C_13
REMARK                            x       y       z     vdW  Elec       q    Type
REMARK                         _______ _______ _______ _____ _____    ______ ____
ROOT
ATOM      1  N   UNL     1      45.507   3.823  12.094  0.00  0.00    +0.000 N 
ATOM      2  C   UNL     1      45.996   5.067  12.515  0.00  0.00    +0.000 A 
ATOM      3  C   UNL     1      46.961   5.083  13.520  0.00  0.00    +0.000 A 
ATOM      4  C   UNL     1      47.475   6.301  13.970  0.00  0.00    +0.000 A 
ATOM      5  C   UNL     1      47.021   7.492  13.406  0.00  0.00    +0.000 A 
ATOM      6  C   UNL     1      46.050   7.387  12.424  0.00  0.00    +0.000 A 
ATOM      7  N   UNL     1      45.530   6.213  11.980  0.00  0.00    +0.000 NA
ATOM      8  H   UNL     1      46.295   3.245  11.812  0.00  0.00    +0.000 HD
ENDROOT
BRANCH   5   9
ATOM      9  C   UNL     1      47.583   8.781  13.881  0.00  0.00    +0.000 C 
ATOM     10  N   UNL     1      47.526   9.083  15.213  0.00  0.00    +0.000 N 
ATOM     11  O   UNL     1      48.087   9.577  13.097  0.00  0.00    +0.000 OA
ATOM     12  H   UNL     1      47.114   8.516  15.937  0.00  0.00    +0.000 HD
ATOM     13  H   UNL     1      47.913   9.979  15.487  0.00  0.00    +0.000 HD
ENDBRANCH   5   9
BRANCH   1  14
ATOM     14  C   UNL     1      44.463   3.838  11.064  0.00  0.00    +0.000 C 
ATOM     15  C   UNL     1      43.359   2.840  11.421  0.00  0.00    +0.000 C 
BRANCH  14  20
ATOM     16  C   UNL     1      46.943   2.561   5.922  0.00  0.00    +0.000 C 
ATOM     17  C   UNL     1      46.294   2.892   7.233  0.00  0.00    +0.000 A 
ATOM     18  C   UNL     1      46.113   4.220   7.631  0.00  0.00    +0.000 A 
ATOM     19  C   UNL     1      45.522   4.515   8.863  0.00  0.00    +0.000 A 
ATOM     20  C   UNL     1      45.097   3.489   9.721  0.00  0.00    +0.000 A 
ATOM     21  C   UNL     1      45.283   2.159   9.315  0.00  0.00    +0.000 A 
ATOM     22  C   UNL     1      45.873   1.864   8.083  0.00  0.00    +0.000 A 
ENDBRANCH  14  20
ENDBRANCH   1  14
TORSDOF 3
ENDMDL
MODEL 4
REMARK VINA RESULT:    -7.149      2.950      6.175
REMARK INTER + INTRA:          -8.720
REMARK INTER:                  -9.592
REMARK INTRA:                   0.872
REMARK UNBOUND:                -0.318
REMARK  Name = 
REMARK  5 active torsions:
REMARK  status: ('A' for Active; 'I' for Inactive)
REMARK    1  A    between atoms: C_1  and  C_2
REMARK    2  A    between atoms: C_5  and  C_6
REMARK    3  A    between atoms: C_6  and  C_7
REMARK    4  A    between atoms: C_6  and  N_8
REMARK    5  A    between atoms: C_12  and  C_13
REMARK                            x       y       z     vdW  Elec       q    Type
REMARK                         _______ _______ _______ _____ _____    ______ ____
ROOT
ATOM      1  N   UNL     1      44.193   5.526  10.588  0.00  0.00    +0.000 N 
ATOM      2  C   UNL     1      45.115   5.540  11.644  0.00  0.00    +0.000 A 
ATOM      3  C   UNL     1      45.645   6.768  12.031  0.00  0.00    +0.000 A 
ATOM      4  C   UNL     1      46.568   6.827  13.078  0.00  0.00    +0.000 A 
ATOM      5  C   UNL     1      46.949   5.655  13.729  0.00  0.00    +0.000 A 
ATOM      6  C   UNL     1      46.386   4.476  13.271  0.00  0.00    +0.000 A 
ATOM      7  N   UNL     1      45.494   4.396  12.248  0.00  0.00    +0.000 NA
ATOM      8  H   UNL     1      43.433   6.162  10.816  0.00  0.00    +0.000 HD
ENDROOT
BRANCH   5   9
ATOM      9  C   UNL     1      47.919   5.730  14.849  0.00  0.00    +0.000 C 
ATOM     10  N   UNL     1      47.594   5.168  16.052  0.00  0.00    +0.000 N 
ATOM     11  O   UNL     1      48.999   6.294  14.713  0.00  0.00    +0.000 OA
ATOM     12  H   UNL     1      46.729   4.704  16.281  0.00  0.00    +0.000 HD
ATOM     13  H   UNL     1      48.283   5.255  16.789  0.00  0.00    +0.000 HD
ENDBRANCH   5   9
BRANCH   1  14
ATOM     14  C   UNL     1      43.682   4.214  10.175  0.00  0.00    +0.000 C 
ATOM     15  C   UNL     1      43.412   3.345  11.406  0.00  0.00    +0.000 C 
BRANCH  14  20
ATOM     16  C   UNL     1      47.672   1.751   6.678  0.00  0.00    +0.000 C 
ATOM     17  C   UNL     1      46.640   2.384   7.562  0.00  0.00    +0.000 A 
ATOM     18  C   UNL     1      46.426   3.765   7.544  0.00  0.00    +0.000 A 
ATOM     19  C   UNL     1      45.473   4.345   8.385  0.00  0.00    +0.000 A 
ATOM     20  C   UNL     1      44.710   3.556   9.261  0.00  0.00    +0.000 A 
ATOM     21  C   UNL     1      44.931   2.170   9.274  0.00  0.00    +0.000 A 
ATOM     22  C   UNL     1      45.883   1.590   8.432  0.00  0.00    +0.000 A 
ENDBRANCH  14  20
ENDBRANCH   1  14
TORSDOF 3
ENDMDL
MODEL 5
REMARK VINA RESULT:    -6.431      4.280      6.433
REMARK INTER + INTRA:          -7.876
REMARK INTER:                  -7.393
REMARK INTRA:                  -0.483
REMARK UNBOUND:                -0.318
REMARK  Name = 
REMARK  5 active torsions:
REMARK  status: ('A' for Active; 'I' for Inactive)
REMARK    1  A    between atoms: C_1  and  C_2
REMARK    2  A    between atoms: C_5  and  C_6
REMARK    3  A    between atoms: C_6  and  C_7
REMARK    4  A    between atoms: C_6  and  N_8
REMARK    5  A    between atoms: C_12  and  C_13
REMARK                            x       y       z     vdW  Elec       q    Type
REMARK                         _______ _______ _______ _____ _____    ______ ____
ROOT
ATOM      1  N   UNL     1      47.820   5.382  15.761  0.00  0.00    +0.000 N 
ATOM      2  C   UNL     1      47.126   5.170  14.562  0.00  0.00    +0.000 A 
ATOM      3  C   UNL     1      47.236   6.137  13.565  0.00  0.00    +0.000 A 
ATOM      4  C   UNL     1      46.561   5.966  12.354  0.00  0.00    +0.000 A 
ATOM      5  C   UNL     1      45.784   4.827  12.153  0.00  0.00    +0.000 A 
ATOM      6  C   UNL     1      45.716   3.925  13.200  0.00  0.00    +0.000 A 
ATOM      7  N   UNL     1      46.357   4.076  14.389  0.00  0.00    +0.000 NA
ATOM      8  H   UNL     1      48.802   5.529  15.544  0.00  0.00    +0.000 HD
ENDROOT
BRANCH   5   9
ATOM      9  C   UNL     1      45.081   4.648  10.858  0.00  0.00    +0.000 C 
ATOM     10  N   UNL     1      45.126   5.652   9.931  0.00  0.00    +0.000 N 
ATOM     11  O   UNL     1      44.457   3.622  10.614  0.00  0.00    +0.000 OA
ATOM     12  H   UNL     1      45.586   6.542  10.035  0.00  0.00    +0.000 HD
ATOM     13  H   UNL     1      44.621   5.488   9.067  0.00  0.00    +0.000 HD
ENDBRANCH   5   9
BRANCH   1  14
ATOM     14  C   UNL     1      47.653   4.368  16.808  0.00  0.00    +0.000 C 
ATOM     15  C   UNL     1      47.080   5.011  18.074  0.00  0.00    +0.000 C 
BRANCH  14  20
ATOM     16  C   UNL     1      52.846   1.874  17.826  0.00  0.00    +0.000 C 
ATOM     17  C   UNL     1      51.510   2.507  17.578  0.00  0.00    +0.000 A 
ATOM     18  C   UNL     1      50.442   1.760  17.071  0.00  0.00    +0.000 A 
ATOM     19  C   UNL     1      49.206   2.365  16.828  0.00  0.00    +0.000 A 
ATOM     20  C   UNL     1      49.009   3.729  17.090  0.00  0.00    +0.000 A 
ATOM     21  C   UNL     1      50.085   4.473  17.599  0.00  0.00    +0.000 A 
ATOM     22  C   UNL     1      51.321   3.868  17.843  0.00  0.00    +0.000 A 
ENDBRANCH  14  20
ENDBRANCH   1  14
TORSDOF 3
ENDMDL
MODEL 6
REMARK VINA RESULT:    -6.349      1.378      1.725
REMARK INTER + INTRA:          -7.780
REMARK INTER:                  -8.581
REMARK INTRA:                   0.801
REMARK UNBOUND:                -0.318
REMARK  Name = 
REMARK  5 active torsions:
REMARK  status: ('A' for Active; 'I' for Inactive)
REMARK    1  A    between atoms: C_1  and  C_2
REMARK    2  A    between atoms: C_5  and  C_6
REMARK    3  A    between atoms: C_6  and  C_7
REMARK    4  A    between atoms: C_6  and  N_8
REMARK    5  A    between atoms: C_12  and  C_13
REMARK                            x       y       z     vdW  Elec       q    Type
REMARK                         _______ _______ _______ _____ _____    ______ ____
ROOT
ATOM      1  N   UNL     1      44.192   2.915  10.895  0.00  0.00    +0.000 N 
ATOM      2  C   UNL     1      44.962   2.926   9.724  0.00  0.00    +0.000 A 
ATOM      3  C   UNL     1      45.355   1.700   9.190  0.00  0.00    +0.000 A 
ATOM      4  C   UNL     1      46.123   1.665   8.024  0.00  0.00    +0.000 A 
ATOM      5  C   UNL     1      46.489   2.858   7.403  0.00  0.00    +0.000 A 
ATOM      6  C   UNL     1      46.071   4.030   8.008  0.00  0.00    +0.000 A 
ATOM      7  N   UNL     1      45.331   4.087   9.147  0.00  0.00    +0.000 NA
ATOM      8  H   UNL     1      43.369   2.341  10.735  0.00  0.00    +0.000 HD
ENDROOT
BRANCH   5   9
ATOM      9  C   UNL     1      47.294   2.809   6.157  0.00  0.00    +0.000 C 
ATOM     10  N   UNL     1      48.636   2.563   6.240  0.00  0.00    +0.000 N 
ATOM     11  O   UNL     1      46.776   2.995   5.062  0.00  0.00    +0.000 OA
ATOM     12  H   UNL     1      49.167   2.421   7.084  0.00  0.00    +0.000 HD
ATOM     13  H   UNL     1      49.145   2.551   5.363  0.00  0.00    +0.000 HD
ENDBRANCH   5   9
BRANCH   1  14
ATOM     14  C   UNL     1      43.829   4.220  11.457  0.00  0.00    +0.000 C 
ATOM     15  C   UNL     1      43.273   5.129  10.357  0.00  0.00    +0.000 C 
BRANCH  14  20
ATOM     16  C   UNL     1      48.613   6.521  13.915  0.00  0.00    +0.000 C 
ATOM     17  C   UNL     1      47.379   5.935  13.298  0.00  0.00    +0.000 A 
ATOM     18  C   UNL     1      46.931   4.659  13.656  0.00  0.00    +0.000 A 
ATOM     19  C   UNL     1      45.789   4.117  13.061  0.00  0.00    +0.000 A 
ATOM     20  C   UNL     1      45.067   4.839  12.098  0.00  0.00    +0.000 A 
ATOM     21  C   UNL     1      45.522   6.118  11.743  0.00  0.00    +0.000 A 
ATOM     22  C   UNL     1      46.664   6.661  12.339  0.00  0.00    +0.000 A 
ENDBRANCH  14  20
ENDBRANCH   1  14
TORSDOF 3
ENDMDL
MODEL 7
REMARK VINA RESULT:    -5.628      5.690      8.553
REMARK INTER + INTRA:          -6.932
REMARK INTER:                  -6.424
REMARK INTRA:                  -0.508
REMARK UNBOUND:                -0.318
REMARK  Name = 
REMARK  5 active torsions:
REMARK  status: ('A' for Active; 'I' for Inactive)
REMARK    1  A    between atoms: C_1  and  C_2
REMARK    2  A    between atoms: C_5  and  C_6
REMARK    3  A    between atoms: C_6  and  C_7
REMARK    4  A    between atoms: C_6  and  N_8
REMARK    5  A    between atoms: C_12  and  C_13
REMARK                            x       y       z     vdW  Elec       q    Type
REMARK                         _______ _______ _______ _____ _____    ______ ____
ROOT
ATOM      1  N   UNL     1      48.257   7.189  14.877  0.00  0.00    +0.000 N 
ATOM      2  C   UNL     1      48.557   6.538  16.081  0.00  0.00    +0.000 A 
ATOM      3  C   UNL     1      48.600   7.303  17.244  0.00  0.00    +0.000 A 
ATOM      4  C   UNL     1      48.896   6.695  18.466  0.00  0.00    +0.000 A 
ATOM      5  C   UNL     1      49.144   5.324  18.512  0.00  0.00    +0.000 A 
ATOM      6  C   UNL     1      49.098   4.641  17.309  0.00  0.00    +0.000 A 
ATOM      7  N   UNL     1      48.821   5.216  16.108  0.00  0.00    +0.000 NA
ATOM      8  H   UNL     1      47.373   7.679  14.987  0.00  0.00    +0.000 HD
ENDROOT
BRANCH   5   9
ATOM      9  C   UNL     1      49.444   4.685  19.817  0.00  0.00    +0.000 C 
ATOM     10  N   UNL     1      48.562   3.777  20.333  0.00  0.00    +0.000 N 
ATOM     11  O   UNL     1      50.463   4.965  20.438  0.00  0.00    +0.000 OA
ATOM     12  H   UNL     1      47.687   3.492  19.921  0.00  0.00    +0.000 HD
ATOM     13  H   UNL     1      48.805   3.376  21.231  0.00  0.00    +0.000 HD
ENDBRANCH   5   9
BRANCH   1  14
ATOM     14  C   UNL     1      48.260   6.365  13.663  0.00  0.00    +0.000 C 
ATOM     15  C   UNL     1      49.057   7.063  12.558  0.00  0.00    +0.000 C 
BRANCH  14  20
ATOM     16  C   UNL     1      42.742   5.506  11.922  0.00  0.00    +0.000 C 
ATOM     17  C   UNL     1      44.151   5.736  12.379  0.00  0.00    +0.000 A 
ATOM     18  C   UNL     1      44.839   6.902  12.030  0.00  0.00    +0.000 A 
ATOM     19  C   UNL     1      46.159   7.097  12.448  0.00  0.00    +0.000 A 
ATOM     20  C   UNL     1      46.817   6.132  13.227  0.00  0.00    +0.000 A 
ATOM     21  C   UNL     1      46.120   4.965  13.573  0.00  0.00    +0.000 A 
ATOM     22  C   UNL     1      44.800   4.770  13.156  0.00  0.00    +0.000 A 
ENDBRANCH  14  20
ENDBRANCH   1  14
TORSDOF 3
ENDMDL
MODEL 8
REMARK VINA RESULT:    -5.473      3.377      5.586
REMARK INTER + INTRA:          -6.751
REMARK INTER:                  -6.419
REMARK INTRA:                  -0.332
REMARK UNBOUND:                -0.318
REMARK  Name = 
REMARK  5 active torsions:
REMARK  status: ('A' for Active; 'I' for Inactive)
REMARK    1  A    between atoms: C_1  and  C_2
REMARK    2  A    between atoms: C_5  and  C_6
REMARK    3  A    between atoms: C_6  and  C_7
REMARK    4  A    between atoms: C_6  and  N_8
REMARK    5  A    between atoms: C_12  and  C_13
REMARK                            x       y       z     vdW  Elec       q    Type
REMARK                         _______ _______ _______ _____ _____    ______ ____
ROOT
ATOM      1  N   UNL     1      46.995   5.409  15.019  0.00  0.00    +0.000 N 
ATOM      2  C   UNL     1      46.297   4.912  13.909  0.00  0.00    +0.000 A 
ATOM      3  C   UNL     1      45.517   5.804  13.176  0.00  0.00    +0.000 A 
ATOM      4  C   UNL     1      44.805   5.351  12.063  0.00  0.00    +0.000 A 
ATOM      5  C   UNL     1      44.884   4.009  11.693  0.00  0.00    +0.000 A 
ATOM      6  C   UNL     1      45.669   3.189  12.485  0.00  0.00    +0.000 A 
ATOM      7  N   UNL     1      46.361   3.607  13.577  0.00  0.00    +0.000 NA
ATOM      8  H   UNL     1      47.573   6.187  14.714  0.00  0.00    +0.000 HD
ENDROOT
BRANCH   5   9
ATOM      9  C   UNL     1      44.135   3.541  10.500  0.00  0.00    +0.000 C 
ATOM     10  N   UNL     1      43.866   4.424   9.492  0.00  0.00    +0.000 N 
ATOM     11  O   UNL     1      43.748   2.381  10.413  0.00  0.00    +0.000 OA
ATOM     12  H   UNL     1      44.113   5.401   9.471  0.00  0.00    +0.000 HD
ATOM     13  H   UNL     1      43.342   4.061   8.705  0.00  0.00    +0.000 HD
ENDBRANCH   5   9
BRANCH   1  14
ATOM     14  C   UNL     1      47.775   4.439  15.796  0.00  0.00    +0.000 C 
ATOM     15  C   UNL     1      46.892   3.794  16.867  0.00  0.00    +0.000 C 
BRANCH  14  20
ATOM     16  C   UNL     1      52.358   7.144  18.225  0.00  0.00    +0.000 C 
ATOM     17  C   UNL     1      51.175   6.452  17.616  0.00  0.00    +0.000 A 
ATOM     18  C   UNL     1      50.882   5.121  17.926  0.00  0.00    +0.000 A 
ATOM     19  C   UNL     1      49.786   4.482  17.338  0.00  0.00    +0.000 A 
ATOM     20  C   UNL     1      48.959   5.162  16.430  0.00  0.00    +0.000 A 
ATOM     21  C   UNL     1      49.260   6.498  16.124  0.00  0.00    +0.000 A 
ATOM     22  C   UNL     1      50.355   7.136  16.712  0.00  0.00    +0.000 A 
ENDBRANCH  14  20
ENDBRANCH   1  14
TORSDOF 3
ENDMDL
MODEL 9
REMARK VINA RESULT:    -5.352      3.251      5.624
REMARK INTER + INTRA:          -6.608
REMARK INTER:                  -6.343
REMARK INTRA:                  -0.265
REMARK UNBOUND:                -0.318
REMARK  Name = 
REMARK  5 active torsions:
REMARK  status: ('A' for Active; 'I' for Inactive)
REMARK    1  A    between atoms: C_1  and  C_2
REMARK    2  A    between atoms: C_5  and  C_6
REMARK    3  A    between atoms: C_6  and  C_7
REMARK    4  A    between atoms: C_6  and  N_8
REMARK    5  A    between atoms: C_12  and  C_13
REMARK                            x       y       z     vdW  Elec       q    Type
REMARK                         _______ _______ _______ _____ _____    ______ ____
ROOT
ATOM      1  N   UNL     1      47.629   5.977  14.208  0.00  0.00    +0.000 N 
ATOM      2  C   UNL     1      46.767   5.478  13.221  0.00  0.00    +0.000 A 
ATOM      3  C   UNL     1      46.275   4.184  13.377  0.00  0.00    +0.000 A 
ATOM      4  C   UNL     1      45.414   3.648  12.418  0.00  0.00    +0.000 A 
ATOM      5  C   UNL     1      45.051   4.414  11.312  0.00  0.00    +0.000 A 
ATOM      6  C   UNL     1      45.596   5.683  11.226  0.00  0.00    +0.000 A 
ATOM      7  N   UNL     1      46.443   6.220  12.143  0.00  0.00    +0.000 NA
ATOM      8  H   UNL     1      47.165   5.901  15.109  0.00  0.00    +0.000 HD
ENDROOT
BRANCH   5   9
ATOM      9  C   UNL     1      44.124   3.840  10.304  0.00  0.00    +0.000 C 
ATOM     10  N   UNL     1      44.012   4.443   9.083  0.00  0.00    +0.000 N 
ATOM     11  O   UNL     1      43.456   2.844  10.556  0.00  0.00    +0.000 OA
ATOM     12  H   UNL     1      44.492   5.275   8.779  0.00  0.00    +0.000 HD
ATOM     13  H   UNL     1      43.358   4.021   8.433  0.00  0.00    +0.000 HD
ENDBRANCH   5   9
BRANCH   1  14
ATOM     14  C   UNL     1      48.163   7.327  13.996  0.00  0.00    +0.000 C 
ATOM     15  C   UNL     1      49.410   7.264  13.111  0.00  0.00    +0.000 C 
BRANCH  14  20
ATOM     16  C   UNL     1      49.355   9.721  19.199  0.00  0.00    +0.000 C 
ATOM     17  C   UNL     1      49.062   9.115  17.859  0.00  0.00    +0.000 A 
ATOM     18  C   UNL     1      48.458   9.865  16.846  0.00  0.00    +0.000 A 
ATOM     19  C   UNL     1      48.174   9.284  15.607  0.00  0.00    +0.000 A 
ATOM     20  C   UNL     1      48.491   7.940  15.354  0.00  0.00    +0.000 A 
ATOM     21  C   UNL     1      49.097   7.193  16.375  0.00  0.00    +0.000 A 
ATOM     22  C   UNL     1      49.381   7.775  17.614  0.00  0.00    +0.000 A 
ENDBRANCH  14  20
ENDBRANCH   1  14
TORSDOF 3
ENDMDL
