MODEL 1
REMARK VINA RESULT:    -7.070      0.000      0.000
REMARK INTER + INTRA:         -10.339
REMARK INTER:                  -9.550
REMARK INTRA:                  -0.789
REMARK UNBOUND:                -0.789
REMARK  Name = 
REMARK  7 active torsions:
REMARK  status: ('A' for Active; 'I' for Inactive)
REMARK    1  A    between atoms: C_1  and  C_2
REMARK    2  A    between atoms: C_2  and  C_3
REMARK    3  A    between atoms: C_3  and  C_4
REMARK    4  A    between atoms: C_4  and  N_5
REMARK    5  A    between atoms: C_4  and  C_15
REMARK    6  A    between atoms: N_5  and  C_6
REMARK    7  A    between atoms: C_9  and  C_10
REMARK                            x       y       z     vdW  Elec       q    Type
REMARK                         _______ _______ _______ _____ _____    ______ ____
ROOT
ATOM      1  N   UNL     1      44.219   5.180   9.832  0.00  0.00    +0.000 N 
ATOM      2  H   UNL     1      44.123   5.997   9.229  0.00  0.00    +0.000 HD
ENDROOT
BRANCH   1   3
ATOM      3  C   UNL     1      44.901   4.136   9.196  0.00  0.00    +0.000 A 
ATOM      4  C   UNL     1      44.711   2.783   9.436  0.00  0.00    +0.000 A 
ATOM      5  N   UNL     1      45.397   1.779   8.837  0.00  0.00    +0.000 NA
ATOM      6  C   UNL     1      46.295   2.162   7.900  0.00  0.00    +0.000 A 
ATOM      7  N   UNL     1      46.519   3.431   7.515  0.00  0.00    +0.000 NA
ATOM      8  C   UNL     1      45.797   4.375   8.161  0.00  0.00    +0.000 A 
BRANCH   6   9
ATOM      9  C   UNL     1      47.134   1.067   7.281  0.00  0.00    +0.000 C 
ATOM     10  N   UNL     1      46.820  -0.215   7.673  0.00  0.00    +0.000 N 
ATOM     11  O   UNL     1      48.048   1.265   6.487  0.00  0.00    +0.000 OA
ATOM     12  H   UNL     1      46.065  -0.374   8.328  0.00  0.00    +0.000 HD
ATOM     13  H   UNL     1      47.349  -0.989   7.296  0.00  0.00    +0.000 HD
ENDBRANCH   6   9
ENDBRANCH   1   3
BRANCH   1  14
ATOM     14  C   UNL     1      44.555   5.561  11.224  0.00  0.00    +0.000 C 
BRANCH  14  15
ATOM     15  C   UNL     1      45.525   6.797  11.242  0.00  0.00    +0.000 C 
ATOM     16  C   UNL     1      46.895   6.458  11.867  0.00  0.00    +0.000 C 
ATOM     17  C   UNL     1      47.826   7.668  11.941  0.00  0.00    +0.000 C 
ATOM     18  C   UNL     1      47.160   8.827  12.674  0.00  0.00    +0.000 C 
ATOM     19  C   UNL     1      45.861   9.221  11.985  0.00  0.00    +0.000 C 
ATOM     20  C   UNL     1      44.898   8.041  11.910  0.00  0.00    +0.000 C 
ENDBRANCH  14  15
BRANCH  14  21
ATOM     21  C   UNL     1      43.255   5.857  12.021  0.00  0.00    +0.000 C 
BRANCH  21  23
ATOM     22  C   UNL     1      43.579   3.540  12.916  0.00  0.00    +0.000 C 
ATOM     23  C   UNL     1      42.909   4.896  13.159  0.00  0.00    +0.000 C 
ENDBRANCH  21  23
ENDBRANCH  14  21
ENDBRANCH   1  14
TORSDOF 6
ENDMDL
MODEL 2
REMARK VINA RESULT:    -6.088      3.661      6.443
REMARK INTER + INTRA:          -9.012
REMARK INTER:                  -8.250
REMARK INTRA:                  -0.762
REMARK UNBOUND:                -0.789
REMARK  Name = 
REMARK  7 active torsions:
REMARK  status: ('A' for Active; 'I' for Inactive)
REMARK    1  A    between atoms: C_1  and  C_2
REMARK    2  A    between atoms: C_2  and  C_3
REMARK    3  A    between atoms: C_3  and  C_4
REMARK    4  A    between atoms: C_4  and  N_5
REMARK    5  A    between atoms: C_4  and  C_15
REMARK    6  A    between atoms: N_5  and  C_6
REMARK    7  A    between atoms: C_9  and  C_10
REMARK                            x       y       z     vdW  Elec       q    Type
REMARK                         _______ _______ _______ _____ _____    ______ ____
ROOT
ATOM      1  N   UNL     1      45.296   3.864  11.793  0.00  0.00    +0.000 N 
ATOM      2  H   UNL     1      45.736   2.981  11.535  0.00  0.00    +0.000 HD
ENDROOT
BRANCH   1   3
ATOM      3  C   UNL     1      46.146   4.669  12.560  0.00  0.00    +0.000 A 
ATOM      4  C   UNL     1      46.512   5.973  12.259  0.00  0.00    +0.000 A 
ATOM      5  N   UNL     1      47.359   6.736  12.993  0.00  0.00    +0.000 NA
ATOM      6  C   UNL     1      47.828   6.166  14.127  0.00  0.00    +0.000 A 
ATOM      7  N   UNL     1      47.491   4.943  14.574  0.00  0.00    +0.000 NA
ATOM      8  C   UNL     1      46.643   4.244  13.786  0.00  0.00    +0.000 A 
BRANCH   6   9
ATOM      9  C   UNL     1      48.842   6.963  14.915  0.00  0.00    +0.000 C 
ATOM     10  N   UNL     1      48.348   7.632  16.012  0.00  0.00    +0.000 N 
ATOM     11  O   UNL     1      50.031   7.044  14.625  0.00  0.00    +0.000 OA
ATOM     12  H   UNL     1      47.366   7.563  16.249  0.00  0.00    +0.000 HD
ATOM     13  H   UNL     1      48.978   8.185  16.577  0.00  0.00    +0.000 HD
ENDBRANCH   6   9
ENDBRANCH   1   3
BRANCH   1  14
ATOM     14  C   UNL     1      44.523   4.442  10.669  0.00  0.00    +0.000 C 
BRANCH  14  15
ATOM     15  C   UNL     1      44.836   3.678   9.331  0.00  0.00    +0.000 C 
ATOM     16  C   UNL     1      45.290   2.224   9.579  0.00  0.00    +0.000 C 
ATOM     17  C   UNL     1      45.650   1.490   8.287  0.00  0.00    +0.000 C 
ATOM     18  C   UNL     1      46.696   2.263   7.491  0.00  0.00    +0.000 C 
ATOM     19  C   UNL     1      46.193   3.662   7.163  0.00  0.00    +0.000 C 
ATOM     20  C   UNL     1      45.841   4.432   8.431  0.00  0.00    +0.000 C 
ENDBRANCH  14  15
BRANCH  14  21
ATOM     21  C   UNL     1      43.005   4.404  10.994  0.00  0.00    +0.000 C 
BRANCH  21  23
ATOM     22  C   UNL     1      43.003   6.889  11.306  0.00  0.00    +0.000 C 
ATOM     23  C   UNL     1      42.448   5.560  11.826  0.00  0.00    +0.000 C 
ENDBRANCH  21  23
ENDBRANCH  14  21
ENDBRANCH   1  14
TORSDOF 6
ENDMDL
MODEL 3
REMARK VINA RESULT:    -6.054      3.546      6.644
REMARK INTER + INTRA:          -8.967
REMARK INTER:                  -8.497
REMARK INTRA:                  -0.470
REMARK UNBOUND:                -0.789
REMARK  Name = 
REMARK  7 active torsions:
REMARK  status: ('A' for Active; 'I' for Inactive)
REMARK    1  A    between atoms: C_1  and  C_2
REMARK    2  A    between atoms: C_2  and  C_3
REMARK    3  A    between atoms: C_3  and  C_4
REMARK    4  A    between atoms: C_4  and  N_5
REMARK    5  A    between atoms: C_4  and  C_15
REMARK    6  A    between atoms: N_5  and  C_6
REMARK    7  A    between atoms: C_9  and  C_10
REMARK                            x       y       z     vdW  Elec       q    Type
REMARK                         _______ _______ _______ _____ _____    ______ ____
ROOT
ATOM      1  N   UNL     1      45.129   6.264  10.300  0.00  0.00    +0.000 N 
ATOM      2  H   UNL     1      44.567   6.906   9.740  0.00  0.00    +0.000 HD
ENDROOT
BRANCH   1   3
ATOM      3  C   UNL     1      45.805   6.923  11.333  0.00  0.00    +0.000 A 
ATOM      4  C   UNL     1      45.245   7.846  12.205  0.00  0.00    +0.000 A 
ATOM      5  N   UNL     1      45.914   8.502  13.184  0.00  0.00    +0.000 NA
ATOM      6  C   UNL     1      47.218   8.170  13.326  0.00  0.00    +0.000 A 
ATOM      7  N   UNL     1      47.862   7.237  12.602  0.00  0.00    +0.000 NA
ATOM      8  C   UNL     1      47.126   6.629  11.644  0.00  0.00    +0.000 A 
BRANCH   6   9
ATOM      9  C   UNL     1      48.006   8.951  14.353  0.00  0.00    +0.000 C 
ATOM     10  N   UNL     1      47.448   9.011  15.610  0.00  0.00    +0.000 N 
ATOM     11  O   UNL     1      49.069   9.516  14.120  0.00  0.00    +0.000 OA
ATOM     12  H   UNL     1      46.570   8.543  15.798  0.00  0.00    +0.000 HD
ATOM     13  H   UNL     1      47.927   9.522  16.338  0.00  0.00    +0.000 HD
ENDBRANCH   6   9
ENDBRANCH   1   3
BRANCH   1  14
ATOM     14  C   UNL     1      44.415   4.992  10.558  0.00  0.00    +0.000 C 
BRANCH  14  15
ATOM     15  C   UNL     1      44.643   3.978   9.379  0.00  0.00    +0.000 C 
ATOM     16  C   UNL     1      44.845   2.532   9.880  0.00  0.00    +0.000 C 
ATOM     17  C   UNL     1      45.124   1.548   8.745  0.00  0.00    +0.000 C 
ATOM     18  C   UNL     1      46.308   2.006   7.900  0.00  0.00    +0.000 C 
ATOM     19  C   UNL     1      46.051   3.393   7.326  0.00  0.00    +0.000 C 
ATOM     20  C   UNL     1      45.787   4.407   8.433  0.00  0.00    +0.000 C 
ENDBRANCH  14  15
BRANCH  14  21
ATOM     21  C   UNL     1      44.880   4.390  11.912  0.00  0.00    +0.000 C 
BRANCH  21  23
ATOM     22  C   UNL     1      42.651   5.217  12.700  0.00  0.00    +0.000 C 
ATOM     23  C   UNL     1      43.834   4.300  13.024  0.00  0.00    +0.000 C 
ENDBRANCH  21  23
ENDBRANCH  14  21
ENDBRANCH   1  14
TORSDOF 6
ENDMDL
MODEL 4
REMARK VINA RESULT:    -6.038      5.910      7.542
REMARK INTER + INTRA:          -8.945
REMARK INTER:                  -8.249
REMARK INTRA:                  -0.696
REMARK UNBOUND:                -0.789
REMARK  Name = 
REMARK  7 active torsions:
REMARK  status: ('A' for Active; 'I' for Inactive)
REMARK    1  A    between atoms: C_1  and  C_2
REMARK    2  A    between atoms: C_2  and  C_3
REMARK    3  A    between atoms: C_3  and  C_4
REMARK    4  A    between atoms: C_4  and  N_5
REMARK    5  A    between atoms: C_4  and  C_15
REMARK    6  A    between atoms: N_5  and  C_6
REMARK    7  A    between atoms: C_9  and  C_10
REMARK                            x       y       z     vdW  Elec       q    Type
REMARK                         _______ _______ _______ _____ _____    ______ ____
ROOT
ATOM      1  N   UNL     1      46.662   4.433  15.396  0.00  0.00    +0.000 N 
ATOM      2  H   UNL     1      45.813   3.974  15.727  0.00  0.00    +0.000 HD
ENDROOT
BRANCH   1   3
ATOM      3  C   UNL     1      47.813   3.888  15.977  0.00  0.00    +0.000 A 
ATOM      4  C   UNL     1      48.695   4.562  16.808  0.00  0.00    +0.000 A 
ATOM      5  N   UNL     1      49.824   4.035  17.342  0.00  0.00    +0.000 NA
ATOM      6  C   UNL     1      50.050   2.731  17.062  0.00  0.00    +0.000 A 
ATOM      7  N   UNL     1      49.235   1.942  16.339  0.00  0.00    +0.000 NA
ATOM      8  C   UNL     1      48.132   2.543  15.838  0.00  0.00    +0.000 A 
BRANCH   6   9
ATOM      9  C   UNL     1      51.346   2.144  17.574  0.00  0.00    +0.000 C 
ATOM     10  N   UNL     1      51.382   0.771  17.664  0.00  0.00    +0.000 N 
ATOM     11  O   UNL     1      52.319   2.811  17.908  0.00  0.00    +0.000 OA
ATOM     12  H   UNL     1      50.576   0.223  17.387  0.00  0.00    +0.000 HD
ATOM     13  H   UNL     1      52.220   0.320  18.004  0.00  0.00    +0.000 HD
ENDBRANCH   6   9
ENDBRANCH   1   3
BRANCH   1  14
ATOM     14  C   UNL     1      46.609   4.703  13.941  0.00  0.00    +0.000 C 
BRANCH  14  15
ATOM     15  C   UNL     1      45.169   4.423  13.376  0.00  0.00    +0.000 C 
ATOM     16  C   UNL     1      45.179   3.385  12.234  0.00  0.00    +0.000 C 
ATOM     17  C   UNL     1      43.791   3.149  11.640  0.00  0.00    +0.000 C 
ATOM     18  C   UNL     1      43.158   4.459  11.185  0.00  0.00    +0.000 C 
ATOM     19  C   UNL     1      43.059   5.438  12.347  0.00  0.00    +0.000 C 
ATOM     20  C   UNL     1      44.431   5.713  12.953  0.00  0.00    +0.000 C 
ENDBRANCH  14  15
BRANCH  14  21
ATOM     21  C   UNL     1      47.048   6.166  13.657  0.00  0.00    +0.000 C 
BRANCH  21  23
ATOM     22  C   UNL     1      48.113   7.459  11.795  0.00  0.00    +0.000 C 
ATOM     23  C   UNL     1      48.324   6.356  12.836  0.00  0.00    +0.000 C 
ENDBRANCH  21  23
ENDBRANCH  14  21
ENDBRANCH   1  14
TORSDOF 6
ENDMDL
MODEL 5
REMARK VINA RESULT:    -5.835      4.500      6.535
REMARK INTER + INTRA:          -8.671
REMARK INTER:                  -8.589
REMARK INTRA:                  -0.082
REMARK UNBOUND:                -0.789
REMARK  Name = 
REMARK  7 active torsions:
REMARK  status: ('A' for Active; 'I' for Inactive)
REMARK    1  A    between atoms: C_1  and  C_2
REMARK    2  A    between atoms: C_2  and  C_3
REMARK    3  A    between atoms: C_3  and  C_4
REMARK    4  A    between atoms: C_4  and  N_5
REMARK    5  A    between atoms: C_4  and  C_15
REMARK    6  A    between atoms: N_5  and  C_6
REMARK    7  A    between atoms: C_9  and  C_10
REMARK                            x       y       z     vdW  Elec       q    Type
REMARK                         _______ _______ _______ _____ _____    ______ ____
ROOT
ATOM      1  N   UNL     1      46.488   5.678  12.228  0.00  0.00    +0.000 N 
ATOM      2  H   UNL     1      46.556   6.695  12.229  0.00  0.00    +0.000 HD
ENDROOT
BRANCH   1   3
ATOM      3  C   UNL     1      46.928   5.123  13.436  0.00  0.00    +0.000 A 
ATOM      4  C   UNL     1      46.845   3.783  13.787  0.00  0.00    +0.000 A 
ATOM      5  N   UNL     1      47.246   3.259  14.971  0.00  0.00    +0.000 NA
ATOM      6  C   UNL     1      47.812   4.132  15.836  0.00  0.00    +0.000 A 
ATOM      7  N   UNL     1      48.024   5.438  15.590  0.00  0.00    +0.000 NA
ATOM      8  C   UNL     1      47.594   5.884  14.388  0.00  0.00    +0.000 A 
BRANCH   6   9
ATOM      9  C   UNL     1      48.187   3.589  17.196  0.00  0.00    +0.000 C 
ATOM     10  N   UNL     1      47.241   2.790  17.798  0.00  0.00    +0.000 N 
ATOM     11  O   UNL     1      49.247   3.828  17.764  0.00  0.00    +0.000 OA
ATOM     12  H   UNL     1      46.367   2.595  17.325  0.00  0.00    +0.000 HD
ATOM     13  H   UNL     1      47.433   2.401  18.710  0.00  0.00    +0.000 HD
ENDBRANCH   6   9
ENDBRANCH   1   3
BRANCH   1  14
ATOM     14  C   UNL     1      45.231   5.211  11.599  0.00  0.00    +0.000 C 
BRANCH  14  15
ATOM     15  C   UNL     1      45.537   4.228  10.411  0.00  0.00    +0.000 C 
ATOM     16  C   UNL     1      45.669   4.964   9.061  0.00  0.00    +0.000 C 
ATOM     17  C   UNL     1      45.910   4.011   7.891  0.00  0.00    +0.000 C 
ATOM     18  C   UNL     1      44.830   2.937   7.827  0.00  0.00    +0.000 C 
ATOM     19  C   UNL     1      44.780   2.149   9.128  0.00  0.00    +0.000 C 
ATOM     20  C   UNL     1      44.522   3.067  10.318  0.00  0.00    +0.000 C 
ENDBRANCH  14  15
BRANCH  14  21
ATOM     21  C   UNL     1      44.324   4.537  12.665  0.00  0.00    +0.000 C 
BRANCH  21  23
ATOM     22  C   UNL     1      42.285   5.661  11.740  0.00  0.00    +0.000 C 
ATOM     23  C   UNL     1      43.023   5.258  13.020  0.00  0.00    +0.000 C 
ENDBRANCH  21  23
ENDBRANCH  14  21
ENDBRANCH   1  14
TORSDOF 6
ENDMDL
MODEL 6
REMARK VINA RESULT:    -5.678      4.302      5.642
REMARK INTER + INTRA:          -8.458
REMARK INTER:                  -7.625
REMARK INTRA:                  -0.833
REMARK UNBOUND:                -0.789
REMARK  Name = 
REMARK  7 active torsions:
REMARK  status: ('A' for Active; 'I' for Inactive)
REMARK    1  A    between atoms: C_1  and  C_2
REMARK    2  A    between atoms: C_2  and  C_3
REMARK    3  A    between atoms: C_3  and  C_4
REMARK    4  A    between atoms: C_4  and  N_5
REMARK    5  A    between atoms: C_4  and  C_15
REMARK    6  A    between atoms: N_5  and  C_6
REMARK    7  A    between atoms: C_9  and  C_10
REMARK                            x       y       z     vdW  Elec       q    Type
REMARK                         _______ _______ _______ _____ _____    ______ ____
ROOT
ATOM      1  N   UNL     1      46.527   6.262  12.324  0.00  0.00    +0.000 N 
ATOM      2  H   UNL     1      47.269   6.915  12.073  0.00  0.00    +0.000 HD
ENDROOT
BRANCH   1   3
ATOM      3  C   UNL     1      46.922   5.389  13.345  0.00  0.00    +0.000 A 
ATOM      4  C   UNL     1      46.787   4.009  13.324  0.00  0.00    +0.000 A 
ATOM      5  N   UNL     1      47.145   3.174  14.331  0.00  0.00    +0.000 NA
ATOM      6  C   UNL     1      47.721   3.763  15.404  0.00  0.00    +0.000 A 
ATOM      7  N   UNL     1      47.982   5.077  15.517  0.00  0.00    +0.000 NA
ATOM      8  C   UNL     1      47.593   5.844  14.473  0.00  0.00    +0.000 A 
BRANCH   6   9
ATOM      9  C   UNL     1      48.049   2.863  16.574  0.00  0.00    +0.000 C 
ATOM     10  N   UNL     1      47.107   2.829  17.578  0.00  0.00    +0.000 N 
ATOM     11  O   UNL     1      49.077   2.202  16.667  0.00  0.00    +0.000 OA
ATOM     12  H   UNL     1      46.259   3.377  17.497  0.00  0.00    +0.000 HD
ATOM     13  H   UNL     1      47.272   2.248  18.389  0.00  0.00    +0.000 HD
ENDBRANCH   6   9
ENDBRANCH   1   3
BRANCH   1  14
ATOM     14  C   UNL     1      45.203   6.923  12.370  0.00  0.00    +0.000 C 
BRANCH  14  15
ATOM     15  C   UNL     1      45.364   8.487  12.397  0.00  0.00    +0.000 C 
ATOM     16  C   UNL     1      44.401   9.192  11.418  0.00  0.00    +0.000 C 
ATOM     17  C   UNL     1      44.590  10.708  11.396  0.00  0.00    +0.000 C 
ATOM     18  C   UNL     1      46.039  11.077  11.099  0.00  0.00    +0.000 C 
ATOM     19  C   UNL     1      46.971  10.459  12.133  0.00  0.00    +0.000 C 
ATOM     20  C   UNL     1      46.823   8.942  12.171  0.00  0.00    +0.000 C 
ENDBRANCH  14  15
BRANCH  14  21
ATOM     21  C   UNL     1      44.342   6.470  11.159  0.00  0.00    +0.000 C 
BRANCH  21  23
ATOM     22  C   UNL     1      43.137   5.203  12.952  0.00  0.00    +0.000 C 
ATOM     23  C   UNL     1      43.175   5.528  11.455  0.00  0.00    +0.000 C 
ENDBRANCH  21  23
ENDBRANCH  14  21
ENDBRANCH   1  14
TORSDOF 6
ENDMDL
MODEL 7
REMARK VINA RESULT:    -5.630      5.191      7.113
REMARK INTER + INTRA:          -8.395
REMARK INTER:                  -7.544
REMARK INTRA:                  -0.851
REMARK UNBOUND:                -0.789
REMARK  Name = 
REMARK  7 active torsions:
REMARK  status: ('A' for Active; 'I' for Inactive)
REMARK    1  A    between atoms: C_1  and  C_2
REMARK    2  A    between atoms: C_2  and  C_3
REMARK    3  A    between atoms: C_3  and  C_4
REMARK    4  A    between atoms: C_4  and  N_5
REMARK    5  A    between atoms: C_4  and  C_15
REMARK    6  A    between atoms: N_5  and  C_6
REMARK    7  A    between atoms: C_9  and  C_10
REMARK                            x       y       z     vdW  Elec       q    Type
REMARK                         _______ _______ _______ _____ _____    ______ ____
ROOT
ATOM      1  N   UNL     1      46.890   6.317  13.970  0.00  0.00    +0.000 N 
ATOM      2  H   UNL     1      45.998   6.703  14.277  0.00  0.00    +0.000 HD
ENDROOT
BRANCH   1   3
ATOM      3  C   UNL     1      47.453   5.469  14.931  0.00  0.00    +0.000 A 
ATOM      4  C   UNL     1      47.073   4.157  15.172  0.00  0.00    +0.000 A 
ATOM      5  N   UNL     1      47.603   3.352  16.125  0.00  0.00    +0.000 NA
ATOM      6  C   UNL     1      48.613   3.887  16.848  0.00  0.00    +0.000 A 
ATOM      7  N   UNL     1      49.130   5.115  16.664  0.00  0.00    +0.000 NA
ATOM      8  C   UNL     1      48.546   5.857  15.695  0.00  0.00    +0.000 A 
BRANCH   6   9
ATOM      9  C   UNL     1      49.161   3.041  17.975  0.00  0.00    +0.000 C 
ATOM     10  N   UNL     1      48.456   3.096  19.156  0.00  0.00    +0.000 N 
ATOM     11  O   UNL     1      50.168   2.346  17.887  0.00  0.00    +0.000 OA
ATOM     12  H   UNL     1      47.625   3.670  19.224  0.00  0.00    +0.000 HD
ATOM     13  H   UNL     1      48.776   2.554  19.947  0.00  0.00    +0.000 HD
ENDBRANCH   6   9
ENDBRANCH   1   3
BRANCH   1  14
ATOM     14  C   UNL     1      46.857   5.919  12.543  0.00  0.00    +0.000 C 
BRANCH  14  15
ATOM     15  C   UNL     1      45.488   5.231  12.191  0.00  0.00    +0.000 C 
ATOM     16  C   UNL     1      45.109   5.406  10.705  0.00  0.00    +0.000 C 
ATOM     17  C   UNL     1      43.753   4.789  10.366  0.00  0.00    +0.000 C 
ATOM     18  C   UNL     1      42.659   5.333  11.278  0.00  0.00    +0.000 C 
ATOM     19  C   UNL     1      42.995   5.062  12.738  0.00  0.00    +0.000 C 
ATOM     20  C   UNL     1      44.336   5.680  13.118  0.00  0.00    +0.000 C 
ENDBRANCH  14  15
BRANCH  14  21
ATOM     21  C   UNL     1      47.108   7.159  11.642  0.00  0.00    +0.000 C 
BRANCH  21  23
ATOM     22  C   UNL     1      45.490   9.030  12.037  0.00  0.00    +0.000 C 
ATOM     23  C   UNL     1      46.917   8.532  12.287  0.00  0.00    +0.000 C 
ENDBRANCH  21  23
ENDBRANCH  14  21
ENDBRANCH   1  14
TORSDOF 6
ENDMDL
MODEL 8
REMARK VINA RESULT:    -5.592      4.503      6.800
REMARK INTER + INTRA:          -8.343
REMARK INTER:                  -7.815
REMARK INTRA:                  -0.528
REMARK UNBOUND:                -0.789
REMARK  Name = 
REMARK  7 active torsions:
REMARK  status: ('A' for Active; 'I' for Inactive)
REMARK    1  A    between atoms: C_1  and  C_2
REMARK    2  A    between atoms: C_2  and  C_3
REMARK    3  A    between atoms: C_3  and  C_4
REMARK    4  A    between atoms: C_4  and  N_5
REMARK    5  A    between atoms: C_4  and  C_15
REMARK    6  A    between atoms: N_5  and  C_6
REMARK    7  A    between atoms: C_9  and  C_10
REMARK                            x       y       z     vdW  Elec       q    Type
REMARK                         _______ _______ _______ _____ _____    ______ ____
ROOT
ATOM      1  N   UNL     1      47.227   6.104  12.112  0.00  0.00    +0.000 N 
ATOM      2  H   UNL     1      48.128   6.416  11.750  0.00  0.00    +0.000 HD
ENDROOT
BRANCH   1   3
ATOM      3  C   UNL     1      47.328   5.624  13.423  0.00  0.00    +0.000 A 
ATOM      4  C   UNL     1      46.688   4.499  13.922  0.00  0.00    +0.000 A 
ATOM      5  N   UNL     1      46.767   4.057  15.202  0.00  0.00    +0.000 NA
ATOM      6  C   UNL     1      47.583   4.766  16.016  0.00  0.00    +0.000 A 
ATOM      7  N   UNL     1      48.322   5.825  15.640  0.00  0.00    +0.000 NA
ATOM      8  C   UNL     1      48.186   6.205  14.349  0.00  0.00    +0.000 A 
BRANCH   6   9
ATOM      9  C   UNL     1      47.621   4.345  17.468  0.00  0.00    +0.000 C 
ATOM     10  N   UNL     1      46.867   5.112  18.327  0.00  0.00    +0.000 N 
ATOM     11  O   UNL     1      48.274   3.399  17.894  0.00  0.00    +0.000 OA
ATOM     12  H   UNL     1      46.329   5.893  17.972  0.00  0.00    +0.000 HD
ATOM     13  H   UNL     1      46.855   4.882  19.311  0.00  0.00    +0.000 HD
ENDBRANCH   6   9
ENDBRANCH   1   3
BRANCH   1  14
ATOM     14  C   UNL     1      46.132   7.026  11.731  0.00  0.00    +0.000 C 
BRANCH  14  15
ATOM     15  C   UNL     1      44.872   6.221  11.248  0.00  0.00    +0.000 C 
ATOM     16  C   UNL     1      43.864   5.970  12.390  0.00  0.00    +0.000 C 
ATOM     17  C   UNL     1      42.662   5.138  11.943  0.00  0.00    +0.000 C 
ATOM     18  C   UNL     1      43.108   3.826  11.308  0.00  0.00    +0.000 C 
ATOM     19  C   UNL     1      44.020   4.091  10.117  0.00  0.00    +0.000 C 
ATOM     20  C   UNL     1      45.242   4.903  10.530  0.00  0.00    +0.000 C 
ENDBRANCH  14  15
BRANCH  14  21
ATOM     21  C   UNL     1      45.780   7.953  12.927  0.00  0.00    +0.000 C 
BRANCH  21  23
ATOM     22  C   UNL     1      44.669   9.919  11.843  0.00  0.00    +0.000 C 
ATOM     23  C   UNL     1      45.866   9.460  12.680  0.00  0.00    +0.000 C 
ENDBRANCH  21  23
ENDBRANCH  14  21
ENDBRANCH   1  14
TORSDOF 6
ENDMDL
MODEL 9
REMARK VINA RESULT:    -5.289      3.780      5.652
REMARK INTER + INTRA:          -7.934
REMARK INTER:                  -7.274
REMARK INTRA:                  -0.660
REMARK UNBOUND:                -0.789
REMARK  Name = 
REMARK  7 active torsions:
REMARK  status: ('A' for Active; 'I' for Inactive)
REMARK    1  A    between atoms: C_1  and  C_2
REMARK    2  A    between atoms: C_2  and  C_3
REMARK    3  A    between atoms: C_3  and  C_4
REMARK    4  A    between atoms: C_4  and  N_5
REMARK    5  A    between atoms: C_4  and  C_15
REMARK    6  A    between atoms: N_5  and  C_6
REMARK    7  A    between atoms: C_9  and  C_10
REMARK                            x       y       z     vdW  Elec       q    Type
REMARK                         _______ _______ _______ _____ _____    ______ ____
ROOT
ATOM      1  N   UNL     1      47.524   5.929  14.677  0.00  0.00    +0.000 N 
ATOM      2  H   UNL     1      47.166   6.023  15.628  0.00  0.00    +0.000 HD
ENDROOT
BRANCH   1   3
ATOM      3  C   UNL     1      46.674   5.162  13.871  0.00  0.00    +0.000 A 
ATOM      4  C   UNL     1      46.735   3.786  13.714  0.00  0.00    +0.000 A 
ATOM      5  N   UNL     1      45.926   3.055  12.908  0.00  0.00    +0.000 NA
ATOM      6  C   UNL     1      44.965   3.749  12.257  0.00  0.00    +0.000 A 
ATOM      7  N   UNL     1      44.746   5.071  12.382  0.00  0.00    +0.000 NA
ATOM      8  C   UNL     1      45.596   5.730  13.203  0.00  0.00    +0.000 A 
BRANCH   6   9
ATOM      9  C   UNL     1      44.108   2.970  11.286  0.00  0.00    +0.000 C 
ATOM     10  N   UNL     1      44.756   2.501  10.165  0.00  0.00    +0.000 N 
ATOM     11  O   UNL     1      42.910   2.757  11.442  0.00  0.00    +0.000 OA
ATOM     12  H   UNL     1      45.745   2.679  10.040  0.00  0.00    +0.000 HD
ATOM     13  H   UNL     1      44.235   1.976   9.477  0.00  0.00    +0.000 HD
ENDBRANCH   6   9
ENDBRANCH   1   3
BRANCH   1  14
ATOM     14  C   UNL     1      48.093   7.201  14.175  0.00  0.00    +0.000 C 
BRANCH  14  15
ATOM     15  C   UNL     1      48.888   7.940  15.312  0.00  0.00    +0.000 C 
ATOM     16  C   UNL     1      49.115   7.042  16.547  0.00  0.00    +0.000 C 
ATOM     17  C   UNL     1      49.837   7.770  17.680  0.00  0.00    +0.000 C 
ATOM     18  C   UNL     1      49.107   9.053  18.061  0.00  0.00    +0.000 C 
ATOM     19  C   UNL     1      48.982   9.976  16.857  0.00  0.00    +0.000 C 
ATOM     20  C   UNL     1      48.248   9.289  15.711  0.00  0.00    +0.000 C 
ENDBRANCH  14  15
BRANCH  14  21
ATOM     21  C   UNL     1      49.000   6.927  12.945  0.00  0.00    +0.000 C 
BRANCH  21  23
ATOM     22  C   UNL     1      49.466   9.014  11.642  0.00  0.00    +0.000 C 
ATOM     23  C   UNL     1      48.680   7.700  11.665  0.00  0.00    +0.000 C 
ENDBRANCH  21  23
ENDBRANCH  14  21
ENDBRANCH   1  14
TORSDOF 6
ENDMDL
