MODEL 1
REMARK VINA RESULT:    -7.763      0.000      0.000
REMARK INTER + INTRA:         -11.824
REMARK INTER:                 -10.486
REMARK INTRA:                  -1.338
REMARK UNBOUND:                -1.338
REMARK  Name = 
REMARK  8 active torsions:
REMARK  status: ('A' for Active; 'I' for Inactive)
REMARK    1  A    between atoms: C_1  and  C_2
REMARK    2  A    between atoms: C_2  and  N_3
REMARK    3  A    between atoms: C_2  and  C_17
REMARK    4  A    between atoms: C_4  and  C_6
REMARK    5  A    between atoms: N_12  and  C_13
REMARK    6  A    between atoms: C_20  and  O_21
REMARK    7  A    between atoms: O_21  and  C_22
REMARK    8  A    between atoms: C_22  and  C_23
REMARK                            x       y       z     vdW  Elec       q    Type
REMARK                         _______ _______ _______ _____ _____    ______ ____
ROOT
ATOM      1  C   UNL     1      47.815   8.528  12.119  0.00  0.00    +0.000 C 
ATOM      2  C   UNL     1      47.331   7.587  13.231  0.00  0.00    +0.000 C 
ENDROOT
BRANCH   2   3
ATOM      3  C   UNL     1      46.592   6.368  12.701  0.00  0.00    +0.000 A 
ATOM      4  C   UNL     1      45.656   6.513  11.665  0.00  0.00    +0.000 A 
ATOM      5  C   UNL     1      44.978   5.402  11.155  0.00  0.00    +0.000 A 
ATOM      6  C   UNL     1      45.223   4.131  11.672  0.00  0.00    +0.000 A 
ATOM      7  C   UNL     1      46.070   3.992  12.769  0.00  0.00    +0.000 A 
ATOM      8  C   UNL     1      46.748   5.099  13.278  0.00  0.00    +0.000 A 
BRANCH   6   9
ATOM      9  O   UNL     1      44.594   3.091  11.042  0.00  0.00    +0.000 OA
BRANCH   9  10
ATOM     10  C   UNL     1      44.203   3.370   9.692  0.00  0.00    +0.000 C 
BRANCH  10  11
ATOM     11  C   UNL     1      45.228   2.852   8.714  0.00  0.00    +0.000 A 
ATOM     12  C   UNL     1      45.897   3.738   7.870  0.00  0.00    +0.000 A 
ATOM     13  C   UNL     1      46.905   3.248   7.047  0.00  0.00    +0.000 A 
ATOM     14  C   UNL     1      47.220   1.896   7.088  0.00  0.00    +0.000 A 
ATOM     15  C   UNL     1      46.510   1.084   7.955  0.00  0.00    +0.000 A 
ATOM     16  N   UNL     1      45.530   1.530   8.771  0.00  0.00    +0.000 NA
ENDBRANCH  10  11
ENDBRANCH   9  10
ENDBRANCH   6   9
ENDBRANCH   2   3
BRANCH   2  17
ATOM     17  N   UNL     1      48.439   7.116  14.026  0.00  0.00    +0.000 N 
ATOM     18  C   UNL     1      48.979   7.784  15.091  0.00  0.00    +0.000 C 
ATOM     19  O   UNL     1      48.502   8.823  15.538  0.00  0.00    +0.000 OA
ATOM     20  H   UNL     1      48.975   6.370  13.602  0.00  0.00    +0.000 HD
BRANCH  18  21
ATOM     21  C   UNL     1      50.131   7.122  15.715  0.00  0.00    +0.000 A 
ATOM     22  C   UNL     1      51.416   7.617  15.538  0.00  0.00    +0.000 A 
ATOM     23  S   UNL     1      52.593   6.777  16.445  0.00  0.00    +0.000 S 
ATOM     24  C   UNL     1      51.433   5.694  17.062  0.00  0.00    +0.000 A 
ATOM     25  N   UNL     1      51.774   4.717  17.939  0.00  0.00    +0.000 NA
ATOM     26  C   UNL     1      50.790   3.969  18.323  0.00  0.00    +0.000 A 
ATOM     27  N   UNL     1      49.483   4.086  17.895  0.00  0.00    +0.000 N 
ATOM     28  C   UNL     1      48.450   3.201  18.389  0.00  0.00    +0.000 C 
ATOM     29  C   UNL     1      49.107   5.063  16.984  0.00  0.00    +0.000 A 
ATOM     30  O   UNL     1      47.950   5.175  16.581  0.00  0.00    +0.000 OA
ATOM     31  C   UNL     1      50.172   5.957  16.569  0.00  0.00    +0.000 A 
ENDBRANCH  18  21
ENDBRANCH   2  17
TORSDOF 6
ENDMDL
MODEL 2
REMARK VINA RESULT:    -7.751      1.555      2.290
REMARK INTER + INTRA:         -11.808
REMARK INTER:                 -10.891
REMARK INTRA:                  -0.918
REMARK UNBOUND:                -1.338
REMARK  Name = 
REMARK  8 active torsions:
REMARK  status: ('A' for Active; 'I' for Inactive)
REMARK    1  A    between atoms: C_1  and  C_2
REMARK    2  A    between atoms: C_2  and  N_3
REMARK    3  A    between atoms: C_2  and  C_17
REMARK    4  A    between atoms: C_4  and  C_6
REMARK    5  A    between atoms: N_12  and  C_13
REMARK    6  A    between atoms: C_20  and  O_21
REMARK    7  A    between atoms: O_21  and  C_22
REMARK    8  A    between atoms: C_22  and  C_23
REMARK                            x       y       z     vdW  Elec       q    Type
REMARK                         _______ _______ _______ _____ _____    ______ ____
ROOT
ATOM      1  C   UNL     1      48.589   7.733  12.810  0.00  0.00    +0.000 C 
ATOM      2  C   UNL     1      47.440   7.047  13.562  0.00  0.00    +0.000 C 
ENDROOT
BRANCH   2   3
ATOM      3  C   UNL     1      46.555   6.205  12.657  0.00  0.00    +0.000 A 
ATOM      4  C   UNL     1      46.095   6.733  11.441  0.00  0.00    +0.000 A 
ATOM      5  C   UNL     1      45.292   5.968  10.589  0.00  0.00    +0.000 A 
ATOM      6  C   UNL     1      44.934   4.667  10.940  0.00  0.00    +0.000 A 
ATOM      7  C   UNL     1      45.297   4.174  12.191  0.00  0.00    +0.000 A 
ATOM      8  C   UNL     1      46.100   4.935  13.041  0.00  0.00    +0.000 A 
BRANCH   6   9
ATOM      9  O   UNL     1      44.237   3.957  10.000  0.00  0.00    +0.000 OA
BRANCH   9  10
ATOM     10  C   UNL     1      44.664   2.597   9.854  0.00  0.00    +0.000 C 
BRANCH  10  11
ATOM     11  C   UNL     1      45.490   2.422   8.604  0.00  0.00    +0.000 A 
ATOM     12  C   UNL     1      45.643   3.484   7.714  0.00  0.00    +0.000 A 
ATOM     13  C   UNL     1      46.488   3.327   6.621  0.00  0.00    +0.000 A 
ATOM     14  C   UNL     1      47.155   2.122   6.444  0.00  0.00    +0.000 A 
ATOM     15  C   UNL     1      46.950   1.117   7.374  0.00  0.00    +0.000 A 
ATOM     16  N   UNL     1      46.142   1.241   8.449  0.00  0.00    +0.000 NA
ENDBRANCH  10  11
ENDBRANCH   9  10
ENDBRANCH   6   9
ENDBRANCH   2   3
BRANCH   2  17
ATOM     17  N   UNL     1      47.947   6.186  14.604  0.00  0.00    +0.000 N 
ATOM     18  C   UNL     1      48.492   6.619  15.781  0.00  0.00    +0.000 C 
ATOM     19  O   UNL     1      48.515   7.801  16.110  0.00  0.00    +0.000 OA
ATOM     20  H   UNL     1      48.115   5.231  14.315  0.00  0.00    +0.000 HD
BRANCH  18  21
ATOM     21  C   UNL     1      48.978   5.552  16.665  0.00  0.00    +0.000 A 
ATOM     22  C   UNL     1      48.095   4.647  17.236  0.00  0.00    +0.000 A 
ATOM     23  S   UNL     1      48.873   3.416  18.128  0.00  0.00    +0.000 S 
ATOM     24  C   UNL     1      50.410   4.083  17.822  0.00  0.00    +0.000 A 
ATOM     25  N   UNL     1      51.541   3.494  18.285  0.00  0.00    +0.000 NA
ATOM     26  C   UNL     1      52.636   4.110  17.977  0.00  0.00    +0.000 A 
ATOM     27  N   UNL     1      52.716   5.287  17.260  0.00  0.00    +0.000 N 
ATOM     28  C   UNL     1      53.993   5.898  16.960  0.00  0.00    +0.000 C 
ATOM     29  C   UNL     1      51.576   5.924  16.789  0.00  0.00    +0.000 A 
ATOM     30  O   UNL     1      51.625   6.979  16.160  0.00  0.00    +0.000 OA
ATOM     31  C   UNL     1      50.329   5.235  17.069  0.00  0.00    +0.000 A 
ENDBRANCH  18  21
ENDBRANCH   2  17
TORSDOF 6
ENDMDL
MODEL 3
REMARK VINA RESULT:    -7.692      1.884      2.235
REMARK INTER + INTRA:         -11.728
REMARK INTER:                 -10.633
REMARK INTRA:                  -1.095
REMARK UNBOUND:                -1.338
REMARK  Name = 
REMARK  8 active torsions:
REMARK  status: ('A' for Active; 'I' for Inactive)
REMARK    1  A    between atoms: C_1  and  C_2
REMARK    2  A    between atoms: C_2  and  N_3
REMARK    3  A    between atoms: C_2  and  C_17
REMARK    4  A    between atoms: C_4  and  C_6
REMARK    5  A    between atoms: N_12  and  C_13
REMARK    6  A    between atoms: C_20  and  O_21
REMARK    7  A    between atoms: O_21  and  C_22
REMARK    8  A    between atoms: C_22  and  C_23
REMARK                            x       y       z     vdW  Elec       q    Type
REMARK                         _______ _______ _______ _____ _____    ______ ____
ROOT
ATOM      1  C   UNL     1      49.426   7.474  13.091  0.00  0.00    +0.000 C 
ATOM      2  C   UNL     1      48.006   7.652  13.647  0.00  0.00    +0.000 C 
ENDROOT
BRANCH   2   3
ATOM      3  C   UNL     1      47.008   6.664  13.065  0.00  0.00    +0.000 A 
ATOM      4  C   UNL     1      46.113   7.080  12.067  0.00  0.00    +0.000 A 
ATOM      5  C   UNL     1      45.199   6.181  11.509  0.00  0.00    +0.000 A 
ATOM      6  C   UNL     1      45.163   4.856  11.939  0.00  0.00    +0.000 A 
ATOM      7  C   UNL     1      45.974   4.461  13.001  0.00  0.00    +0.000 A 
ATOM      8  C   UNL     1      46.888   5.356  13.558  0.00  0.00    +0.000 A 
BRANCH   6   9
ATOM      9  O   UNL     1      44.311   4.023  11.265  0.00  0.00    +0.000 OA
BRANCH   9  10
ATOM     10  C   UNL     1      44.130   4.360   9.884  0.00  0.00    +0.000 C 
BRANCH  10  11
ATOM     11  C   UNL     1      45.123   3.629   9.015  0.00  0.00    +0.000 A 
ATOM     12  C   UNL     1      45.247   2.244   9.110  0.00  0.00    +0.000 A 
ATOM     13  C   UNL     1      46.099   1.584   8.232  0.00  0.00    +0.000 A 
ATOM     14  C   UNL     1      46.800   2.318   7.283  0.00  0.00    +0.000 A 
ATOM     15  C   UNL     1      46.619   3.690   7.253  0.00  0.00    +0.000 A 
ATOM     16  N   UNL     1      45.795   4.359   8.089  0.00  0.00    +0.000 NA
ENDBRANCH  10  11
ENDBRANCH   9  10
ENDBRANCH   6   9
ENDBRANCH   2   3
BRANCH   2  17
ATOM     17  N   UNL     1      47.991   7.497  15.081  0.00  0.00    +0.000 N 
ATOM     18  C   UNL     1      48.613   8.334  15.966  0.00  0.00    +0.000 C 
ATOM     19  O   UNL     1      49.173   9.370  15.623  0.00  0.00    +0.000 OA
ATOM     20  H   UNL     1      47.704   6.581  15.402  0.00  0.00    +0.000 HD
BRANCH  18  21
ATOM     21  C   UNL     1      48.491   7.942  17.376  0.00  0.00    +0.000 A 
ATOM     22  C   UNL     1      48.104   8.864  18.338  0.00  0.00    +0.000 A 
ATOM     23  S   UNL     1      47.904   8.178  19.889  0.00  0.00    +0.000 S 
ATOM     24  C   UNL     1      48.379   6.640  19.336  0.00  0.00    +0.000 A 
ATOM     25  N   UNL     1      48.404   5.567  20.166  0.00  0.00    +0.000 NA
ATOM     26  C   UNL     1      48.785   4.462  19.609  0.00  0.00    +0.000 A 
ATOM     27  N   UNL     1      49.171   4.323  18.291  0.00  0.00    +0.000 N 
ATOM     28  C   UNL     1      49.576   3.040  17.760  0.00  0.00    +0.000 C 
ATOM     29  C   UNL     1      49.174   5.406  17.423  0.00  0.00    +0.000 A 
ATOM     30  O   UNL     1      49.526   5.305  16.249  0.00  0.00    +0.000 OA
ATOM     31  C   UNL     1      48.703   6.654  17.995  0.00  0.00    +0.000 A 
ENDBRANCH  18  21
ENDBRANCH   2  17
TORSDOF 6
ENDMDL
MODEL 4
REMARK VINA RESULT:    -7.488      2.669      3.554
REMARK INTER + INTRA:         -11.452
REMARK INTER:                 -10.351
REMARK INTRA:                  -1.101
REMARK UNBOUND:                -1.338
REMARK  Name = 
REMARK  8 active torsions:
REMARK  status: ('A' for Active; 'I' for Inactive)
REMARK    1  A    between atoms: C_1  and  C_2
REMARK    2  A    between atoms: C_2  and  N_3
REMARK    3  A    between atoms: C_2  and  C_17
REMARK    4  A    between atoms: C_4  and  C_6
REMARK    5  A    between atoms: N_12  and  C_13
REMARK    6  A    between atoms: C_20  and  O_21
REMARK    7  A    between atoms: O_21  and  C_22
REMARK    8  A    between atoms: C_22  and  C_23
REMARK                            x       y       z     vdW  Elec       q    Type
REMARK                         _______ _______ _______ _____ _____    ______ ____
ROOT
ATOM      1  C   UNL     1      47.097   4.311  16.003  0.00  0.00    +0.000 C 
ATOM      2  C   UNL     1      47.712   4.986  14.769  0.00  0.00    +0.000 C 
ENDROOT
BRANCH   2   3
ATOM      3  C   UNL     1      46.847   4.857  13.526  0.00  0.00    +0.000 A 
ATOM      4  C   UNL     1      46.721   5.944  12.646  0.00  0.00    +0.000 A 
ATOM      5  C   UNL     1      45.942   5.838  11.489  0.00  0.00    +0.000 A 
ATOM      6  C   UNL     1      45.278   4.649  11.195  0.00  0.00    +0.000 A 
ATOM      7  C   UNL     1      45.311   3.603  12.114  0.00  0.00    +0.000 A 
ATOM      8  C   UNL     1      46.089   3.706  13.267  0.00  0.00    +0.000 A 
BRANCH   6   9
ATOM      9  O   UNL     1      44.627   4.602   9.991  0.00  0.00    +0.000 OA
BRANCH   9  10
ATOM     10  C   UNL     1      44.298   3.277   9.553  0.00  0.00    +0.000 C 
BRANCH  10  11
ATOM     11  C   UNL     1      45.298   2.779   8.539  0.00  0.00    +0.000 A 
ATOM     12  C   UNL     1      45.819   3.653   7.586  0.00  0.00    +0.000 A 
ATOM     13  C   UNL     1      46.810   3.194   6.726  0.00  0.00    +0.000 A 
ATOM     14  C   UNL     1      47.256   1.884   6.839  0.00  0.00    +0.000 A 
ATOM     15  C   UNL     1      46.689   1.081   7.814  0.00  0.00    +0.000 A 
ATOM     16  N   UNL     1      45.729   1.499   8.668  0.00  0.00    +0.000 NA
ENDBRANCH  10  11
ENDBRANCH   9  10
ENDBRANCH   6   9
ENDBRANCH   2   3
BRANCH   2  17
ATOM     17  N   UNL     1      47.931   6.392  15.007  0.00  0.00    +0.000 N 
ATOM     18  C   UNL     1      49.060   6.926  15.566  0.00  0.00    +0.000 C 
ATOM     19  O   UNL     1      50.051   6.255  15.835  0.00  0.00    +0.000 OA
ATOM     20  H   UNL     1      47.094   6.961  14.973  0.00  0.00    +0.000 HD
BRANCH  18  21
ATOM     21  C   UNL     1      49.030   8.382  15.746  0.00  0.00    +0.000 A 
ATOM     22  C   UNL     1      49.481   9.231  14.745  0.00  0.00    +0.000 A 
ATOM     23  S   UNL     1      49.247  10.884  15.104  0.00  0.00    +0.000 S 
ATOM     24  C   UNL     1      48.583  10.520  16.629  0.00  0.00    +0.000 A 
ATOM     25  N   UNL     1      48.139  11.498  17.459  0.00  0.00    +0.000 NA
ATOM     26  C   UNL     1      47.660  11.075  18.584  0.00  0.00    +0.000 A 
ATOM     27  N   UNL     1      47.598   9.754  18.981  0.00  0.00    +0.000 N 
ATOM     28  C   UNL     1      47.037   9.381  20.261  0.00  0.00    +0.000 C 
ATOM     29  C   UNL     1      48.061   8.733  18.163  0.00  0.00    +0.000 A 
ATOM     30  O   UNL     1      48.027   7.552  18.503  0.00  0.00    +0.000 OA
ATOM     31  C   UNL     1      48.559   9.162  16.868  0.00  0.00    +0.000 A 
ENDBRANCH  18  21
ENDBRANCH   2  17
TORSDOF 6
ENDMDL
MODEL 5
REMARK VINA RESULT:    -6.645      2.450      4.123
REMARK INTER + INTRA:         -10.313
REMARK INTER:                  -9.228
REMARK INTRA:                  -1.085
REMARK UNBOUND:                -1.338
REMARK  Name = 
REMARK  8 active torsions:
REMARK  status: ('A' for Active; 'I' for Inactive)
REMARK    1  A    between atoms: C_1  and  C_2
REMARK    2  A    between atoms: C_2  and  N_3
REMARK    3  A    between atoms: C_2  and  C_17
REMARK    4  A    between atoms: C_4  and  C_6
REMARK    5  A    between atoms: N_12  and  C_13
REMARK    6  A    between atoms: C_20  and  O_21
REMARK    7  A    between atoms: O_21  and  C_22
REMARK    8  A    between atoms: C_22  and  C_23
REMARK                            x       y       z     vdW  Elec       q    Type
REMARK                         _______ _______ _______ _____ _____    ______ ____
ROOT
ATOM      1  C   UNL     1      47.041   3.972  16.519  0.00  0.00    +0.000 C 
ATOM      2  C   UNL     1      47.842   4.771  15.482  0.00  0.00    +0.000 C 
ENDROOT
BRANCH   2   3
ATOM      3  C   UNL     1      47.096   4.963  14.171  0.00  0.00    +0.000 A 
ATOM      4  C   UNL     1      46.261   3.945  13.685  0.00  0.00    +0.000 A 
ATOM      5  C   UNL     1      45.555   4.110  12.490  0.00  0.00    +0.000 A 
ATOM      6  C   UNL     1      45.674   5.292  11.761  0.00  0.00    +0.000 A 
ATOM      7  C   UNL     1      46.580   6.264  12.180  0.00  0.00    +0.000 A 
ATOM      8  C   UNL     1      47.283   6.101  13.373  0.00  0.00    +0.000 A 
BRANCH   6   9
ATOM      9  O   UNL     1      44.867   5.409  10.661  0.00  0.00    +0.000 OA
BRANCH   9  10
ATOM     10  C   UNL     1      44.318   4.167  10.200  0.00  0.00    +0.000 C 
BRANCH  10  11
ATOM     11  C   UNL     1      45.211   3.532   9.164  0.00  0.00    +0.000 A 
ATOM     12  C   UNL     1      45.363   2.147   9.128  0.00  0.00    +0.000 A 
ATOM     13  C   UNL     1      46.113   1.580   8.104  0.00  0.00    +0.000 A 
ATOM     14  C   UNL     1      46.688   2.405   7.146  0.00  0.00    +0.000 A 
ATOM     15  C   UNL     1      46.487   3.770   7.251  0.00  0.00    +0.000 A 
ATOM     16  N   UNL     1      45.759   4.350   8.230  0.00  0.00    +0.000 NA
ENDBRANCH  10  11
ENDBRANCH   9  10
ENDBRANCH   6   9
ENDBRANCH   2   3
BRANCH   2  17
ATOM     17  N   UNL     1      48.182   6.078  15.989  0.00  0.00    +0.000 N 
ATOM     18  C   UNL     1      49.423   6.449  16.427  0.00  0.00    +0.000 C 
ATOM     19  O   UNL     1      50.407   5.721  16.339  0.00  0.00    +0.000 OA
ATOM     20  H   UNL     1      47.388   6.649  16.247  0.00  0.00    +0.000 HD
BRANCH  18  21
ATOM     21  C   UNL     1      49.511   7.823  16.939  0.00  0.00    +0.000 A 
ATOM     22  C   UNL     1      49.176   8.113  18.254  0.00  0.00    +0.000 A 
ATOM     23  S   UNL     1      49.465   9.741  18.681  0.00  0.00    +0.000 S 
ATOM     24  C   UNL     1      49.998  10.121  17.109  0.00  0.00    +0.000 A 
ATOM     25  N   UNL     1      50.428  11.368  16.791  0.00  0.00    +0.000 NA
ATOM     26  C   UNL     1      50.803  11.512  15.561  0.00  0.00    +0.000 A 
ATOM     27  N   UNL     1      50.771  10.527  14.595  0.00  0.00    +0.000 N 
ATOM     28  C   UNL     1      51.219  10.786  13.244  0.00  0.00    +0.000 C 
ATOM     29  C   UNL     1      50.319   9.247  14.884  0.00  0.00    +0.000 A 
ATOM     30  O   UNL     1      50.271   8.359  14.035  0.00  0.00    +0.000 OA
ATOM     31  C   UNL     1      49.938   9.030  16.269  0.00  0.00    +0.000 A 
ENDBRANCH  18  21
ENDBRANCH   2  17
TORSDOF 6
ENDMDL
MODEL 6
REMARK VINA RESULT:    -6.502      1.841      2.256
REMARK INTER + INTRA:         -10.121
REMARK INTER:                  -9.007
REMARK INTRA:                  -1.114
REMARK UNBOUND:                -1.338
REMARK  Name = 
REMARK  8 active torsions:
REMARK  status: ('A' for Active; 'I' for Inactive)
REMARK    1  A    between atoms: C_1  and  C_2
REMARK    2  A    between atoms: C_2  and  N_3
REMARK    3  A    between atoms: C_2  and  C_17
REMARK    4  A    between atoms: C_4  and  C_6
REMARK    5  A    between atoms: N_12  and  C_13
REMARK    6  A    between atoms: C_20  and  O_21
REMARK    7  A    between atoms: O_21  and  C_22
REMARK    8  A    between atoms: C_22  and  C_23
REMARK                            x       y       z     vdW  Elec       q    Type
REMARK                         _______ _______ _______ _____ _____    ______ ____
ROOT
ATOM      1  C   UNL     1      50.415   8.158  12.922  0.00  0.00    +0.000 C 
ATOM      2  C   UNL     1      49.150   8.376  13.763  0.00  0.00    +0.000 C 
ENDROOT
BRANCH   2   3
ATOM      3  C   UNL     1      47.918   7.709  13.172  0.00  0.00    +0.000 A 
ATOM      4  C   UNL     1      46.773   8.473  12.897  0.00  0.00    +0.000 A 
ATOM      5  C   UNL     1      45.637   7.879  12.339  0.00  0.00    +0.000 A 
ATOM      6  C   UNL     1      45.625   6.516  12.050  0.00  0.00    +0.000 A 
ATOM      7  C   UNL     1      46.717   5.731  12.417  0.00  0.00    +0.000 A 
ATOM      8  C   UNL     1      47.852   6.323  12.972  0.00  0.00    +0.000 A 
BRANCH   6   9
ATOM      9  O   UNL     1      44.512   6.042  11.410  0.00  0.00    +0.000 OA
BRANCH   9  10
ATOM     10  C   UNL     1      44.349   4.620  11.488  0.00  0.00    +0.000 C 
BRANCH  10  11
ATOM     11  C   UNL     1      44.745   3.958  10.192  0.00  0.00    +0.000 A 
ATOM     12  C   UNL     1      45.308   4.715   9.165  0.00  0.00    +0.000 A 
ATOM     13  C   UNL     1      45.753   4.066   8.019  0.00  0.00    +0.000 A 
ATOM     14  C   UNL     1      45.627   2.686   7.927  0.00  0.00    +0.000 A 
ATOM     15  C   UNL     1      45.059   2.008   8.991  0.00  0.00    +0.000 A 
ATOM     16  N   UNL     1      44.623   2.609  10.120  0.00  0.00    +0.000 NA
ENDBRANCH  10  11
ENDBRANCH   9  10
ENDBRANCH   6   9
ENDBRANCH   2   3
BRANCH   2  17
ATOM     17  N   UNL     1      49.326   7.866  15.101  0.00  0.00    +0.000 N 
ATOM     18  C   UNL     1      48.712   8.364  16.217  0.00  0.00    +0.000 C 
ATOM     19  O   UNL     1      47.863   9.249  16.172  0.00  0.00    +0.000 OA
ATOM     20  H   UNL     1      50.134   7.268  15.220  0.00  0.00    +0.000 HD
BRANCH  18  21
ATOM     21  C   UNL     1      49.085   7.703  17.474  0.00  0.00    +0.000 A 
ATOM     22  C   UNL     1      49.702   8.414  18.494  0.00  0.00    +0.000 A 
ATOM     23  S   UNL     1      49.940   7.492  19.911  0.00  0.00    +0.000 S 
ATOM     24  C   UNL     1      49.274   6.101  19.190  0.00  0.00    +0.000 A 
ATOM     25  N   UNL     1      49.150   4.938  19.878  0.00  0.00    +0.000 NA
ATOM     26  C   UNL     1      48.627   3.965  19.204  0.00  0.00    +0.000 A 
ATOM     27  N   UNL     1      48.230   4.030  17.885  0.00  0.00    +0.000 N 
ATOM     28  C   UNL     1      47.649   2.884  17.219  0.00  0.00    +0.000 C 
ATOM     29  C   UNL     1      48.361   5.199  17.148  0.00  0.00    +0.000 A 
ATOM     30  O   UNL     1      48.024   5.274  15.968  0.00  0.00    +0.000 OA
ATOM     31  C   UNL     1      48.895   6.331  17.884  0.00  0.00    +0.000 A 
ENDBRANCH  18  21
ENDBRANCH   2  17
TORSDOF 6
ENDMDL
MODEL 7
REMARK VINA RESULT:    -6.485      3.509      8.927
REMARK INTER + INTRA:         -10.097
REMARK INTER:                  -9.915
REMARK INTRA:                  -0.182
REMARK UNBOUND:                -1.338
REMARK  Name = 
REMARK  8 active torsions:
REMARK  status: ('A' for Active; 'I' for Inactive)
REMARK    1  A    between atoms: C_1  and  C_2
REMARK    2  A    between atoms: C_2  and  N_3
REMARK    3  A    between atoms: C_2  and  C_17
REMARK    4  A    between atoms: C_4  and  C_6
REMARK    5  A    between atoms: N_12  and  C_13
REMARK    6  A    between atoms: C_20  and  O_21
REMARK    7  A    between atoms: O_21  and  C_22
REMARK    8  A    between atoms: C_22  and  C_23
REMARK                            x       y       z     vdW  Elec       q    Type
REMARK                         _______ _______ _______ _____ _____    ______ ____
ROOT
ATOM      1  C   UNL     1      46.795   2.802  17.475  0.00  0.00    +0.000 C 
ATOM      2  C   UNL     1      47.570   4.126  17.413  0.00  0.00    +0.000 C 
ENDROOT
BRANCH   2   3
ATOM      3  C   UNL     1      49.075   3.941  17.517  0.00  0.00    +0.000 A 
ATOM      4  C   UNL     1      49.627   2.652  17.468  0.00  0.00    +0.000 A 
ATOM      5  C   UNL     1      51.011   2.464  17.546  0.00  0.00    +0.000 A 
ATOM      6  C   UNL     1      51.862   3.559  17.678  0.00  0.00    +0.000 A 
ATOM      7  C   UNL     1      51.318   4.832  17.834  0.00  0.00    +0.000 A 
ATOM      8  C   UNL     1      49.939   5.021  17.754  0.00  0.00    +0.000 A 
BRANCH   6   9
ATOM      9  O   UNL     1      53.204   3.290  17.641  0.00  0.00    +0.000 OA
BRANCH   9  10
ATOM     10  C   UNL     1      53.654   2.402  18.672  0.00  0.00    +0.000 C 
BRANCH  10  11
ATOM     11  C   UNL     1      54.101   1.083  18.093  0.00  0.00    +0.000 A 
ATOM     12  C   UNL     1      54.764   1.048  16.867  0.00  0.00    +0.000 A 
ATOM     13  C   UNL     1      55.250  -0.169  16.402  0.00  0.00    +0.000 A 
ATOM     14  C   UNL     1      55.064  -1.313  17.167  0.00  0.00    +0.000 A 
ATOM     15  C   UNL     1      54.397  -1.193  18.373  0.00  0.00    +0.000 A 
ATOM     16  N   UNL     1      53.918  -0.025  18.855  0.00  0.00    +0.000 NA
ENDBRANCH  10  11
ENDBRANCH   9  10
ENDBRANCH   6   9
ENDBRANCH   2   3
BRANCH   2  17
ATOM     17  N   UNL     1      47.298   4.825  16.180  0.00  0.00    +0.000 N 
ATOM     18  C   UNL     1      47.377   4.272  14.932  0.00  0.00    +0.000 C 
ATOM     19  O   UNL     1      47.599   3.080  14.743  0.00  0.00    +0.000 OA
ATOM     20  H   UNL     1      47.288   5.834  16.263  0.00  0.00    +0.000 HD
BRANCH  18  21
ATOM     21  C   UNL     1      47.096   5.199  13.828  0.00  0.00    +0.000 A 
ATOM     22  C   UNL     1      47.686   6.454  13.787  0.00  0.00    +0.000 A 
ATOM     23  S   UNL     1      47.324   7.324  12.363  0.00  0.00    +0.000 S 
ATOM     24  C   UNL     1      46.328   6.072  11.780  0.00  0.00    +0.000 A 
ATOM     25  N   UNL     1      45.713   6.162  10.573  0.00  0.00    +0.000 NA
ATOM     26  C   UNL     1      44.987   5.137  10.260  0.00  0.00    +0.000 A 
ATOM     27  N   UNL     1      44.791   4.025  11.053  0.00  0.00    +0.000 N 
ATOM     28  C   UNL     1      43.962   2.925  10.609  0.00  0.00    +0.000 C 
ATOM     29  C   UNL     1      45.390   3.912  12.299  0.00  0.00    +0.000 A 
ATOM     30  O   UNL     1      45.218   2.935  13.025  0.00  0.00    +0.000 OA
ATOM     31  C   UNL     1      46.256   5.018  12.666  0.00  0.00    +0.000 A 
ENDBRANCH  18  21
ENDBRANCH   2  17
TORSDOF 6
ENDMDL
MODEL 8
REMARK VINA RESULT:    -6.035      2.372      3.272
REMARK INTER + INTRA:          -9.490
REMARK INTER:                  -8.045
REMARK INTRA:                  -1.444
REMARK UNBOUND:                -1.338
REMARK  Name = 
REMARK  8 active torsions:
REMARK  status: ('A' for Active; 'I' for Inactive)
REMARK    1  A    between atoms: C_1  and  C_2
REMARK    2  A    between atoms: C_2  and  N_3
REMARK    3  A    between atoms: C_2  and  C_17
REMARK    4  A    between atoms: C_4  and  C_6
REMARK    5  A    between atoms: N_12  and  C_13
REMARK    6  A    between atoms: C_20  and  O_21
REMARK    7  A    between atoms: O_21  and  C_22
REMARK    8  A    between atoms: C_22  and  C_23
REMARK                            x       y       z     vdW  Elec       q    Type
REMARK                         _______ _______ _______ _____ _____    ______ ____
ROOT
ATOM      1  C   UNL     1      51.366   8.829  12.526  0.00  0.00    +0.000 C 
ATOM      2  C   UNL     1      50.322   8.672  13.641  0.00  0.00    +0.000 C 
ENDROOT
BRANCH   2   3
ATOM      3  C   UNL     1      48.924   8.393  13.114  0.00  0.00    +0.000 A 
ATOM      4  C   UNL     1      48.717   7.353  12.194  0.00  0.00    +0.000 A 
ATOM      5  C   UNL     1      47.436   7.072  11.710  0.00  0.00    +0.000 A 
ATOM      6  C   UNL     1      46.343   7.827  12.134  0.00  0.00    +0.000 A 
ATOM      7  C   UNL     1      46.554   8.926  12.964  0.00  0.00    +0.000 A 
ATOM      8  C   UNL     1      47.831   9.206  13.449  0.00  0.00    +0.000 A 
BRANCH   6   9
ATOM      9  O   UNL     1      45.115   7.415  11.692  0.00  0.00    +0.000 OA
BRANCH   9  10
ATOM     10  C   UNL     1      44.429   6.537  12.593  0.00  0.00    +0.000 C 
BRANCH  10  11
ATOM     11  C   UNL     1      44.165   5.199  11.948  0.00  0.00    +0.000 A 
ATOM     12  C   UNL     1      44.426   5.015  10.591  0.00  0.00    +0.000 A 
ATOM     13  C   UNL     1      44.266   3.747  10.043  0.00  0.00    +0.000 A 
ATOM     14  C   UNL     1      43.853   2.701  10.858  0.00  0.00    +0.000 A 
ATOM     15  C   UNL     1      43.617   2.967  12.196  0.00  0.00    +0.000 A 
ATOM     16  N   UNL     1      43.769   4.185  12.759  0.00  0.00    +0.000 NA
ENDBRANCH  10  11
ENDBRANCH   9  10
ENDBRANCH   6   9
ENDBRANCH   2   3
BRANCH   2  17
ATOM     17  N   UNL     1      50.678   7.594  14.532  0.00  0.00    +0.000 N 
ATOM     18  C   UNL     1      51.154   7.754  15.804  0.00  0.00    +0.000 C 
ATOM     19  O   UNL     1      51.236   8.849  16.353  0.00  0.00    +0.000 OA
ATOM     20  H   UNL     1      50.800   6.697  14.079  0.00  0.00    +0.000 HD
BRANCH  18  21
ATOM     21  C   UNL     1      51.488   6.505  16.500  0.00  0.00    +0.000 A 
ATOM     22  C   UNL     1      52.799   6.214  16.847  0.00  0.00    +0.000 A 
ATOM     23  S   UNL     1      52.955   4.776  17.755  0.00  0.00    +0.000 S 
ATOM     24  C   UNL     1      51.282   4.470  17.668  0.00  0.00    +0.000 A 
ATOM     25  N   UNL     1      50.729   3.388  18.273  0.00  0.00    +0.000 NA
ATOM     26  C   UNL     1      49.448   3.283  18.123  0.00  0.00    +0.000 A 
ATOM     27  N   UNL     1      48.653   4.150  17.400  0.00  0.00    +0.000 N 
ATOM     28  C   UNL     1      47.224   3.948  17.297  0.00  0.00    +0.000 C 
ATOM     29  C   UNL     1      49.192   5.254  16.755  0.00  0.00    +0.000 A 
ATOM     30  O   UNL     1      48.503   6.031  16.096  0.00  0.00    +0.000 OA
ATOM     31  C   UNL     1      50.620   5.438  16.942  0.00  0.00    +0.000 A 
ENDBRANCH  18  21
ENDBRANCH   2  17
TORSDOF 6
ENDMDL
MODEL 9
REMARK VINA RESULT:    -5.641      2.889      8.874
REMARK INTER + INTRA:          -8.957
REMARK INTER:                  -8.628
REMARK INTRA:                  -0.329
REMARK UNBOUND:                -1.338
REMARK  Name = 
REMARK  8 active torsions:
REMARK  status: ('A' for Active; 'I' for Inactive)
REMARK    1  A    between atoms: C_1  and  C_2
REMARK    2  A    between atoms: C_2  and  N_3
REMARK    3  A    between atoms: C_2  and  C_17
REMARK    4  A    between atoms: C_4  and  C_6
REMARK    5  A    between atoms: N_12  and  C_13
REMARK    6  A    between atoms: C_20  and  O_21
REMARK    7  A    between atoms: O_21  and  C_22
REMARK    8  A    between atoms: C_22  and  C_23
REMARK                            x       y       z     vdW  Elec       q    Type
REMARK                         _______ _______ _______ _____ _____    ______ ____
ROOT
ATOM      1  C   UNL     1      47.100   2.859  17.398  0.00  0.00    +0.000 C 
ATOM      2  C   UNL     1      47.491   4.342  17.468  0.00  0.00    +0.000 C 
ENDROOT
BRANCH   2   3
ATOM      3  C   UNL     1      48.954   4.557  17.819  0.00  0.00    +0.000 A 
ATOM      4  C   UNL     1      49.891   3.543  17.566  0.00  0.00    +0.000 A 
ATOM      5  C   UNL     1      51.243   3.729  17.869  0.00  0.00    +0.000 A 
ATOM      6  C   UNL     1      51.680   4.928  18.430  0.00  0.00    +0.000 A 
ATOM      7  C   UNL     1      50.743   5.898  18.782  0.00  0.00    +0.000 A 
ATOM      8  C   UNL     1      49.394   5.714  18.479  0.00  0.00    +0.000 A 
BRANCH   6   9
ATOM      9  O   UNL     1      53.032   5.062  18.595  0.00  0.00    +0.000 OA
BRANCH   9  10
ATOM     10  C   UNL     1      53.774   5.087  17.368  0.00  0.00    +0.000 C 
BRANCH  10  11
ATOM     11  C   UNL     1      53.922   6.497  16.854  0.00  0.00    +0.000 A 
ATOM     12  C   UNL     1      53.325   6.866  15.649  0.00  0.00    +0.000 A 
ATOM     13  C   UNL     1      53.394   8.194  15.245  0.00  0.00    +0.000 A 
ATOM     14  C   UNL     1      54.050   9.117  16.050  0.00  0.00    +0.000 A 
ATOM     15  C   UNL     1      54.614   8.670  17.232  0.00  0.00    +0.000 A 
ATOM     16  N   UNL     1      54.559   7.388  17.655  0.00  0.00    +0.000 NA
ENDBRANCH  10  11
ENDBRANCH   9  10
ENDBRANCH   6   9
ENDBRANCH   2   3
BRANCH   2  17
ATOM     17  N   UNL     1      47.241   5.000  16.208  0.00  0.00    +0.000 N 
ATOM     18  C   UNL     1      47.372   4.415  14.979  0.00  0.00    +0.000 C 
ATOM     19  O   UNL     1      47.627   3.224  14.831  0.00  0.00    +0.000 OA
ATOM     20  H   UNL     1      47.204   6.010  16.262  0.00  0.00    +0.000 HD
BRANCH  18  21
ATOM     21  C   UNL     1      47.103   5.304  13.842  0.00  0.00    +0.000 A 
ATOM     22  C   UNL     1      47.689   6.559  13.767  0.00  0.00    +0.000 A 
ATOM     23  S   UNL     1      47.345   7.381  12.310  0.00  0.00    +0.000 S 
ATOM     24  C   UNL     1      46.361   6.107  11.755  0.00  0.00    +0.000 A 
ATOM     25  N   UNL     1      45.763   6.154  10.538  0.00  0.00    +0.000 NA
ATOM     26  C   UNL     1      45.045   5.117  10.248  0.00  0.00    +0.000 A 
ATOM     27  N   UNL     1      44.842   4.030  11.074  0.00  0.00    +0.000 N 
ATOM     28  C   UNL     1      44.024   2.913  10.655  0.00  0.00    +0.000 C 
ATOM     29  C   UNL     1      45.424   3.961  12.332  0.00  0.00    +0.000 A 
ATOM     30  O   UNL     1      45.245   3.007  13.087  0.00  0.00    +0.000 OA
ATOM     31  C   UNL     1      46.281   5.082  12.674  0.00  0.00    +0.000 A 
ENDBRANCH  18  21
ENDBRANCH   2  17
TORSDOF 6
ENDMDL
