MODEL 1
REMARK VINA RESULT:    -6.874      0.000      0.000
REMARK INTER + INTRA:         -10.217
REMARK INTER:                  -9.285
REMARK INTRA:                  -0.932
REMARK UNBOUND:                -0.932
REMARK  Name = 
REMARK  7 active torsions:
REMARK  status: ('A' for Active; 'I' for Inactive)
REMARK    1  A    between atoms: C_1  and  O_2
REMARK    2  A    between atoms: O_2  and  C_3
REMARK    3  A    between atoms: C_5  and  C_6
REMARK    4  A    between atoms: C_6  and  N_7
REMARK    5  A    between atoms: C_8  and  C_10
REMARK    6  A    between atoms: C_22  and  C_23
REMARK    7  A    between atoms: C_23  and  N_24
REMARK                            x       y       z     vdW  Elec       q    Type
REMARK                         _______ _______ _______ _____ _____    ______ ____
ROOT
ATOM      1  C   UNL     1      47.442   3.543  16.650  0.00  0.00    +0.000 C 
ENDROOT
BRANCH   1   4
ATOM      2  C   UNL     1      51.144   3.239  17.559  0.00  0.00    +0.000 A 
ATOM      3  C   UNL     1      49.805   2.906  17.319  0.00  0.00    +0.000 A 
ATOM      4  C   UNL     1      48.836   3.908  17.117  0.00  0.00    +0.000 A 
ATOM      5  C   UNL     1      49.236   5.252  17.243  0.00  0.00    +0.000 A 
ATOM      6  C   UNL     1      50.577   5.594  17.528  0.00  0.00    +0.000 A 
ATOM      7  C   UNL     1      51.550   4.581  17.678  0.00  0.00    +0.000 A 
BRANCH   2   9
ATOM      8  C   UNL     1      51.786   0.936  17.635  0.00  0.00    +0.000 C 
ATOM      9  O   UNL     1      52.087   2.303  17.864  0.00  0.00    +0.000 OA
ENDBRANCH   2   9
BRANCH   7  10
ATOM     10  C   UNL     1      53.024   4.917  17.886  0.00  0.00    +0.000 C 
BRANCH  10  11
ATOM     11  N   UNL     1      53.411   5.490  19.186  0.00  0.00    +0.000 NA
ATOM     12  C   UNL     1      54.881   5.637  19.293  0.00  0.00    +0.000 C 
ATOM     13  C   UNL     1      55.659   4.373  19.711  0.00  0.00    +0.000 C 
ATOM     14  O   UNL     1      55.150   3.787  20.910  0.00  0.00    +0.000 OA
ATOM     15  C   UNL     1      53.743   3.545  20.844  0.00  0.00    +0.000 C 
ATOM     16  C   UNL     1      52.937   4.778  20.390  0.00  0.00    +0.000 C 
ENDBRANCH  10  11
ENDBRANCH   7  10
ENDBRANCH   1   4
BRANCH   1  17
ATOM     17  N   UNL     1      46.763   4.488  15.777  0.00  0.00    +0.000 N 
ATOM     18  C   UNL     1      46.769   4.266  14.409  0.00  0.00    +0.000 C 
ATOM     19  O   UNL     1      47.288   3.252  13.944  0.00  0.00    +0.000 OA
ATOM     20  H   UNL     1      46.434   5.367  16.160  0.00  0.00    +0.000 HD
BRANCH  18  21
ATOM     21  C   UNL     1      46.133   5.254  13.510  0.00  0.00    +0.000 A 
ATOM     22  C   UNL     1      46.822   6.417  13.173  0.00  0.00    +0.000 A 
ATOM     23  S   UNL     1      45.973   7.454  12.118  0.00  0.00    +0.000 S 
ATOM     24  C   UNL     1      44.640   6.403  12.080  0.00  0.00    +0.000 A 
ATOM     25  N   UNL     1      43.533   6.712  11.349  0.00  0.00    +0.000 NA
ATOM     26  C   UNL     1      42.589   5.832  11.412  0.00  0.00    +0.000 A 
ATOM     27  N   UNL     1      42.657   4.671  12.138  0.00  0.00    +0.000 N 
ATOM     28  C   UNL     1      43.752   4.319  12.891  0.00  0.00    +0.000 A 
ATOM     29  O   UNL     1      43.772   3.276  13.536  0.00  0.00    +0.000 OA
ATOM     30  C   UNL     1      44.843   5.272  12.856  0.00  0.00    +0.000 A 
ATOM     31  H   UNL     1      41.885   4.023  12.144  0.00  0.00    +0.000 HD
ENDBRANCH  18  21
ENDBRANCH   1  17
TORSDOF 6
ENDMDL
MODEL 2
REMARK VINA RESULT:    -6.851      3.171      9.749
REMARK INTER + INTRA:         -10.186
REMARK INTER:                  -9.263
REMARK INTRA:                  -0.923
REMARK UNBOUND:                -0.932
REMARK  Name = 
REMARK  7 active torsions:
REMARK  status: ('A' for Active; 'I' for Inactive)
REMARK    1  A    between atoms: C_1  and  O_2
REMARK    2  A    between atoms: O_2  and  C_3
REMARK    3  A    between atoms: C_5  and  C_6
REMARK    4  A    between atoms: C_6  and  N_7
REMARK    5  A    between atoms: C_8  and  C_10
REMARK    6  A    between atoms: C_22  and  C_23
REMARK    7  A    between atoms: C_23  and  N_24
REMARK                            x       y       z     vdW  Elec       q    Type
REMARK                         _______ _______ _______ _____ _____    ______ ____
ROOT
ATOM      1  C   UNL     1      49.642   6.488  16.778  0.00  0.00    +0.000 C 
ENDROOT
BRANCH   1   4
ATOM      2  C   UNL     1      47.514   5.882  13.658  0.00  0.00    +0.000 A 
ATOM      3  C   UNL     1      48.364   6.497  14.585  0.00  0.00    +0.000 A 
ATOM      4  C   UNL     1      48.566   5.940  15.863  0.00  0.00    +0.000 A 
ATOM      5  C   UNL     1      47.826   4.793  16.210  0.00  0.00    +0.000 A 
ATOM      6  C   UNL     1      46.935   4.192  15.293  0.00  0.00    +0.000 A 
ATOM      7  C   UNL     1      46.779   4.730  13.997  0.00  0.00    +0.000 A 
BRANCH   2   9
ATOM      8  C   UNL     1      47.247   7.860  12.340  0.00  0.00    +0.000 C 
ATOM      9  O   UNL     1      47.213   6.447  12.455  0.00  0.00    +0.000 OA
ENDBRANCH   2   9
BRANCH   7  10
ATOM     10  C   UNL     1      45.902   4.050  12.951  0.00  0.00    +0.000 C 
BRANCH  10  11
ATOM     11  N   UNL     1      44.443   4.188  13.098  0.00  0.00    +0.000 NA
ATOM     12  C   UNL     1      43.721   3.313  12.144  0.00  0.00    +0.000 C 
ATOM     13  C   UNL     1      43.548   3.869  10.716  0.00  0.00    +0.000 C 
ATOM     14  O   UNL     1      42.966   5.172  10.701  0.00  0.00    +0.000 OA
ATOM     15  C   UNL     1      43.665   6.091  11.543  0.00  0.00    +0.000 C 
ATOM     16  C   UNL     1      43.891   5.551  12.970  0.00  0.00    +0.000 C 
ENDBRANCH  10  11
ENDBRANCH   7  10
ENDBRANCH   1   4
BRANCH   1  17
ATOM     17  N   UNL     1      50.765   5.615  17.082  0.00  0.00    +0.000 N 
ATOM     18  C   UNL     1      50.735   4.857  18.241  0.00  0.00    +0.000 C 
ATOM     19  O   UNL     1      49.745   4.875  18.973  0.00  0.00    +0.000 OA
ATOM     20  H   UNL     1      51.613   5.689  16.530  0.00  0.00    +0.000 HD
BRANCH  18  21
ATOM     21  C   UNL     1      51.899   4.014  18.588  0.00  0.00    +0.000 A 
ATOM     22  C   UNL     1      52.894   4.525  19.419  0.00  0.00    +0.000 A 
ATOM     23  S   UNL     1      54.165   3.436  19.743  0.00  0.00    +0.000 S 
ATOM     24  C   UNL     1      53.453   2.238  18.774  0.00  0.00    +0.000 A 
ATOM     25  N   UNL     1      54.054   1.028  18.611  0.00  0.00    +0.000 NA
ATOM     26  C   UNL     1      53.412   0.211  17.843  0.00  0.00    +0.000 A 
ATOM     27  N   UNL     1      52.221   0.498  17.229  0.00  0.00    +0.000 N 
ATOM     28  C   UNL     1      51.577   1.706  17.363  0.00  0.00    +0.000 A 
ATOM     29  O   UNL     1      50.517   1.930  16.788  0.00  0.00    +0.000 OA
ATOM     30  C   UNL     1      52.256   2.662  18.215  0.00  0.00    +0.000 A 
ATOM     31  H   UNL     1      51.767  -0.185  16.641  0.00  0.00    +0.000 HD
ENDBRANCH  18  21
ENDBRANCH   1  17
TORSDOF 6
ENDMDL
MODEL 3
REMARK VINA RESULT:    -6.682      1.336      2.134
REMARK INTER + INTRA:          -9.958
REMARK INTER:                  -9.049
REMARK INTRA:                  -0.909
REMARK UNBOUND:                -0.932
REMARK  Name = 
REMARK  7 active torsions:
REMARK  status: ('A' for Active; 'I' for Inactive)
REMARK    1  A    between atoms: C_1  and  O_2
REMARK    2  A    between atoms: O_2  and  C_3
REMARK    3  A    between atoms: C_5  and  C_6
REMARK    4  A    between atoms: C_6  and  N_7
REMARK    5  A    between atoms: C_8  and  C_10
REMARK    6  A    between atoms: C_22  and  C_23
REMARK    7  A    between atoms: C_23  and  N_24
REMARK                            x       y       z     vdW  Elec       q    Type
REMARK                         _______ _______ _______ _____ _____    ______ ____
ROOT
ATOM      1  C   UNL     1      47.289   3.351  16.799  0.00  0.00    +0.000 C 
ENDROOT
BRANCH   1   4
ATOM      2  C   UNL     1      50.555   4.569  18.372  0.00  0.00    +0.000 A 
ATOM      3  C   UNL     1      49.251   4.559  17.863  0.00  0.00    +0.000 A 
ATOM      4  C   UNL     1      48.757   3.443  17.159  0.00  0.00    +0.000 A 
ATOM      5  C   UNL     1      49.639   2.373  16.912  0.00  0.00    +0.000 A 
ATOM      6  C   UNL     1      50.970   2.395  17.386  0.00  0.00    +0.000 A 
ATOM      7  C   UNL     1      51.438   3.498  18.134  0.00  0.00    +0.000 A 
BRANCH   2   9
ATOM      8  C   UNL     1      50.234   6.692  19.425  0.00  0.00    +0.000 C 
ATOM      9  O   UNL     1      51.101   5.669  18.963  0.00  0.00    +0.000 OA
ENDBRANCH   2   9
BRANCH   7  10
ATOM     10  C   UNL     1      52.835   3.511  18.745  0.00  0.00    +0.000 C 
BRANCH  10  11
ATOM     11  N   UNL     1      53.967   3.780  17.841  0.00  0.00    +0.000 NA
ATOM     12  C   UNL     1      55.264   3.602  18.535  0.00  0.00    +0.000 C 
ATOM     13  C   UNL     1      55.753   4.801  19.372  0.00  0.00    +0.000 C 
ATOM     14  O   UNL     1      55.775   6.018  18.626  0.00  0.00    +0.000 OA
ATOM     15  C   UNL     1      54.524   6.292  17.991  0.00  0.00    +0.000 C 
ATOM     16  C   UNL     1      53.985   5.098  17.177  0.00  0.00    +0.000 C 
ENDBRANCH  10  11
ENDBRANCH   7  10
ENDBRANCH   1   4
BRANCH   1  17
ATOM     17  N   UNL     1      46.757   4.369  15.907  0.00  0.00    +0.000 N 
ATOM     18  C   UNL     1      46.809   4.159  14.539  0.00  0.00    +0.000 C 
ATOM     19  O   UNL     1      47.245   3.100  14.086  0.00  0.00    +0.000 OA
ATOM     20  H   UNL     1      46.501   5.274  16.286  0.00  0.00    +0.000 HD
BRANCH  18  21
ATOM     21  C   UNL     1      46.326   5.215  13.623  0.00  0.00    +0.000 A 
ATOM     22  C   UNL     1      47.153   6.295  13.324  0.00  0.00    +0.000 A 
ATOM     23  S   UNL     1      46.469   7.425  12.244  0.00  0.00    +0.000 S 
ATOM     24  C   UNL     1      45.030   6.530  12.142  0.00  0.00    +0.000 A 
ATOM     25  N   UNL     1      43.996   6.962  11.369  0.00  0.00    +0.000 NA
ATOM     26  C   UNL     1      42.959   6.193  11.386  0.00  0.00    +0.000 A 
ATOM     27  N   UNL     1      42.867   5.029  12.104  0.00  0.00    +0.000 N 
ATOM     28  C   UNL     1      43.883   4.553  12.898  0.00  0.00    +0.000 A 
ATOM     29  O   UNL     1      43.760   3.512  13.535  0.00  0.00    +0.000 OA
ATOM     30  C   UNL     1      45.074   5.379  12.917  0.00  0.00    +0.000 A 
ATOM     31  H   UNL     1      42.027   4.471  12.073  0.00  0.00    +0.000 HD
ENDBRANCH  18  21
ENDBRANCH   1  17
TORSDOF 6
ENDMDL
MODEL 4
REMARK VINA RESULT:    -6.645      1.989      2.886
REMARK INTER + INTRA:          -9.908
REMARK INTER:                  -8.955
REMARK INTRA:                  -0.953
REMARK UNBOUND:                -0.932
REMARK  Name = 
REMARK  7 active torsions:
REMARK  status: ('A' for Active; 'I' for Inactive)
REMARK    1  A    between atoms: C_1  and  O_2
REMARK    2  A    between atoms: O_2  and  C_3
REMARK    3  A    between atoms: C_5  and  C_6
REMARK    4  A    between atoms: C_6  and  N_7
REMARK    5  A    between atoms: C_8  and  C_10
REMARK    6  A    between atoms: C_22  and  C_23
REMARK    7  A    between atoms: C_23  and  N_24
REMARK                            x       y       z     vdW  Elec       q    Type
REMARK                         _______ _______ _______ _____ _____    ______ ____
ROOT
ATOM      1  C   UNL     1      49.248   7.620  15.480  0.00  0.00    +0.000 C 
ENDROOT
BRANCH   1   4
ATOM      2  C   UNL     1      49.915   4.390  17.414  0.00  0.00    +0.000 A 
ATOM      3  C   UNL     1      49.244   5.465  16.819  0.00  0.00    +0.000 A 
ATOM      4  C   UNL     1      49.955   6.568  16.308  0.00  0.00    +0.000 A 
ATOM      5  C   UNL     1      51.352   6.597  16.486  0.00  0.00    +0.000 A 
ATOM      6  C   UNL     1      52.031   5.534  17.125  0.00  0.00    +0.000 A 
ATOM      7  C   UNL     1      51.312   4.409  17.587  0.00  0.00    +0.000 A 
BRANCH   2   9
ATOM      8  C   UNL     1      47.858   3.235  17.810  0.00  0.00    +0.000 C 
ATOM      9  O   UNL     1      49.256   3.358  18.013  0.00  0.00    +0.000 OA
ENDBRANCH   2   9
BRANCH   7  10
ATOM     10  C   UNL     1      52.024   3.203  18.191  0.00  0.00    +0.000 C 
BRANCH  10  11
ATOM     11  N   UNL     1      53.467   3.066  17.928  0.00  0.00    +0.000 NA
ATOM     12  C   UNL     1      53.797   1.708  17.436  0.00  0.00    +0.000 C 
ATOM     13  C   UNL     1      53.974   0.622  18.516  0.00  0.00    +0.000 C 
ATOM     14  O   UNL     1      54.906   1.002  19.529  0.00  0.00    +0.000 OA
ATOM     15  C   UNL     1      54.599   2.273  20.104  0.00  0.00    +0.000 C 
ATOM     16  C   UNL     1      54.376   3.376  19.049  0.00  0.00    +0.000 C 
ENDBRANCH  10  11
ENDBRANCH   7  10
ENDBRANCH   1   4
BRANCH   1  17
ATOM     17  N   UNL     1      48.003   7.234  14.833  0.00  0.00    +0.000 N 
ATOM     18  C   UNL     1      48.047   6.687  13.561  0.00  0.00    +0.000 C 
ATOM     19  O   UNL     1      49.127   6.475  13.010  0.00  0.00    +0.000 OA
ATOM     20  H   UNL     1      47.122   7.509  15.252  0.00  0.00    +0.000 HD
BRANCH  18  21
ATOM     21  C   UNL     1      46.783   6.347  12.873  0.00  0.00    +0.000 A 
ATOM     22  C   UNL     1      46.049   7.354  12.248  0.00  0.00    +0.000 A 
ATOM     23  S   UNL     1      44.624   6.812  11.484  0.00  0.00    +0.000 S 
ATOM     24  C   UNL     1      44.914   5.211  11.970  0.00  0.00    +0.000 A 
ATOM     25  N   UNL     1      44.042   4.218  11.642  0.00  0.00    +0.000 NA
ATOM     26  C   UNL     1      44.376   3.049  12.079  0.00  0.00    +0.000 A 
ATOM     27  N   UNL     1      45.506   2.787  12.809  0.00  0.00    +0.000 N 
ATOM     28  C   UNL     1      46.413   3.757  13.164  0.00  0.00    +0.000 A 
ATOM     29  O   UNL     1      47.409   3.486  13.827  0.00  0.00    +0.000 OA
ATOM     30  C   UNL     1      46.087   5.090  12.699  0.00  0.00    +0.000 A 
ATOM     31  H   UNL     1      45.712   1.850  13.120  0.00  0.00    +0.000 HD
ENDBRANCH  18  21
ENDBRANCH   1  17
TORSDOF 6
ENDMDL
MODEL 5
REMARK VINA RESULT:    -6.560      1.932      2.774
REMARK INTER + INTRA:          -9.793
REMARK INTER:                  -8.801
REMARK INTRA:                  -0.992
REMARK UNBOUND:                -0.932
REMARK  Name = 
REMARK  7 active torsions:
REMARK  status: ('A' for Active; 'I' for Inactive)
REMARK    1  A    between atoms: C_1  and  O_2
REMARK    2  A    between atoms: O_2  and  C_3
REMARK    3  A    between atoms: C_5  and  C_6
REMARK    4  A    between atoms: C_6  and  N_7
REMARK    5  A    between atoms: C_8  and  C_10
REMARK    6  A    between atoms: C_22  and  C_23
REMARK    7  A    between atoms: C_23  and  N_24
REMARK                            x       y       z     vdW  Elec       q    Type
REMARK                         _______ _______ _______ _____ _____    ______ ____
ROOT
ATOM      1  C   UNL     1      48.349   7.368  14.620  0.00  0.00    +0.000 C 
ENDROOT
BRANCH   1   4
ATOM      2  C   UNL     1      49.224   4.684  17.199  0.00  0.00    +0.000 A 
ATOM      3  C   UNL     1      48.487   5.508  16.340  0.00  0.00    +0.000 A 
ATOM      4  C   UNL     1      49.088   6.612  15.704  0.00  0.00    +0.000 A 
ATOM      5  C   UNL     1      50.427   6.910  16.020  0.00  0.00    +0.000 A 
ATOM      6  C   UNL     1      51.164   6.106  16.919  0.00  0.00    +0.000 A 
ATOM      7  C   UNL     1      50.566   4.972  17.511  0.00  0.00    +0.000 A 
BRANCH   2   9
ATOM      8  C   UNL     1      47.408   3.150  17.473  0.00  0.00    +0.000 C 
ATOM      9  O   UNL     1      48.651   3.673  17.912  0.00  0.00    +0.000 OA
ENDBRANCH   2   9
BRANCH   7  10
ATOM     10  C   UNL     1      51.361   4.029  18.407  0.00  0.00    +0.000 C 
BRANCH  10  11
ATOM     11  N   UNL     1      52.821   4.218  18.464  0.00  0.00    +0.000 NA
ATOM     12  C   UNL     1      53.539   3.020  17.969  0.00  0.00    +0.000 C 
ATOM     13  C   UNL     1      53.729   1.877  18.987  0.00  0.00    +0.000 C 
ATOM     14  O   UNL     1      54.327   2.322  20.205  0.00  0.00    +0.000 OA
ATOM     15  C   UNL     1      53.634   3.432  20.780  0.00  0.00    +0.000 C 
ATOM     16  C   UNL     1      53.391   4.578  19.778  0.00  0.00    +0.000 C 
ENDBRANCH  10  11
ENDBRANCH   7  10
ENDBRANCH   1   4
BRANCH   1  17
ATOM     17  N   UNL     1      47.107   6.789  14.131  0.00  0.00    +0.000 N 
ATOM     18  C   UNL     1      46.832   6.830  12.774  0.00  0.00    +0.000 C 
ATOM     19  O   UNL     1      47.654   7.296  11.985  0.00  0.00    +0.000 OA
ATOM     20  H   UNL     1      46.398   6.506  14.798  0.00  0.00    +0.000 HD
BRANCH  18  21
ATOM     21  C   UNL     1      45.545   6.298  12.277  0.00  0.00    +0.000 A 
ATOM     22  C   UNL     1      44.626   7.164  11.689  0.00  0.00    +0.000 A 
ATOM     23  S   UNL     1      43.195   6.408  11.151  0.00  0.00    +0.000 S 
ATOM     24  C   UNL     1      43.733   4.892  11.695  0.00  0.00    +0.000 A 
ATOM     25  N   UNL     1      42.955   3.785  11.546  0.00  0.00    +0.000 NA
ATOM     26  C   UNL     1      43.479   2.698  12.009  0.00  0.00    +0.000 A 
ATOM     27  N   UNL     1      44.712   2.623  12.603  0.00  0.00    +0.000 N 
ATOM     28  C   UNL     1      45.531   3.713  12.775  0.00  0.00    +0.000 A 
ATOM     29  O   UNL     1      46.624   3.608  13.322  0.00  0.00    +0.000 OA
ATOM     30  C   UNL     1      44.992   4.961  12.273  0.00  0.00    +0.000 A 
ATOM     31  H   UNL     1      45.066   1.741  12.943  0.00  0.00    +0.000 HD
ENDBRANCH  18  21
ENDBRANCH   1  17
TORSDOF 6
ENDMDL
MODEL 6
REMARK VINA RESULT:    -6.480      3.742      4.676
REMARK INTER + INTRA:          -9.685
REMARK INTER:                  -8.539
REMARK INTRA:                  -1.147
REMARK UNBOUND:                -0.932
REMARK  Name = 
REMARK  7 active torsions:
REMARK  status: ('A' for Active; 'I' for Inactive)
REMARK    1  A    between atoms: C_1  and  O_2
REMARK    2  A    between atoms: O_2  and  C_3
REMARK    3  A    between atoms: C_5  and  C_6
REMARK    4  A    between atoms: C_6  and  N_7
REMARK    5  A    between atoms: C_8  and  C_10
REMARK    6  A    between atoms: C_22  and  C_23
REMARK    7  A    between atoms: C_23  and  N_24
REMARK                            x       y       z     vdW  Elec       q    Type
REMARK                         _______ _______ _______ _____ _____    ______ ____
ROOT
ATOM      1  C   UNL     1      48.003   8.091  12.439  0.00  0.00    +0.000 C 
ENDROOT
BRANCH   1   4
ATOM      2  C   UNL     1      48.836   6.422  15.777  0.00  0.00    +0.000 A 
ATOM      3  C   UNL     1      48.331   6.631  14.488  0.00  0.00    +0.000 A 
ATOM      4  C   UNL     1      48.352   7.911  13.902  0.00  0.00    +0.000 A 
ATOM      5  C   UNL     1      48.819   8.989  14.678  0.00  0.00    +0.000 A 
ATOM      6  C   UNL     1      49.291   8.792  15.996  0.00  0.00    +0.000 A 
ATOM      7  C   UNL     1      49.313   7.495  16.554  0.00  0.00    +0.000 A 
BRANCH   2   9
ATOM      8  C   UNL     1      47.618   4.396  16.139  0.00  0.00    +0.000 C 
ATOM      9  O   UNL     1      48.737   5.222  16.416  0.00  0.00    +0.000 OA
ENDBRANCH   2   9
BRANCH   7  10
ATOM     10  C   UNL     1      49.907   7.232  17.935  0.00  0.00    +0.000 C 
BRANCH  10  11
ATOM     11  N   UNL     1      49.145   7.706  19.102  0.00  0.00    +0.000 NA
ATOM     12  C   UNL     1      49.705   7.169  20.364  0.00  0.00    +0.000 C 
ATOM     13  C   UNL     1      49.255   5.746  20.752  0.00  0.00    +0.000 C 
ATOM     14  O   UNL     1      47.835   5.603  20.761  0.00  0.00    +0.000 OA
ATOM     15  C   UNL     1      47.235   6.032  19.537  0.00  0.00    +0.000 C 
ATOM     16  C   UNL     1      47.693   7.437  19.098  0.00  0.00    +0.000 C 
ENDBRANCH  10  11
ENDBRANCH   7  10
ENDBRANCH   1   4
BRANCH   1  17
ATOM     17  N   UNL     1      47.469   6.935  11.735  0.00  0.00    +0.000 N 
ATOM     18  C   UNL     1      46.107   6.865  11.490  0.00  0.00    +0.000 C 
ATOM     19  O   UNL     1      45.367   7.795  11.810  0.00  0.00    +0.000 OA
ATOM     20  H   UNL     1      48.069   6.134  11.572  0.00  0.00    +0.000 HD
BRANCH  18  21
ATOM     21  C   UNL     1      45.549   5.666  10.828  0.00  0.00    +0.000 A 
ATOM     22  C   UNL     1      45.748   5.481   9.462  0.00  0.00    +0.000 A 
ATOM     23  S   UNL     1      45.061   4.049   8.840  0.00  0.00    +0.000 S 
ATOM     24  C   UNL     1      44.452   3.621  10.366  0.00  0.00    +0.000 A 
ATOM     25  N   UNL     1      43.734   2.476  10.531  0.00  0.00    +0.000 NA
ATOM     26  C   UNL     1      43.323   2.273  11.738  0.00  0.00    +0.000 A 
ATOM     27  N   UNL     1      43.570   3.111  12.794  0.00  0.00    +0.000 N 
ATOM     28  C   UNL     1      44.289   4.277  12.675  0.00  0.00    +0.000 A 
ATOM     29  O   UNL     1      44.481   5.008  13.642  0.00  0.00    +0.000 OA
ATOM     30  C   UNL     1      44.775   4.555  11.339  0.00  0.00    +0.000 A 
ATOM     31  H   UNL     1      43.222   2.894  13.716  0.00  0.00    +0.000 HD
ENDBRANCH  18  21
ENDBRANCH   1  17
TORSDOF 6
ENDMDL
MODEL 7
REMARK VINA RESULT:    -5.996      3.184      4.428
REMARK INTER + INTRA:          -9.031
REMARK INTER:                  -8.000
REMARK INTRA:                  -1.032
REMARK UNBOUND:                -0.932
REMARK  Name = 
REMARK  7 active torsions:
REMARK  status: ('A' for Active; 'I' for Inactive)
REMARK    1  A    between atoms: C_1  and  O_2
REMARK    2  A    between atoms: O_2  and  C_3
REMARK    3  A    between atoms: C_5  and  C_6
REMARK    4  A    between atoms: C_6  and  N_7
REMARK    5  A    between atoms: C_8  and  C_10
REMARK    6  A    between atoms: C_22  and  C_23
REMARK    7  A    between atoms: C_23  and  N_24
REMARK                            x       y       z     vdW  Elec       q    Type
REMARK                         _______ _______ _______ _____ _____    ______ ____
ROOT
ATOM      1  C   UNL     1      47.589   7.780  12.110  0.00  0.00    +0.000 C 
ENDROOT
BRANCH   1   4
ATOM      2  C   UNL     1      49.099   6.661  15.441  0.00  0.00    +0.000 A 
ATOM      3  C   UNL     1      48.197   6.829  14.383  0.00  0.00    +0.000 A 
ATOM      4  C   UNL     1      48.454   7.755  13.353  0.00  0.00    +0.000 A 
ATOM      5  C   UNL     1      49.601   8.565  13.462  0.00  0.00    +0.000 A 
ATOM      6  C   UNL     1      50.493   8.431  14.550  0.00  0.00    +0.000 A 
ATOM      7  C   UNL     1      50.251   7.462  15.549  0.00  0.00    +0.000 A 
BRANCH   2   9
ATOM      8  C   UNL     1      47.901   4.798  16.343  0.00  0.00    +0.000 C 
ATOM      9  O   UNL     1      48.834   5.853  16.506  0.00  0.00    +0.000 OA
ENDBRANCH   2   9
BRANCH   7  10
ATOM     10  C   UNL     1      51.244   7.223  16.683  0.00  0.00    +0.000 C 
BRANCH  10  11
ATOM     11  N   UNL     1      52.139   6.060  16.566  0.00  0.00    +0.000 NA
ATOM     12  C   UNL     1      52.110   5.232  17.794  0.00  0.00    +0.000 C 
ATOM     13  C   UNL     1      53.013   5.707  18.951  0.00  0.00    +0.000 C 
ATOM     14  O   UNL     1      54.366   5.908  18.543  0.00  0.00    +0.000 OA
ATOM     15  C   UNL     1      54.472   6.765  17.404  0.00  0.00    +0.000 C 
ATOM     16  C   UNL     1      53.552   6.342  16.242  0.00  0.00    +0.000 C 
ENDBRANCH  10  11
ENDBRANCH   7  10
ENDBRANCH   1   4
BRANCH   1  17
ATOM     17  N   UNL     1      46.971   6.528  11.704  0.00  0.00    +0.000 N 
ATOM     18  C   UNL     1      45.608   6.358  11.889  0.00  0.00    +0.000 C 
ATOM     19  O   UNL     1      44.920   7.276  12.335  0.00  0.00    +0.000 OA
ATOM     20  H   UNL     1      47.562   5.748  11.438  0.00  0.00    +0.000 HD
BRANCH  18  21
ATOM     21  C   UNL     1      44.983   5.066  11.534  0.00  0.00    +0.000 A 
ATOM     22  C   UNL     1      44.245   4.375  12.492  0.00  0.00    +0.000 A 
ATOM     23  S   UNL     1      43.571   2.910  11.937  0.00  0.00    +0.000 S 
ATOM     24  C   UNL     1      44.250   3.125  10.396  0.00  0.00    +0.000 A 
ATOM     25  N   UNL     1      44.060   2.198   9.417  0.00  0.00    +0.000 NA
ATOM     26  C   UNL     1      44.636   2.479   8.296  0.00  0.00    +0.000 A 
ATOM     27  N   UNL     1      45.380   3.607   8.067  0.00  0.00    +0.000 N 
ATOM     28  C   UNL     1      45.600   4.570   9.023  0.00  0.00    +0.000 A 
ATOM     29  O   UNL     1      46.281   5.561   8.784  0.00  0.00    +0.000 OA
ATOM     30  C   UNL     1      44.976   4.304  10.304  0.00  0.00    +0.000 A 
ATOM     31  H   UNL     1      45.803   3.770   7.165  0.00  0.00    +0.000 HD
ENDBRANCH  18  21
ENDBRANCH   1  17
TORSDOF 6
ENDMDL
MODEL 8
REMARK VINA RESULT:    -5.886      4.501      9.287
REMARK INTER + INTRA:          -8.882
REMARK INTER:                  -8.718
REMARK INTRA:                  -0.164
REMARK UNBOUND:                -0.932
REMARK  Name = 
REMARK  7 active torsions:
REMARK  status: ('A' for Active; 'I' for Inactive)
REMARK    1  A    between atoms: C_1  and  O_2
REMARK    2  A    between atoms: O_2  and  C_3
REMARK    3  A    between atoms: C_5  and  C_6
REMARK    4  A    between atoms: C_6  and  N_7
REMARK    5  A    between atoms: C_8  and  C_10
REMARK    6  A    between atoms: C_22  and  C_23
REMARK    7  A    between atoms: C_23  and  N_24
REMARK                            x       y       z     vdW  Elec       q    Type
REMARK                         _______ _______ _______ _____ _____    ______ ____
ROOT
ATOM      1  C   UNL     1      47.713   8.776  13.824  0.00  0.00    +0.000 C 
ENDROOT
BRANCH   1   4
ATOM      2  C   UNL     1      46.914   5.074  13.295  0.00  0.00    +0.000 A 
ATOM      3  C   UNL     1      47.528   6.246  13.752  0.00  0.00    +0.000 A 
ATOM      4  C   UNL     1      47.209   7.497  13.188  0.00  0.00    +0.000 A 
ATOM      5  C   UNL     1      46.318   7.524  12.098  0.00  0.00    +0.000 A 
ATOM      6  C   UNL     1      45.728   6.339  11.604  0.00  0.00    +0.000 A 
ATOM      7  C   UNL     1      46.015   5.097  12.212  0.00  0.00    +0.000 A 
BRANCH   2   9
ATOM      8  C   UNL     1      47.391   3.629  15.141  0.00  0.00    +0.000 C 
ATOM      9  O   UNL     1      47.273   3.837  13.743  0.00  0.00    +0.000 OA
ENDBRANCH   2   9
BRANCH   7  10
ATOM     10  C   UNL     1      45.320   3.814  11.768  0.00  0.00    +0.000 C 
BRANCH  10  11
ATOM     11  N   UNL     1      44.410   3.900  10.614  0.00  0.00    +0.000 NA
ATOM     12  C   UNL     1      44.104   2.558  10.067  0.00  0.00    +0.000 C 
ATOM     13  C   UNL     1      45.148   1.970   9.096  0.00  0.00    +0.000 C 
ATOM     14  O   UNL     1      45.464   2.859   8.025  0.00  0.00    +0.000 OA
ATOM     15  C   UNL     1      45.845   4.157   8.488  0.00  0.00    +0.000 C 
ATOM     16  C   UNL     1      44.842   4.759   9.493  0.00  0.00    +0.000 C 
ENDBRANCH  10  11
ENDBRANCH   7  10
ENDBRANCH   1   4
BRANCH   1  17
ATOM     17  N   UNL     1      47.384   8.998  15.223  0.00  0.00    +0.000 N 
ATOM     18  C   UNL     1      48.389   8.911  16.173  0.00  0.00    +0.000 C 
ATOM     19  O   UNL     1      49.554   8.708  15.832  0.00  0.00    +0.000 OA
ATOM     20  H   UNL     1      46.410   9.059  15.499  0.00  0.00    +0.000 HD
BRANCH  18  21
ATOM     21  C   UNL     1      48.051   9.077  17.603  0.00  0.00    +0.000 A 
ATOM     22  C   UNL     1      47.845  10.355  18.116  0.00  0.00    +0.000 A 
ATOM     23  S   UNL     1      47.450  10.391  19.775  0.00  0.00    +0.000 S 
ATOM     24  C   UNL     1      47.554   8.700  19.886  0.00  0.00    +0.000 A 
ATOM     25  N   UNL     1      47.333   8.067  21.071  0.00  0.00    +0.000 NA
ATOM     26  C   UNL     1      47.451   6.782  21.020  0.00  0.00    +0.000 A 
ATOM     27  N   UNL     1      47.766   6.076  19.888  0.00  0.00    +0.000 N 
ATOM     28  C   UNL     1      47.998   6.671  18.671  0.00  0.00    +0.000 A 
ATOM     29  O   UNL     1      48.288   6.006  17.681  0.00  0.00    +0.000 OA
ATOM     30  C   UNL     1      47.879   8.115  18.671  0.00  0.00    +0.000 A 
ATOM     31  H   UNL     1      47.841   5.070  19.913  0.00  0.00    +0.000 HD
ENDBRANCH  18  21
ENDBRANCH   1  17
TORSDOF 6
ENDMDL
MODEL 9
REMARK VINA RESULT:    -5.748      3.906      9.179
REMARK INTER + INTRA:          -8.696
REMARK INTER:                  -7.570
REMARK INTRA:                  -1.126
REMARK UNBOUND:                -0.932
REMARK  Name = 
REMARK  7 active torsions:
REMARK  status: ('A' for Active; 'I' for Inactive)
REMARK    1  A    between atoms: C_1  and  O_2
REMARK    2  A    between atoms: O_2  and  C_3
REMARK    3  A    between atoms: C_5  and  C_6
REMARK    4  A    between atoms: C_6  and  N_7
REMARK    5  A    between atoms: C_8  and  C_10
REMARK    6  A    between atoms: C_22  and  C_23
REMARK    7  A    between atoms: C_23  and  N_24
REMARK                            x       y       z     vdW  Elec       q    Type
REMARK                         _______ _______ _______ _____ _____    ______ ____
ROOT
ATOM      1  C   UNL     1      48.038   9.297  15.005  0.00  0.00    +0.000 C 
ENDROOT
BRANCH   1   4
ATOM      2  C   UNL     1      47.297   6.029  13.162  0.00  0.00    +0.000 A 
ATOM      3  C   UNL     1      47.850   6.949  14.062  0.00  0.00    +0.000 A 
ATOM      4  C   UNL     1      47.619   8.330  13.917  0.00  0.00    +0.000 A 
ATOM      5  C   UNL     1      46.885   8.766  12.796  0.00  0.00    +0.000 A 
ATOM      6  C   UNL     1      46.361   7.845  11.861  0.00  0.00    +0.000 A 
ATOM      7  C   UNL     1      46.556   6.458  12.045  0.00  0.00    +0.000 A 
BRANCH   2   9
ATOM      8  C   UNL     1      47.124   3.941  14.316  0.00  0.00    +0.000 C 
ATOM      9  O   UNL     1      47.585   4.697  13.209  0.00  0.00    +0.000 OA
ENDBRANCH   2   9
BRANCH   7  10
ATOM     10  C   UNL     1      45.921   5.434  11.111  0.00  0.00    +0.000 C 
BRANCH  10  11
ATOM     11  N   UNL     1      44.450   5.383  11.059  0.00  0.00    +0.000 NA
ATOM     12  C   UNL     1      43.872   5.157  12.404  0.00  0.00    +0.000 C 
ATOM     13  C   UNL     1      43.823   3.691  12.881  0.00  0.00    +0.000 C 
ATOM     14  O   UNL     1      43.188   2.828  11.938  0.00  0.00    +0.000 OA
ATOM     15  C   UNL     1      43.752   2.940  10.630  0.00  0.00    +0.000 C 
ATOM     16  C   UNL     1      43.853   4.397  10.137  0.00  0.00    +0.000 C 
ENDBRANCH  10  11
ENDBRANCH   7  10
ENDBRANCH   1   4
BRANCH   1  17
ATOM     17  N   UNL     1      47.918   8.842  16.381  0.00  0.00    +0.000 N 
ATOM     18  C   UNL     1      49.064   8.502  17.081  0.00  0.00    +0.000 C 
ATOM     19  O   UNL     1      50.174   8.639  16.565  0.00  0.00    +0.000 OA
ATOM     20  H   UNL     1      46.999   8.634  16.756  0.00  0.00    +0.000 HD
BRANCH  18  21
ATOM     21  C   UNL     1      48.946   7.982  18.460  0.00  0.00    +0.000 A 
ATOM     22  C   UNL     1      48.916   8.874  19.530  0.00  0.00    +0.000 A 
ATOM     23  S   UNL     1      48.762   8.133  21.058  0.00  0.00    +0.000 S 
ATOM     24  C   UNL     1      48.748   6.585  20.360  0.00  0.00    +0.000 A 
ATOM     25  N   UNL     1      48.647   5.473  21.139  0.00  0.00    +0.000 NA
ATOM     26  C   UNL     1      48.655   4.360  20.484  0.00  0.00    +0.000 A 
ATOM     27  N   UNL     1      48.751   4.262  19.120  0.00  0.00    +0.000 N 
ATOM     28  C   UNL     1      48.855   5.356  18.294  0.00  0.00    +0.000 A 
ATOM     29  O   UNL     1      48.949   5.229  17.077  0.00  0.00    +0.000 OA
ATOM     30  C   UNL     1      48.851   6.634  18.977  0.00  0.00    +0.000 A 
ATOM     31  H   UNL     1      48.749   3.361  18.667  0.00  0.00    +0.000 HD
ENDBRANCH  18  21
ENDBRANCH   1  17
TORSDOF 6
ENDMDL
