MODEL 1
REMARK VINA RESULT:    -8.109      0.000      0.000
REMARK INTER + INTRA:         -10.655
REMARK INTER:                 -10.006
REMARK INTRA:                  -0.650
REMARK UNBOUND:                -0.650
REMARK  Name = 
REMARK  4 active torsions:
REMARK  status: ('A' for Active; 'I' for Inactive)
REMARK    1  A    between atoms: C_2  and  C_4
REMARK    2  A    between atoms: N_8  and  C_9
REMARK    3  A    between atoms: C_9  and  C_10
REMARK    4  A    between atoms: C_10  and  C_13
REMARK                            x       y       z     vdW  Elec       q    Type
REMARK                         _______ _______ _______ _____ _____    ______ ____
ROOT
ATOM      1  C   UNL     1      46.500   2.540   7.403  0.00  0.00    +0.000 A 
ATOM      2  C   UNL     1      45.995   1.495   8.170  0.00  0.00    +0.000 A 
ATOM      3  C   UNL     1      45.038   1.776   9.147  0.00  0.00    +0.000 A 
ATOM      4  C   UNL     1      44.634   3.092   9.369  0.00  0.00    +0.000 A 
ATOM      5  N   UNL     1      43.700   3.318  10.380  0.00  0.00    +0.000 N 
ATOM      6  N   UNL     1      45.130   4.114   8.646  0.00  0.00    +0.000 NA
ATOM      7  C   UNL     1      46.042   3.820   7.680  0.00  0.00    +0.000 A 
ATOM      8  H   UNL     1      42.812   2.878  10.145  0.00  0.00    +0.000 HD
ENDROOT
BRANCH   1  10
ATOM      9  N   UNL     1      47.506   3.227   5.296  0.00  0.00    +0.000 N 
ATOM     10  C   UNL     1      47.515   2.351   6.346  0.00  0.00    +0.000 C 
ATOM     11  O   UNL     1      48.354   1.461   6.416  0.00  0.00    +0.000 OA
ATOM     12  H   UNL     1      48.259   3.137   4.625  0.00  0.00    +0.000 HD
ATOM     13  H   UNL     1      46.992   4.096   5.307  0.00  0.00    +0.000 HD
ENDBRANCH   1  10
BRANCH   5  14
ATOM     14  C   UNL     1      43.540   4.714  10.835  0.00  0.00    +0.000 C 
BRANCH  14  15
ATOM     15  C   UNL     1      43.970   4.883  12.319  0.00  0.00    +0.000 C 
ATOM     16  F   UNL     1      43.028   5.671  12.930  0.00  0.00    +0.000 F 
ATOM     17  F   UNL     1      43.867   3.672  12.948  0.00  0.00    +0.000 F 
BRANCH  15  18
ATOM     18  C   UNL     1      45.364   5.459  12.448  0.00  0.00    +0.000 A 
ATOM     19  C   UNL     1      45.896   6.301  11.460  0.00  0.00    +0.000 A 
ATOM     20  C   UNL     1      47.173   6.846  11.605  0.00  0.00    +0.000 A 
ATOM     21  C   UNL     1      47.933   6.556  12.737  0.00  0.00    +0.000 A 
ATOM     22  C   UNL     1      47.419   5.719  13.725  0.00  0.00    +0.000 A 
ATOM     23  C   UNL     1      46.144   5.171  13.583  0.00  0.00    +0.000 A 
ENDBRANCH  15  18
ENDBRANCH  14  15
ENDBRANCH   5  14
TORSDOF 4
ENDMDL
MODEL 2
REMARK VINA RESULT:    -7.498      1.614      1.859
REMARK INTER + INTRA:          -9.901
REMARK INTER:                  -9.490
REMARK INTRA:                  -0.411
REMARK UNBOUND:                -0.650
REMARK  Name = 
REMARK  4 active torsions:
REMARK  status: ('A' for Active; 'I' for Inactive)
REMARK    1  A    between atoms: C_2  and  C_4
REMARK    2  A    between atoms: N_8  and  C_9
REMARK    3  A    between atoms: C_9  and  C_10
REMARK    4  A    between atoms: C_10  and  C_13
REMARK                            x       y       z     vdW  Elec       q    Type
REMARK                         _______ _______ _______ _____ _____    ______ ____
ROOT
ATOM      1  C   UNL     1      46.411   2.583   7.495  0.00  0.00    +0.000 A 
ATOM      2  C   UNL     1      45.868   1.652   8.374  0.00  0.00    +0.000 A 
ATOM      3  C   UNL     1      44.966   2.088   9.346  0.00  0.00    +0.000 A 
ATOM      4  C   UNL     1      44.654   3.443   9.450  0.00  0.00    +0.000 A 
ATOM      5  N   UNL     1      43.773   3.825  10.461  0.00  0.00    +0.000 N 
ATOM      6  N   UNL     1      45.188   4.356   8.617  0.00  0.00    +0.000 NA
ATOM      7  C   UNL     1      46.044   3.911   7.658  0.00  0.00    +0.000 A 
ATOM      8  H   UNL     1      42.851   3.425  10.297  0.00  0.00    +0.000 HD
ENDROOT
BRANCH   1  10
ATOM      9  N   UNL     1      47.508   3.096   5.383  0.00  0.00    +0.000 N 
ATOM     10  C   UNL     1      47.374   2.227   6.432  0.00  0.00    +0.000 C 
ATOM     11  O   UNL     1      48.049   1.208   6.496  0.00  0.00    +0.000 OA
ATOM     12  H   UNL     1      48.232   2.880   4.709  0.00  0.00    +0.000 HD
ATOM     13  H   UNL     1      47.150   4.039   5.399  0.00  0.00    +0.000 HD
ENDBRANCH   1  10
BRANCH   5  14
ATOM     14  C   UNL     1      43.717   5.266  10.783  0.00  0.00    +0.000 C 
BRANCH  14  15
ATOM     15  C   UNL     1      44.680   5.629  11.947  0.00  0.00    +0.000 C 
ATOM     16  F   UNL     1      44.109   5.173  13.108  0.00  0.00    +0.000 F 
ATOM     17  F   UNL     1      45.827   4.892  11.815  0.00  0.00    +0.000 F 
BRANCH  15  18
ATOM     18  C   UNL     1      44.977   7.112  12.003  0.00  0.00    +0.000 A 
ATOM     19  C   UNL     1      44.261   8.025  11.214  0.00  0.00    +0.000 A 
ATOM     20  C   UNL     1      44.527   9.393  11.295  0.00  0.00    +0.000 A 
ATOM     21  C   UNL     1      45.510   9.865  12.164  0.00  0.00    +0.000 A 
ATOM     22  C   UNL     1      46.231   8.969  12.951  0.00  0.00    +0.000 A 
ATOM     23  C   UNL     1      45.969   7.601  12.872  0.00  0.00    +0.000 A 
ENDBRANCH  15  18
ENDBRANCH  14  15
ENDBRANCH   5  14
TORSDOF 4
ENDMDL
MODEL 3
REMARK VINA RESULT:    -7.398      3.163      6.338
REMARK INTER + INTRA:          -9.778
REMARK INTER:                  -9.342
REMARK INTRA:                  -0.436
REMARK UNBOUND:                -0.650
REMARK  Name = 
REMARK  4 active torsions:
REMARK  status: ('A' for Active; 'I' for Inactive)
REMARK    1  A    between atoms: C_2  and  C_4
REMARK    2  A    between atoms: N_8  and  C_9
REMARK    3  A    between atoms: C_9  and  C_10
REMARK    4  A    between atoms: C_10  and  C_13
REMARK                            x       y       z     vdW  Elec       q    Type
REMARK                         _______ _______ _______ _____ _____    ______ ____
ROOT
ATOM      1  C   UNL     1      46.409   7.372  12.475  0.00  0.00    +0.000 A 
ATOM      2  C   UNL     1      45.129   7.172  12.981  0.00  0.00    +0.000 A 
ATOM      3  C   UNL     1      44.301   6.229  12.369  0.00  0.00    +0.000 A 
ATOM      4  C   UNL     1      44.747   5.536  11.244  0.00  0.00    +0.000 A 
ATOM      5  N   UNL     1      43.865   4.631  10.653  0.00  0.00    +0.000 N 
ATOM      6  N   UNL     1      45.976   5.736  10.733  0.00  0.00    +0.000 NA
ATOM      7  C   UNL     1      46.781   6.638  11.358  0.00  0.00    +0.000 A 
ATOM      8  H   UNL     1      43.669   3.862  11.291  0.00  0.00    +0.000 HD
ENDROOT
BRANCH   1  10
ATOM      9  N   UNL     1      47.028   8.935  14.235  0.00  0.00    +0.000 N 
ATOM     10  C   UNL     1      47.363   8.345  13.048  0.00  0.00    +0.000 C 
ATOM     11  O   UNL     1      48.428   8.596  12.499  0.00  0.00    +0.000 OA
ATOM     12  H   UNL     1      47.728   9.533  14.656  0.00  0.00    +0.000 HD
ATOM     13  H   UNL     1      46.283   8.598  14.828  0.00  0.00    +0.000 HD
ENDBRANCH   1  10
BRANCH   5  14
ATOM     14  C   UNL     1      44.203   4.169   9.292  0.00  0.00    +0.000 C 
BRANCH  14  15
ATOM     15  C   UNL     1      44.833   2.748   9.311  0.00  0.00    +0.000 C 
ATOM     16  F   UNL     1      45.433   2.582  10.534  0.00  0.00    +0.000 F 
ATOM     17  F   UNL     1      43.825   1.820   9.293  0.00  0.00    +0.000 F 
BRANCH  15  18
ATOM     18  C   UNL     1      45.802   2.537   8.168  0.00  0.00    +0.000 A 
ATOM     19  C   UNL     1      46.481   1.319   8.010  0.00  0.00    +0.000 A 
ATOM     20  C   UNL     1      47.354   1.128   6.937  0.00  0.00    +0.000 A 
ATOM     21  C   UNL     1      47.558   2.151   6.011  0.00  0.00    +0.000 A 
ATOM     22  C   UNL     1      46.892   3.366   6.157  0.00  0.00    +0.000 A 
ATOM     23  C   UNL     1      46.021   3.561   7.230  0.00  0.00    +0.000 A 
ENDBRANCH  15  18
ENDBRANCH  14  15
ENDBRANCH   5  14
TORSDOF 4
ENDMDL
MODEL 4
REMARK VINA RESULT:    -7.350      3.489      6.745
REMARK INTER + INTRA:          -9.718
REMARK INTER:                  -9.275
REMARK INTRA:                  -0.443
REMARK UNBOUND:                -0.650
REMARK  Name = 
REMARK  4 active torsions:
REMARK  status: ('A' for Active; 'I' for Inactive)
REMARK    1  A    between atoms: C_2  and  C_4
REMARK    2  A    between atoms: N_8  and  C_9
REMARK    3  A    between atoms: C_9  and  C_10
REMARK    4  A    between atoms: C_10  and  C_13
REMARK                            x       y       z     vdW  Elec       q    Type
REMARK                         _______ _______ _______ _____ _____    ______ ____
ROOT
ATOM      1  C   UNL     1      46.982   4.423  14.731  0.00  0.00    +0.000 A 
ATOM      2  C   UNL     1      46.534   5.668  14.302  0.00  0.00    +0.000 A 
ATOM      3  C   UNL     1      45.784   5.746  13.127  0.00  0.00    +0.000 A 
ATOM      4  C   UNL     1      45.531   4.594  12.383  0.00  0.00    +0.000 A 
ATOM      5  N   UNL     1      44.805   4.736  11.201  0.00  0.00    +0.000 N 
ATOM      6  N   UNL     1      45.977   3.387  12.779  0.00  0.00    +0.000 NA
ATOM      7  C   UNL     1      46.683   3.324  13.941  0.00  0.00    +0.000 A 
ATOM      8  H   UNL     1      43.858   5.049  11.404  0.00  0.00    +0.000 HD
ENDROOT
BRANCH   1  10
ATOM      9  N   UNL     1      47.650   5.162  16.953  0.00  0.00    +0.000 N 
ATOM     10  C   UNL     1      47.783   4.231  15.959  0.00  0.00    +0.000 C 
ATOM     11  O   UNL     1      48.519   3.263  16.098  0.00  0.00    +0.000 OA
ATOM     12  H   UNL     1      48.138   4.970  17.819  0.00  0.00    +0.000 HD
ATOM     13  H   UNL     1      46.901   5.838  16.978  0.00  0.00    +0.000 HD
ENDBRANCH   1  10
BRANCH   5  14
ATOM     14  C   UNL     1      44.839   3.597  10.261  0.00  0.00    +0.000 C 
BRANCH  14  15
ATOM     15  C   UNL     1      45.145   4.062   8.810  0.00  0.00    +0.000 C 
ATOM     16  F   UNL     1      43.944   4.341   8.208  0.00  0.00    +0.000 F 
ATOM     17  F   UNL     1      45.793   5.267   8.862  0.00  0.00    +0.000 F 
BRANCH  15  18
ATOM     18  C   UNL     1      45.945   3.035   8.037  0.00  0.00    +0.000 A 
ATOM     19  C   UNL     1      45.971   1.690   8.432  0.00  0.00    +0.000 A 
ATOM     20  C   UNL     1      46.692   0.748   7.695  0.00  0.00    +0.000 A 
ATOM     21  C   UNL     1      47.394   1.140   6.556  0.00  0.00    +0.000 A 
ATOM     22  C   UNL     1      47.378   2.474   6.153  0.00  0.00    +0.000 A 
ATOM     23  C   UNL     1      46.661   3.418   6.888  0.00  0.00    +0.000 A 
ENDBRANCH  15  18
ENDBRANCH  14  15
ENDBRANCH   5  14
TORSDOF 4
ENDMDL
MODEL 5
REMARK VINA RESULT:    -7.140      3.697      6.780
REMARK INTER + INTRA:          -9.459
REMARK INTER:                  -9.073
REMARK INTRA:                  -0.386
REMARK UNBOUND:                -0.650
REMARK  Name = 
REMARK  4 active torsions:
REMARK  status: ('A' for Active; 'I' for Inactive)
REMARK    1  A    between atoms: C_2  and  C_4
REMARK    2  A    between atoms: N_8  and  C_9
REMARK    3  A    between atoms: C_9  and  C_10
REMARK    4  A    between atoms: C_10  and  C_13
REMARK                            x       y       z     vdW  Elec       q    Type
REMARK                         _______ _______ _______ _____ _____    ______ ____
ROOT
ATOM      1  C   UNL     1      47.876   5.504  15.286  0.00  0.00    +0.000 A 
ATOM      2  C   UNL     1      47.872   6.416  14.236  0.00  0.00    +0.000 A 
ATOM      3  C   UNL     1      47.067   6.161  13.125  0.00  0.00    +0.000 A 
ATOM      4  C   UNL     1      46.315   4.989  13.062  0.00  0.00    +0.000 A 
ATOM      5  N   UNL     1      45.555   4.771  11.913  0.00  0.00    +0.000 N 
ATOM      6  N   UNL     1      46.326   4.090  14.064  0.00  0.00    +0.000 NA
ATOM      7  C   UNL     1      47.095   4.365  15.152  0.00  0.00    +0.000 A 
ATOM      8  H   UNL     1      44.824   5.475  11.835  0.00  0.00    +0.000 HD
ENDROOT
BRANCH   1  10
ATOM      9  N   UNL     1      48.379   6.721  17.333  0.00  0.00    +0.000 N 
ATOM     10  C   UNL     1      48.692   5.678  16.506  0.00  0.00    +0.000 C 
ATOM     11  O   UNL     1      49.599   4.904  16.785  0.00  0.00    +0.000 OA
ATOM     12  H   UNL     1      48.891   6.776  18.205  0.00  0.00    +0.000 HD
ATOM     13  H   UNL     1      47.515   7.239  17.266  0.00  0.00    +0.000 HD
ENDBRANCH   1  10
BRANCH   5  14
ATOM     14  C   UNL     1      45.048   3.399  11.704  0.00  0.00    +0.000 C 
BRANCH  14  15
ATOM     15  C   UNL     1      44.254   3.280  10.374  0.00  0.00    +0.000 C 
ATOM     16  F   UNL     1      43.344   2.265  10.529  0.00  0.00    +0.000 F 
ATOM     17  F   UNL     1      43.490   4.406  10.216  0.00  0.00    +0.000 F 
BRANCH  15  18
ATOM     18  C   UNL     1      45.162   3.054   9.184  0.00  0.00    +0.000 A 
ATOM     19  C   UNL     1      45.601   4.126   8.393  0.00  0.00    +0.000 A 
ATOM     20  C   UNL     1      46.459   3.906   7.314  0.00  0.00    +0.000 A 
ATOM     21  C   UNL     1      46.887   2.614   7.013  0.00  0.00    +0.000 A 
ATOM     22  C   UNL     1      46.457   1.539   7.788  0.00  0.00    +0.000 A 
ATOM     23  C   UNL     1      45.598   1.755   8.866  0.00  0.00    +0.000 A 
ENDBRANCH  15  18
ENDBRANCH  14  15
ENDBRANCH   5  14
TORSDOF 4
ENDMDL
MODEL 6
REMARK VINA RESULT:    -6.698      4.499      6.191
REMARK INTER + INTRA:          -8.914
REMARK INTER:                  -8.534
REMARK INTRA:                  -0.380
REMARK UNBOUND:                -0.650
REMARK  Name = 
REMARK  4 active torsions:
REMARK  status: ('A' for Active; 'I' for Inactive)
REMARK    1  A    between atoms: C_2  and  C_4
REMARK    2  A    between atoms: N_8  and  C_9
REMARK    3  A    between atoms: C_9  and  C_10
REMARK    4  A    between atoms: C_10  and  C_13
REMARK                            x       y       z     vdW  Elec       q    Type
REMARK                         _______ _______ _______ _____ _____    ______ ____
ROOT
ATOM      1  C   UNL     1      44.964   4.241  11.513  0.00  0.00    +0.000 A 
ATOM      2  C   UNL     1      45.168   5.567  11.882  0.00  0.00    +0.000 A 
ATOM      3  C   UNL     1      45.910   5.841  13.032  0.00  0.00    +0.000 A 
ATOM      4  C   UNL     1      46.398   4.795  13.813  0.00  0.00    +0.000 A 
ATOM      5  N   UNL     1      47.103   5.128  14.969  0.00  0.00    +0.000 N 
ATOM      6  N   UNL     1      46.190   3.508  13.477  0.00  0.00    +0.000 NA
ATOM      7  C   UNL     1      45.489   3.257  12.339  0.00  0.00    +0.000 A 
ATOM      8  H   UNL     1      47.967   5.611  14.729  0.00  0.00    +0.000 HD
ENDROOT
BRANCH   1  10
ATOM      9  N   UNL     1      44.002   4.786   9.345  0.00  0.00    +0.000 N 
ATOM     10  C   UNL     1      44.194   3.842  10.317  0.00  0.00    +0.000 C 
ATOM     11  O   UNL     1      43.765   2.704  10.182  0.00  0.00    +0.000 OA
ATOM     12  H   UNL     1      43.548   4.474   8.496  0.00  0.00    +0.000 HD
ATOM     13  H   UNL     1      44.520   5.652   9.307  0.00  0.00    +0.000 HD
ENDBRANCH   1  10
BRANCH   5  14
ATOM     14  C   UNL     1      47.312   4.046  15.953  0.00  0.00    +0.000 C 
BRANCH  14  15
ATOM     15  C   UNL     1      48.103   4.547  17.194  0.00  0.00    +0.000 C 
ATOM     16  F   UNL     1      48.285   5.899  17.045  0.00  0.00    +0.000 F 
ATOM     17  F   UNL     1      47.306   4.427  18.301  0.00  0.00    +0.000 F 
BRANCH  15  18
ATOM     18  C   UNL     1      49.414   3.813  17.371  0.00  0.00    +0.000 A 
ATOM     19  C   UNL     1      49.514   2.437  17.118  0.00  0.00    +0.000 A 
ATOM     20  C   UNL     1      50.736   1.776  17.261  0.00  0.00    +0.000 A 
ATOM     21  C   UNL     1      51.871   2.482  17.657  0.00  0.00    +0.000 A 
ATOM     22  C   UNL     1      51.786   3.849  17.914  0.00  0.00    +0.000 A 
ATOM     23  C   UNL     1      50.566   4.512  17.775  0.00  0.00    +0.000 A 
ENDBRANCH  15  18
ENDBRANCH  14  15
ENDBRANCH   5  14
TORSDOF 4
ENDMDL
MODEL 7
REMARK VINA RESULT:    -6.308      5.160      7.894
REMARK INTER + INTRA:          -8.432
REMARK INTER:                  -8.053
REMARK INTRA:                  -0.380
REMARK UNBOUND:                -0.650
REMARK  Name = 
REMARK  4 active torsions:
REMARK  status: ('A' for Active; 'I' for Inactive)
REMARK    1  A    between atoms: C_2  and  C_4
REMARK    2  A    between atoms: N_8  and  C_9
REMARK    3  A    between atoms: C_9  and  C_10
REMARK    4  A    between atoms: C_10  and  C_13
REMARK                            x       y       z     vdW  Elec       q    Type
REMARK                         _______ _______ _______ _____ _____    ______ ____
ROOT
ATOM      1  C   UNL     1      48.878   4.945  17.918  0.00  0.00    +0.000 A 
ATOM      2  C   UNL     1      47.933   3.928  18.009  0.00  0.00    +0.000 A 
ATOM      3  C   UNL     1      47.170   3.614  16.883  0.00  0.00    +0.000 A 
ATOM      4  C   UNL     1      47.331   4.344  15.706  0.00  0.00    +0.000 A 
ATOM      5  N   UNL     1      46.518   4.009  14.623  0.00  0.00    +0.000 N 
ATOM      6  N   UNL     1      48.228   5.343  15.613  0.00  0.00    +0.000 NA
ATOM      7  C   UNL     1      48.984   5.618  16.710  0.00  0.00    +0.000 A 
ATOM      8  H   UNL     1      46.731   3.068  14.300  0.00  0.00    +0.000 HD
ENDROOT
BRANCH   1  10
ATOM      9  N   UNL     1      50.565   4.410  19.590  0.00  0.00    +0.000 N 
ATOM     10  C   UNL     1      49.736   5.355  19.050  0.00  0.00    +0.000 C 
ATOM     11  O   UNL     1      49.729   6.503  19.474  0.00  0.00    +0.000 OA
ATOM     12  H   UNL     1      51.207   4.729  20.305  0.00  0.00    +0.000 HD
ATOM     13  H   UNL     1      50.769   3.532  19.137  0.00  0.00    +0.000 HD
ENDBRANCH   1  10
BRANCH   5  14
ATOM     14  C   UNL     1      46.448   4.987  13.519  0.00  0.00    +0.000 C 
BRANCH  14  15
ATOM     15  C   UNL     1      45.043   5.000  12.855  0.00  0.00    +0.000 C 
ATOM     16  F   UNL     1      44.229   4.189  13.604  0.00  0.00    +0.000 F 
ATOM     17  F   UNL     1      44.504   6.252  12.992  0.00  0.00    +0.000 F 
BRANCH  15  18
ATOM     18  C   UNL     1      45.092   4.573  11.403  0.00  0.00    +0.000 A 
ATOM     19  C   UNL     1      44.598   3.324  10.999  0.00  0.00    +0.000 A 
ATOM     20  C   UNL     1      44.626   2.953   9.653  0.00  0.00    +0.000 A 
ATOM     21  C   UNL     1      45.148   3.824   8.698  0.00  0.00    +0.000 A 
ATOM     22  C   UNL     1      45.645   5.067   9.086  0.00  0.00    +0.000 A 
ATOM     23  C   UNL     1      45.620   5.440  10.430  0.00  0.00    +0.000 A 
ENDBRANCH  15  18
ENDBRANCH  14  15
ENDBRANCH   5  14
TORSDOF 4
ENDMDL
MODEL 8
REMARK VINA RESULT:    -5.459      3.719      5.337
REMARK INTER + INTRA:          -7.386
REMARK INTER:                  -6.805
REMARK INTRA:                  -0.581
REMARK UNBOUND:                -0.650
REMARK  Name = 
REMARK  4 active torsions:
REMARK  status: ('A' for Active; 'I' for Inactive)
REMARK    1  A    between atoms: C_2  and  C_4
REMARK    2  A    between atoms: N_8  and  C_9
REMARK    3  A    between atoms: C_9  and  C_10
REMARK    4  A    between atoms: C_10  and  C_13
REMARK                            x       y       z     vdW  Elec       q    Type
REMARK                         _______ _______ _______ _____ _____    ______ ____
ROOT
ATOM      1  C   UNL     1      44.514   4.070  11.641  0.00  0.00    +0.000 A 
ATOM      2  C   UNL     1      44.995   4.085  12.945  0.00  0.00    +0.000 A 
ATOM      3  C   UNL     1      45.520   5.273  13.458  0.00  0.00    +0.000 A 
ATOM      4  C   UNL     1      45.592   6.408  12.651  0.00  0.00    +0.000 A 
ATOM      5  N   UNL     1      46.156   7.557  13.204  0.00  0.00    +0.000 N 
ATOM      6  N   UNL     1      45.147   6.400  11.380  0.00  0.00    +0.000 NA
ATOM      7  C   UNL     1      44.613   5.242  10.905  0.00  0.00    +0.000 A 
ATOM      8  H   UNL     1      45.579   7.899  13.970  0.00  0.00    +0.000 HD
ENDROOT
BRANCH   1  10
ATOM      9  N   UNL     1      44.599   2.347   9.923  0.00  0.00    +0.000 N 
ATOM     10  C   UNL     1      43.940   2.866  11.004  0.00  0.00    +0.000 C 
ATOM     11  O   UNL     1      42.929   2.331  11.440  0.00  0.00    +0.000 OA
ATOM     12  H   UNL     1      44.243   1.475   9.552  0.00  0.00    +0.000 HD
ATOM     13  H   UNL     1      45.541   2.611   9.672  0.00  0.00    +0.000 HD
ENDBRANCH   1  10
BRANCH   5  14
ATOM     14  C   UNL     1      46.540   8.627  12.261  0.00  0.00    +0.000 C 
BRANCH  14  15
ATOM     15  C   UNL     1      48.075   8.646  12.014  0.00  0.00    +0.000 C 
ATOM     16  F   UNL     1      48.377   7.559  11.233  0.00  0.00    +0.000 F 
ATOM     17  F   UNL     1      48.380   9.727  11.231  0.00  0.00    +0.000 F 
BRANCH  15  18
ATOM     18  C   UNL     1      48.863   8.656  13.306  0.00  0.00    +0.000 A 
ATOM     19  C   UNL     1      48.845   9.770  14.157  0.00  0.00    +0.000 A 
ATOM     20  C   UNL     1      49.556   9.757  15.359  0.00  0.00    +0.000 A 
ATOM     21  C   UNL     1      50.292   8.629  15.723  0.00  0.00    +0.000 A 
ATOM     22  C   UNL     1      50.320   7.516  14.886  0.00  0.00    +0.000 A 
ATOM     23  C   UNL     1      49.613   7.527  13.683  0.00  0.00    +0.000 A 
ENDBRANCH  15  18
ENDBRANCH  14  15
ENDBRANCH   5  14
TORSDOF 4
ENDMDL
