MODEL 1
REMARK VINA RESULT:    -9.070      0.000      0.000
REMARK INTER + INTRA:         -13.371
REMARK INTER:                 -12.251
REMARK INTRA:                  -1.119
REMARK UNBOUND:                -1.119
REMARK  Name = 
REMARK  6 active torsions:
REMARK  status: ('A' for Active; 'I' for Inactive)
REMARK    1  A    between atoms: C_2  and  C_4
REMARK    2  A    between atoms: C_7  and  N_8
REMARK    3  A    between atoms: N_8  and  C_9
REMARK    4  A    between atoms: C_9  and  C_10
REMARK    5  A    between atoms: C_10  and  C_13
REMARK    6  A    between atoms: C_17  and  C_18
REMARK                            x       y       z     vdW  Elec       q    Type
REMARK                         _______ _______ _______ _____ _____    ______ ____
ROOT
ATOM      1  C   UNL     1      43.338   5.167  12.451  0.00  0.00    +0.000 C 
ATOM      2  F   UNL     1      42.692   6.305  12.058  0.00  0.00    +0.000 F 
ATOM      3  F   UNL     1      42.646   4.728  13.550  0.00  0.00    +0.000 F 
ENDROOT
BRANCH   1   4
ATOM      4  C   UNL     1      44.798   5.437  12.769  0.00  0.00    +0.000 A 
ATOM      5  C   UNL     1      45.579   4.455  13.391  0.00  0.00    +0.000 A 
ATOM      6  C   UNL     1      46.921   4.700  13.671  0.00  0.00    +0.000 A 
ATOM      7  C   UNL     1      47.498   5.926  13.328  0.00  0.00    +0.000 A 
ATOM      8  C   UNL     1      46.755   6.934  12.687  0.00  0.00    +0.000 A 
ATOM      9  C   UNL     1      45.395   6.668  12.431  0.00  0.00    +0.000 A 
BRANCH   8  10
ATOM     10  C   UNL     1      47.388   8.206  12.266  0.00  0.00    +0.000 A 
ATOM     11  C   UNL     1      48.705   8.274  11.788  0.00  0.00    +0.000 A 
ATOM     12  C   UNL     1      49.271   9.497  11.425  0.00  0.00    +0.000 A 
ATOM     13  C   UNL     1      48.500  10.639  11.537  0.00  0.00    +0.000 A 
ATOM     14  N   UNL     1      47.231  10.635  11.983  0.00  0.00    +0.000 NA
ATOM     15  C   UNL     1      46.714   9.430  12.338  0.00  0.00    +0.000 A 
ENDBRANCH   8  10
ENDBRANCH   1   4
BRANCH   1  16
ATOM     16  C   UNL     1      43.191   4.097  11.338  0.00  0.00    +0.000 C 
BRANCH  16  17
ATOM     17  N   UNL     1      43.625   4.573  10.013  0.00  0.00    +0.000 N 
ATOM     18  H   UNL     1      42.883   4.962   9.434  0.00  0.00    +0.000 HD
BRANCH  17  22
ATOM     19  C   UNL     1      46.504   2.503   7.728  0.00  0.00    +0.000 A 
ATOM     20  C   UNL     1      46.416   3.893   7.632  0.00  0.00    +0.000 A 
ATOM     21  C   UNL     1      45.480   4.592   8.401  0.00  0.00    +0.000 A 
ATOM     22  C   UNL     1      44.635   3.933   9.301  0.00  0.00    +0.000 A 
ATOM     23  C   UNL     1      44.725   2.535   9.372  0.00  0.00    +0.000 A 
ATOM     24  C   UNL     1      45.644   1.822   8.592  0.00  0.00    +0.000 A 
BRANCH  19  26
ATOM     25  N   UNL     1      48.554   2.388   6.420  0.00  0.00    +0.000 N 
ATOM     26  C   UNL     1      47.454   1.725   6.893  0.00  0.00    +0.000 C 
ATOM     27  O   UNL     1      47.287   0.535   6.660  0.00  0.00    +0.000 OA
ATOM     28  H   UNL     1      49.242   1.826   5.934  0.00  0.00    +0.000 HD
ATOM     29  H   UNL     1      48.852   3.277   6.791  0.00  0.00    +0.000 HD
ENDBRANCH  19  26
ENDBRANCH  17  22
ENDBRANCH  16  17
ENDBRANCH   1  16
TORSDOF 6
ENDMDL
MODEL 2
REMARK VINA RESULT:    -8.874      2.379      3.787
REMARK INTER + INTRA:         -13.107
REMARK INTER:                 -11.994
REMARK INTRA:                  -1.112
REMARK UNBOUND:                -1.119
REMARK  Name = 
REMARK  6 active torsions:
REMARK  status: ('A' for Active; 'I' for Inactive)
REMARK    1  A    between atoms: C_2  and  C_4
REMARK    2  A    between atoms: C_7  and  N_8
REMARK    3  A    between atoms: N_8  and  C_9
REMARK    4  A    between atoms: C_9  and  C_10
REMARK    5  A    between atoms: C_10  and  C_13
REMARK    6  A    between atoms: C_17  and  C_18
REMARK                            x       y       z     vdW  Elec       q    Type
REMARK                         _______ _______ _______ _____ _____    ______ ____
ROOT
ATOM      1  C   UNL     1      44.022   4.923  12.407  0.00  0.00    +0.000 C 
ATOM      2  F   UNL     1      43.081   5.403  13.274  0.00  0.00    +0.000 F 
ATOM      3  F   UNL     1      43.853   3.563  12.417  0.00  0.00    +0.000 F 
ENDROOT
BRANCH   1   4
ATOM      4  C   UNL     1      45.425   5.325  12.827  0.00  0.00    +0.000 A 
ATOM      5  C   UNL     1      46.175   6.204  12.038  0.00  0.00    +0.000 A 
ATOM      6  C   UNL     1      47.456   6.581  12.431  0.00  0.00    +0.000 A 
ATOM      7  C   UNL     1      47.999   6.086  13.620  0.00  0.00    +0.000 A 
ATOM      8  C   UNL     1      47.275   5.213  14.452  0.00  0.00    +0.000 A 
ATOM      9  C   UNL     1      45.988   4.834  14.022  0.00  0.00    +0.000 A 
BRANCH   8  10
ATOM     10  C   UNL     1      47.830   4.744  15.743  0.00  0.00    +0.000 A 
ATOM     11  C   UNL     1      47.610   3.448  16.234  0.00  0.00    +0.000 A 
ATOM     12  C   UNL     1      48.131   3.054  17.468  0.00  0.00    +0.000 A 
ATOM     13  C   UNL     1      48.878   3.967  18.190  0.00  0.00    +0.000 A 
ATOM     14  N   UNL     1      49.127   5.220  17.768  0.00  0.00    +0.000 NA
ATOM     15  C   UNL     1      48.596   5.574  16.569  0.00  0.00    +0.000 A 
ENDBRANCH   8  10
ENDBRANCH   1   4
BRANCH   1  16
ATOM     16  C   UNL     1      43.693   5.432  10.979  0.00  0.00    +0.000 C 
BRANCH  16  17
ATOM     17  N   UNL     1      43.464   4.342  10.014  0.00  0.00    +0.000 N 
ATOM     18  H   UNL     1      42.722   3.693  10.269  0.00  0.00    +0.000 HD
BRANCH  17  22
ATOM     19  C   UNL     1      46.465   2.459   7.724  0.00  0.00    +0.000 A 
ATOM     20  C   UNL     1      46.297   3.842   7.637  0.00  0.00    +0.000 A 
ATOM     21  C   UNL     1      45.320   4.479   8.408  0.00  0.00    +0.000 A 
ATOM     22  C   UNL     1      44.511   3.766   9.300  0.00  0.00    +0.000 A 
ATOM     23  C   UNL     1      44.682   2.375   9.361  0.00  0.00    +0.000 A 
ATOM     24  C   UNL     1      45.644   1.722   8.579  0.00  0.00    +0.000 A 
BRANCH  19  26
ATOM     25  N   UNL     1      48.542   2.463   6.454  0.00  0.00    +0.000 N 
ATOM     26  C   UNL     1      47.462   1.743   6.886  0.00  0.00    +0.000 C 
ATOM     27  O   UNL     1      47.347   0.554   6.617  0.00  0.00    +0.000 OA
ATOM     28  H   UNL     1      49.261   1.943   5.966  0.00  0.00    +0.000 HD
ATOM     29  H   UNL     1      48.797   3.352   6.856  0.00  0.00    +0.000 HD
ENDBRANCH  19  26
ENDBRANCH  17  22
ENDBRANCH  16  17
ENDBRANCH   1  16
TORSDOF 6
ENDMDL
MODEL 3
REMARK VINA RESULT:    -8.295      1.996      2.617
REMARK INTER + INTRA:         -12.323
REMARK INTER:                 -11.192
REMARK INTRA:                  -1.132
REMARK UNBOUND:                -1.119
REMARK  Name = 
REMARK  6 active torsions:
REMARK  status: ('A' for Active; 'I' for Inactive)
REMARK    1  A    between atoms: C_2  and  C_4
REMARK    2  A    between atoms: C_7  and  N_8
REMARK    3  A    between atoms: N_8  and  C_9
REMARK    4  A    between atoms: C_9  and  C_10
REMARK    5  A    between atoms: C_10  and  C_13
REMARK    6  A    between atoms: C_17  and  C_18
REMARK                            x       y       z     vdW  Elec       q    Type
REMARK                         _______ _______ _______ _____ _____    ______ ____
ROOT
ATOM      1  C   UNL     1      44.003   4.536  12.574  0.00  0.00    +0.000 C 
ATOM      2  F   UNL     1      43.057   4.683  13.549  0.00  0.00    +0.000 F 
ATOM      3  F   UNL     1      44.702   3.410  12.925  0.00  0.00    +0.000 F 
ENDROOT
BRANCH   1   4
ATOM      4  C   UNL     1      44.902   5.756  12.479  0.00  0.00    +0.000 A 
ATOM      5  C   UNL     1      44.524   6.853  11.694  0.00  0.00    +0.000 A 
ATOM      6  C   UNL     1      45.344   7.976  11.618  0.00  0.00    +0.000 A 
ATOM      7  C   UNL     1      46.546   8.017  12.331  0.00  0.00    +0.000 A 
ATOM      8  C   UNL     1      46.956   6.946  13.144  0.00  0.00    +0.000 A 
ATOM      9  C   UNL     1      46.117   5.814  13.189  0.00  0.00    +0.000 A 
BRANCH   8  10
ATOM     10  C   UNL     1      48.198   7.021  13.948  0.00  0.00    +0.000 A 
ATOM     11  C   UNL     1      49.282   7.838  13.591  0.00  0.00    +0.000 A 
ATOM     12  C   UNL     1      50.444   7.861  14.363  0.00  0.00    +0.000 A 
ATOM     13  C   UNL     1      50.500   7.068  15.494  0.00  0.00    +0.000 A 
ATOM     14  N   UNL     1      49.491   6.271  15.890  0.00  0.00    +0.000 NA
ATOM     15  C   UNL     1      48.379   6.263  15.110  0.00  0.00    +0.000 A 
ENDBRANCH   8  10
ENDBRANCH   1   4
BRANCH   1  16
ATOM     16  C   UNL     1      43.292   4.251  11.225  0.00  0.00    +0.000 C 
BRANCH  16  17
ATOM     17  N   UNL     1      43.745   3.005  10.583  0.00  0.00    +0.000 N 
ATOM     18  H   UNL     1      43.798   2.199  11.203  0.00  0.00    +0.000 HD
BRANCH  17  22
ATOM     19  C   UNL     1      46.457   2.886   7.354  0.00  0.00    +0.000 A 
ATOM     20  C   UNL     1      45.978   4.116   7.807  0.00  0.00    +0.000 A 
ATOM     21  C   UNL     1      45.095   4.169   8.891  0.00  0.00    +0.000 A 
ATOM     22  C   UNL     1      44.694   3.010   9.565  0.00  0.00    +0.000 A 
ATOM     23  C   UNL     1      45.172   1.781   9.085  0.00  0.00    +0.000 A 
ATOM     24  C   UNL     1      46.041   1.714   7.988  0.00  0.00    +0.000 A 
BRANCH  19  26
ATOM     25  N   UNL     1      48.674   2.500   6.425  0.00  0.00    +0.000 N 
ATOM     26  C   UNL     1      47.360   2.789   6.178  0.00  0.00    +0.000 C 
ATOM     27  O   UNL     1      46.948   2.928   5.034  0.00  0.00    +0.000 OA
ATOM     28  H   UNL     1      49.258   2.341   5.613  0.00  0.00    +0.000 HD
ATOM     29  H   UNL     1      48.992   2.135   7.310  0.00  0.00    +0.000 HD
ENDBRANCH  19  26
ENDBRANCH  17  22
ENDBRANCH  16  17
ENDBRANCH   1  16
TORSDOF 6
ENDMDL
MODEL 4
REMARK VINA RESULT:    -7.843      1.833      2.862
REMARK INTER + INTRA:         -11.713
REMARK INTER:                 -10.771
REMARK INTRA:                  -0.942
REMARK UNBOUND:                -1.119
REMARK  Name = 
REMARK  6 active torsions:
REMARK  status: ('A' for Active; 'I' for Inactive)
REMARK    1  A    between atoms: C_2  and  C_4
REMARK    2  A    between atoms: C_7  and  N_8
REMARK    3  A    between atoms: N_8  and  C_9
REMARK    4  A    between atoms: C_9  and  C_10
REMARK    5  A    between atoms: C_10  and  C_13
REMARK    6  A    between atoms: C_17  and  C_18
REMARK                            x       y       z     vdW  Elec       q    Type
REMARK                         _______ _______ _______ _____ _____    ______ ____
ROOT
ATOM      1  C   UNL     1      45.314   6.013  12.097  0.00  0.00    +0.000 C 
ATOM      2  F   UNL     1      44.535   5.904  13.215  0.00  0.00    +0.000 F 
ATOM      3  F   UNL     1      46.112   4.898  12.111  0.00  0.00    +0.000 F 
ENDROOT
BRANCH   1   4
ATOM      4  C   UNL     1      46.128   7.295  12.107  0.00  0.00    +0.000 A 
ATOM      5  C   UNL     1      45.497   8.531  12.290  0.00  0.00    +0.000 A 
ATOM      6  C   UNL     1      46.247   9.705  12.311  0.00  0.00    +0.000 A 
ATOM      7  C   UNL     1      47.635   9.654  12.155  0.00  0.00    +0.000 A 
ATOM      8  C   UNL     1      48.312   8.432  11.985  0.00  0.00    +0.000 A 
ATOM      9  C   UNL     1      47.528   7.261  11.950  0.00  0.00    +0.000 A 
BRANCH   8  10
ATOM     10  C   UNL     1      49.789   8.379  11.886  0.00  0.00    +0.000 A 
ATOM     11  C   UNL     1      50.454   7.612  10.918  0.00  0.00    +0.000 A 
ATOM     12  C   UNL     1      51.849   7.570  10.875  0.00  0.00    +0.000 A 
ATOM     13  C   UNL     1      52.560   8.310  11.802  0.00  0.00    +0.000 A 
ATOM     14  N   UNL     1      51.977   9.068  12.748  0.00  0.00    +0.000 NA
ATOM     15  C   UNL     1      50.619   9.078  12.770  0.00  0.00    +0.000 A 
ENDBRANCH   8  10
ENDBRANCH   1   4
BRANCH   1  16
ATOM     16  C   UNL     1      44.406   5.930  10.843  0.00  0.00    +0.000 C 
BRANCH  16  17
ATOM     17  N   UNL     1      44.036   4.549  10.485  0.00  0.00    +0.000 N 
ATOM     18  H   UNL     1      43.664   3.994  11.253  0.00  0.00    +0.000 HD
BRANCH  17  22
ATOM     19  C   UNL     1      46.435   2.432   7.736  0.00  0.00    +0.000 A 
ATOM     20  C   UNL     1      45.618   1.729   8.623  0.00  0.00    +0.000 A 
ATOM     21  C   UNL     1      44.802   2.421   9.525  0.00  0.00    +0.000 A 
ATOM     22  C   UNL     1      44.757   3.819   9.544  0.00  0.00    +0.000 A 
ATOM     23  C   UNL     1      45.597   4.509   8.658  0.00  0.00    +0.000 A 
ATOM     24  C   UNL     1      46.433   3.827   7.765  0.00  0.00    +0.000 A 
BRANCH  19  26
ATOM     25  N   UNL     1      48.431   2.430   6.342  0.00  0.00    +0.000 N 
ATOM     26  C   UNL     1      47.347   1.729   6.798  0.00  0.00    +0.000 C 
ATOM     27  O   UNL     1      47.165   0.565   6.467  0.00  0.00    +0.000 OA
ATOM     28  H   UNL     1      49.096   1.912   5.780  0.00  0.00    +0.000 HD
ATOM     29  H   UNL     1      48.748   3.282   6.779  0.00  0.00    +0.000 HD
ENDBRANCH  19  26
ENDBRANCH  17  22
ENDBRANCH  16  17
ENDBRANCH   1  16
TORSDOF 6
ENDMDL
MODEL 5
REMARK VINA RESULT:    -7.749      1.260      2.107
REMARK INTER + INTRA:         -11.587
REMARK INTER:                 -10.909
REMARK INTRA:                  -0.678
REMARK UNBOUND:                -1.119
REMARK  Name = 
REMARK  6 active torsions:
REMARK  status: ('A' for Active; 'I' for Inactive)
REMARK    1  A    between atoms: C_2  and  C_4
REMARK    2  A    between atoms: C_7  and  N_8
REMARK    3  A    between atoms: N_8  and  C_9
REMARK    4  A    between atoms: C_9  and  C_10
REMARK    5  A    between atoms: C_10  and  C_13
REMARK    6  A    between atoms: C_17  and  C_18
REMARK                            x       y       z     vdW  Elec       q    Type
REMARK                         _______ _______ _______ _____ _____    ______ ____
ROOT
ATOM      1  C   UNL     1      44.016   4.065  12.695  0.00  0.00    +0.000 C 
ATOM      2  F   UNL     1      43.054   4.058  13.665  0.00  0.00    +0.000 F 
ATOM      3  F   UNL     1      45.111   3.480  13.277  0.00  0.00    +0.000 F 
ENDROOT
BRANCH   1   4
ATOM      4  C   UNL     1      44.314   5.475  12.215  0.00  0.00    +0.000 A 
ATOM      5  C   UNL     1      43.292   6.272  11.686  0.00  0.00    +0.000 A 
ATOM      6  C   UNL     1      43.564   7.568  11.257  0.00  0.00    +0.000 A 
ATOM      7  C   UNL     1      44.859   8.084  11.359  0.00  0.00    +0.000 A 
ATOM      8  C   UNL     1      45.913   7.325  11.899  0.00  0.00    +0.000 A 
ATOM      9  C   UNL     1      45.614   6.009  12.309  0.00  0.00    +0.000 A 
BRANCH   8  10
ATOM     10  C   UNL     1      47.268   7.898  12.064  0.00  0.00    +0.000 A 
ATOM     11  C   UNL     1      48.425   7.106  12.103  0.00  0.00    +0.000 A 
ATOM     12  C   UNL     1      49.682   7.685  12.285  0.00  0.00    +0.000 A 
ATOM     13  C   UNL     1      49.762   9.059  12.415  0.00  0.00    +0.000 A 
ATOM     14  N   UNL     1      48.689   9.870  12.380  0.00  0.00    +0.000 NA
ATOM     15  C   UNL     1      47.480   9.273  12.213  0.00  0.00    +0.000 A 
ENDBRANCH   8  10
ENDBRANCH   1   4
BRANCH   1  16
ATOM     16  C   UNL     1      43.558   3.155  11.526  0.00  0.00    +0.000 C 
BRANCH  16  17
ATOM     17  N   UNL     1      43.674   3.802  10.207  0.00  0.00    +0.000 N 
ATOM     18  H   UNL     1      42.801   4.167   9.832  0.00  0.00    +0.000 HD
BRANCH  17  22
ATOM     19  C   UNL     1      46.554   2.564   7.385  0.00  0.00    +0.000 A 
ATOM     20  C   UNL     1      46.026   1.635   8.283  0.00  0.00    +0.000 A 
ATOM     21  C   UNL     1      45.054   2.030   9.209  0.00  0.00    +0.000 A 
ATOM     22  C   UNL     1      44.567   3.341   9.244  0.00  0.00    +0.000 A 
ATOM     23  C   UNL     1      45.122   4.264   8.346  0.00  0.00    +0.000 A 
ATOM     24  C   UNL     1      46.110   3.886   7.427  0.00  0.00    +0.000 A 
BRANCH  19  26
ATOM     25  N   UNL     1      47.841   3.047   5.375  0.00  0.00    +0.000 N 
ATOM     26  C   UNL     1      47.619   2.190   6.419  0.00  0.00    +0.000 C 
ATOM     27  O   UNL     1      48.296   1.180   6.560  0.00  0.00    +0.000 OA
ATOM     28  H   UNL     1      48.631   2.832   4.779  0.00  0.00    +0.000 HD
ATOM     29  H   UNL     1      47.489   3.992   5.365  0.00  0.00    +0.000 HD
ENDBRANCH  19  26
ENDBRANCH  17  22
ENDBRANCH  16  17
ENDBRANCH   1  16
TORSDOF 6
ENDMDL
MODEL 6
REMARK VINA RESULT:    -7.600      3.457      7.197
REMARK INTER + INTRA:         -11.386
REMARK INTER:                 -10.528
REMARK INTRA:                  -0.858
REMARK UNBOUND:                -1.119
REMARK  Name = 
REMARK  6 active torsions:
REMARK  status: ('A' for Active; 'I' for Inactive)
REMARK    1  A    between atoms: C_2  and  C_4
REMARK    2  A    between atoms: C_7  and  N_8
REMARK    3  A    between atoms: N_8  and  C_9
REMARK    4  A    between atoms: C_9  and  C_10
REMARK    5  A    between atoms: C_10  and  C_13
REMARK    6  A    between atoms: C_17  and  C_18
REMARK                            x       y       z     vdW  Elec       q    Type
REMARK                         _______ _______ _______ _____ _____    ______ ____
ROOT
ATOM      1  C   UNL     1      44.376   6.241  11.782  0.00  0.00    +0.000 C 
ATOM      2  F   UNL     1      43.971   6.293  13.086  0.00  0.00    +0.000 F 
ATOM      3  F   UNL     1      43.530   7.087  11.114  0.00  0.00    +0.000 F 
ENDROOT
BRANCH   1   4
ATOM      4  C   UNL     1      44.313   4.826  11.234  0.00  0.00    +0.000 A 
ATOM      5  C   UNL     1      43.473   3.875  11.827  0.00  0.00    +0.000 A 
ATOM      6  C   UNL     1      43.407   2.582  11.316  0.00  0.00    +0.000 A 
ATOM      7  C   UNL     1      44.175   2.226  10.204  0.00  0.00    +0.000 A 
ATOM      8  C   UNL     1      45.019   3.153   9.566  0.00  0.00    +0.000 A 
ATOM      9  C   UNL     1      45.081   4.451  10.114  0.00  0.00    +0.000 A 
BRANCH   8  10
ATOM     10  C   UNL     1      45.781   2.790   8.349  0.00  0.00    +0.000 A 
ATOM     11  C   UNL     1      46.018   3.698   7.306  0.00  0.00    +0.000 A 
ATOM     12  C   UNL     1      46.720   3.307   6.164  0.00  0.00    +0.000 A 
ATOM     13  C   UNL     1      47.186   2.008   6.090  0.00  0.00    +0.000 A 
ATOM     14  N   UNL     1      46.995   1.095   7.060  0.00  0.00    +0.000 NA
ATOM     15  C   UNL     1      46.298   1.505   8.152  0.00  0.00    +0.000 A 
ENDBRANCH   8  10
ENDBRANCH   1   4
BRANCH   1  16
ATOM     16  C   UNL     1      45.809   6.823  11.677  0.00  0.00    +0.000 C 
BRANCH  16  17
ATOM     17  N   UNL     1      46.854   5.873  12.098  0.00  0.00    +0.000 N 
ATOM     18  H   UNL     1      46.908   5.023  11.540  0.00  0.00    +0.000 HD
BRANCH  17  22
ATOM     19  C   UNL     1      47.991   5.140  16.093  0.00  0.00    +0.000 A 
ATOM     20  C   UNL     1      48.483   6.266  15.432  0.00  0.00    +0.000 A 
ATOM     21  C   UNL     1      48.096   6.531  14.114  0.00  0.00    +0.000 A 
ATOM     22  C   UNL     1      47.192   5.704  13.437  0.00  0.00    +0.000 A 
ATOM     23  C   UNL     1      46.722   4.567  14.111  0.00  0.00    +0.000 A 
ATOM     24  C   UNL     1      47.118   4.281  15.424  0.00  0.00    +0.000 A 
BRANCH  19  26
ATOM     25  N   UNL     1      47.551   4.060  18.231  0.00  0.00    +0.000 N 
ATOM     26  C   UNL     1      48.416   4.804  17.476  0.00  0.00    +0.000 C 
ATOM     27  O   UNL     1      49.505   5.145  17.919  0.00  0.00    +0.000 OA
ATOM     28  H   UNL     1      47.890   3.756  19.135  0.00  0.00    +0.000 HD
ATOM     29  H   UNL     1      46.776   3.555  17.826  0.00  0.00    +0.000 HD
ENDBRANCH  19  26
ENDBRANCH  17  22
ENDBRANCH  16  17
ENDBRANCH   1  16
TORSDOF 6
ENDMDL
MODEL 7
REMARK VINA RESULT:    -7.521      3.448      7.051
REMARK INTER + INTRA:         -11.278
REMARK INTER:                 -10.218
REMARK INTRA:                  -1.060
REMARK UNBOUND:                -1.119
REMARK  Name = 
REMARK  6 active torsions:
REMARK  status: ('A' for Active; 'I' for Inactive)
REMARK    1  A    between atoms: C_2  and  C_4
REMARK    2  A    between atoms: C_7  and  N_8
REMARK    3  A    between atoms: N_8  and  C_9
REMARK    4  A    between atoms: C_9  and  C_10
REMARK    5  A    between atoms: C_10  and  C_13
REMARK    6  A    between atoms: C_17  and  C_18
REMARK                            x       y       z     vdW  Elec       q    Type
REMARK                         _______ _______ _______ _____ _____    ______ ____
ROOT
ATOM      1  C   UNL     1      45.835   7.940  12.047  0.00  0.00    +0.000 C 
ATOM      2  F   UNL     1      45.484   8.274  13.325  0.00  0.00    +0.000 F 
ATOM      3  F   UNL     1      45.621   9.077  11.312  0.00  0.00    +0.000 F 
ENDROOT
BRANCH   1   4
ATOM      4  C   UNL     1      45.018   6.768  11.533  0.00  0.00    +0.000 A 
ATOM      5  C   UNL     1      43.679   6.618  11.914  0.00  0.00    +0.000 A 
ATOM      6  C   UNL     1      42.928   5.550  11.431  0.00  0.00    +0.000 A 
ATOM      7  C   UNL     1      43.506   4.623  10.558  0.00  0.00    +0.000 A 
ATOM      8  C   UNL     1      44.842   4.744  10.136  0.00  0.00    +0.000 A 
ATOM      9  C   UNL     1      45.585   5.824  10.653  0.00  0.00    +0.000 A 
BRANCH   8  10
ATOM     10  C   UNL     1      45.429   3.797   9.160  0.00  0.00    +0.000 A 
ATOM     11  C   UNL     1      45.319   2.405   9.297  0.00  0.00    +0.000 A 
ATOM     12  C   UNL     1      45.909   1.547   8.367  0.00  0.00    +0.000 A 
ATOM     13  C   UNL     1      46.595   2.101   7.302  0.00  0.00    +0.000 A 
ATOM     14  N   UNL     1      46.728   3.426   7.115  0.00  0.00    +0.000 NA
ATOM     15  C   UNL     1      46.152   4.233   8.044  0.00  0.00    +0.000 A 
ENDBRANCH   8  10
ENDBRANCH   1   4
BRANCH   1  16
ATOM     16  C   UNL     1      47.354   7.630  12.010  0.00  0.00    +0.000 C 
BRANCH  16  17
ATOM     17  N   UNL     1      47.978   7.620  13.345  0.00  0.00    +0.000 N 
ATOM     18  H   UNL     1      48.842   8.154  13.417  0.00  0.00    +0.000 HD
BRANCH  17  22
ATOM     19  C   UNL     1      47.696   4.367  16.015  0.00  0.00    +0.000 A 
ATOM     20  C   UNL     1      47.062   4.297  14.774  0.00  0.00    +0.000 A 
ATOM     21  C   UNL     1      47.166   5.361  13.872  0.00  0.00    +0.000 A 
ATOM     22  C   UNL     1      47.924   6.499  14.168  0.00  0.00    +0.000 A 
ATOM     23  C   UNL     1      48.540   6.559  15.427  0.00  0.00    +0.000 A 
ATOM     24  C   UNL     1      48.426   5.509  16.347  0.00  0.00    +0.000 A 
BRANCH  19  26
ATOM     25  N   UNL     1      48.722   2.656  17.411  0.00  0.00    +0.000 N 
ATOM     26  C   UNL     1      47.568   3.275  17.015  0.00  0.00    +0.000 C 
ATOM     27  O   UNL     1      46.487   2.960  17.494  0.00  0.00    +0.000 OA
ATOM     28  H   UNL     1      48.635   1.981  18.161  0.00  0.00    +0.000 HD
ATOM     29  H   UNL     1      49.635   3.048  17.236  0.00  0.00    +0.000 HD
ENDBRANCH  19  26
ENDBRANCH  17  22
ENDBRANCH  16  17
ENDBRANCH   1  16
TORSDOF 6
ENDMDL
MODEL 8
REMARK VINA RESULT:    -7.019      3.183      7.152
REMARK INTER + INTRA:         -10.601
REMARK INTER:                  -9.824
REMARK INTRA:                  -0.777
REMARK UNBOUND:                -1.119
REMARK  Name = 
REMARK  6 active torsions:
REMARK  status: ('A' for Active; 'I' for Inactive)
REMARK    1  A    between atoms: C_2  and  C_4
REMARK    2  A    between atoms: C_7  and  N_8
REMARK    3  A    between atoms: N_8  and  C_9
REMARK    4  A    between atoms: C_9  and  C_10
REMARK    5  A    between atoms: C_10  and  C_13
REMARK    6  A    between atoms: C_17  and  C_18
REMARK                            x       y       z     vdW  Elec       q    Type
REMARK                         _______ _______ _______ _____ _____    ______ ____
ROOT
ATOM      1  C   UNL     1      44.437   6.218  11.753  0.00  0.00    +0.000 C 
ATOM      2  F   UNL     1      44.094   6.267  13.075  0.00  0.00    +0.000 F 
ATOM      3  F   UNL     1      43.564   7.069  11.128  0.00  0.00    +0.000 F 
ENDROOT
BRANCH   1   4
ATOM      4  C   UNL     1      44.344   4.805  11.205  0.00  0.00    +0.000 A 
ATOM      5  C   UNL     1      43.465   3.879  11.781  0.00  0.00    +0.000 A 
ATOM      6  C   UNL     1      43.372   2.588  11.269  0.00  0.00    +0.000 A 
ATOM      7  C   UNL     1      44.152   2.210  10.172  0.00  0.00    +0.000 A 
ATOM      8  C   UNL     1      45.035   3.111   9.551  0.00  0.00    +0.000 A 
ATOM      9  C   UNL     1      45.124   4.407  10.101  0.00  0.00    +0.000 A 
BRANCH   8  10
ATOM     10  C   UNL     1      45.810   2.725   8.350  0.00  0.00    +0.000 A 
ATOM     11  C   UNL     1      46.041   3.607   7.283  0.00  0.00    +0.000 A 
ATOM     12  C   UNL     1      46.756   3.195   6.157  0.00  0.00    +0.000 A 
ATOM     13  C   UNL     1      47.241   1.901   6.122  0.00  0.00    +0.000 A 
ATOM     14  N   UNL     1      47.057   1.013   7.117  0.00  0.00    +0.000 NA
ATOM     15  C   UNL     1      46.348   1.443   8.192  0.00  0.00    +0.000 A 
ENDBRANCH   8  10
ENDBRANCH   1   4
BRANCH   1  16
ATOM     16  C   UNL     1      45.866   6.796  11.584  0.00  0.00    +0.000 C 
BRANCH  16  17
ATOM     17  N   UNL     1      46.821   6.286  12.585  0.00  0.00    +0.000 N 
ATOM     18  H   UNL     1      46.398   5.972  13.457  0.00  0.00    +0.000 HD
BRANCH  17  22
ATOM     19  C   UNL     1      50.580   8.167  12.942  0.00  0.00    +0.000 A 
ATOM     20  C   UNL     1      49.985   7.596  14.068  0.00  0.00    +0.000 A 
ATOM     21  C   UNL     1      48.748   6.951  13.957  0.00  0.00    +0.000 A 
ATOM     22  C   UNL     1      48.093   6.833  12.726  0.00  0.00    +0.000 A 
ATOM     23  C   UNL     1      48.697   7.428  11.609  0.00  0.00    +0.000 A 
ATOM     24  C   UNL     1      49.925   8.094  11.711  0.00  0.00    +0.000 A 
BRANCH  19  26
ATOM     25  N   UNL     1      52.956   8.193  13.472  0.00  0.00    +0.000 N 
ATOM     26  C   UNL     1      51.869   8.899  13.033  0.00  0.00    +0.000 C 
ATOM     27  O   UNL     1      51.972  10.073  12.699  0.00  0.00    +0.000 OA
ATOM     28  H   UNL     1      53.846   8.674  13.438  0.00  0.00    +0.000 HD
ATOM     29  H   UNL     1      52.967   7.185  13.512  0.00  0.00    +0.000 HD
ENDBRANCH  19  26
ENDBRANCH  17  22
ENDBRANCH  16  17
ENDBRANCH   1  16
TORSDOF 6
ENDMDL
MODEL 9
REMARK VINA RESULT:    -7.011      4.148      7.609
REMARK INTER + INTRA:         -10.589
REMARK INTER:                  -9.363
REMARK INTRA:                  -1.227
REMARK UNBOUND:                -1.119
REMARK  Name = 
REMARK  6 active torsions:
REMARK  status: ('A' for Active; 'I' for Inactive)
REMARK    1  A    between atoms: C_2  and  C_4
REMARK    2  A    between atoms: C_7  and  N_8
REMARK    3  A    between atoms: N_8  and  C_9
REMARK    4  A    between atoms: C_9  and  C_10
REMARK    5  A    between atoms: C_10  and  C_13
REMARK    6  A    between atoms: C_17  and  C_18
REMARK                            x       y       z     vdW  Elec       q    Type
REMARK                         _______ _______ _______ _____ _____    ______ ____
ROOT
ATOM      1  C   UNL     1      48.691   8.228  12.184  0.00  0.00    +0.000 C 
ATOM      2  F   UNL     1      49.028   9.319  11.434  0.00  0.00    +0.000 F 
ATOM      3  F   UNL     1      49.551   7.240  11.778  0.00  0.00    +0.000 F 
ENDROOT
BRANCH   1   4
ATOM      4  C   UNL     1      47.239   7.836  11.978  0.00  0.00    +0.000 A 
ATOM      5  C   UNL     1      46.211   8.688  12.400  0.00  0.00    +0.000 A 
ATOM      6  C   UNL     1      44.879   8.332  12.199  0.00  0.00    +0.000 A 
ATOM      7  C   UNL     1      44.562   7.125  11.571  0.00  0.00    +0.000 A 
ATOM      8  C   UNL     1      45.562   6.247  11.116  0.00  0.00    +0.000 A 
ATOM      9  C   UNL     1      46.901   6.622  11.347  0.00  0.00    +0.000 A 
BRANCH   8  10
ATOM     10  C   UNL     1      45.221   5.001  10.392  0.00  0.00    +0.000 A 
ATOM     11  C   UNL     1      45.579   4.782   9.053  0.00  0.00    +0.000 A 
ATOM     12  C   UNL     1      45.216   3.602   8.401  0.00  0.00    +0.000 A 
ATOM     13  C   UNL     1      44.505   2.649   9.108  0.00  0.00    +0.000 A 
ATOM     14  N   UNL     1      44.141   2.801  10.394  0.00  0.00    +0.000 NA
ATOM     15  C   UNL     1      44.500   3.965  10.995  0.00  0.00    +0.000 A 
ENDBRANCH   8  10
ENDBRANCH   1   4
BRANCH   1  16
ATOM     16  C   UNL     1      48.989   8.532  13.675  0.00  0.00    +0.000 C 
BRANCH  16  17
ATOM     17  N   UNL     1      49.805   7.493  14.327  0.00  0.00    +0.000 N 
ATOM     18  H   UNL     1      50.548   7.106  13.747  0.00  0.00    +0.000 HD
BRANCH  17  22
ATOM     19  C   UNL     1      48.170   4.577  16.900  0.00  0.00    +0.000 A 
ATOM     20  C   UNL     1      49.325   5.262  17.280  0.00  0.00    +0.000 A 
ATOM     21  C   UNL     1      49.864   6.246  16.444  0.00  0.00    +0.000 A 
ATOM     22  C   UNL     1      49.254   6.592  15.233  0.00  0.00    +0.000 A 
ATOM     23  C   UNL     1      48.104   5.881  14.859  0.00  0.00    +0.000 A 
ATOM     24  C   UNL     1      47.566   4.879  15.678  0.00  0.00    +0.000 A 
BRANCH  19  26
ATOM     25  N   UNL     1      48.281   3.162  18.877  0.00  0.00    +0.000 N 
ATOM     26  C   UNL     1      47.597   3.495  17.740  0.00  0.00    +0.000 C 
ATOM     27  O   UNL     1      46.542   2.943  17.454  0.00  0.00    +0.000 OA
ATOM     28  H   UNL     1      47.833   2.492  19.491  0.00  0.00    +0.000 HD
ATOM     29  H   UNL     1      48.998   3.752  19.271  0.00  0.00    +0.000 HD
ENDBRANCH  19  26
ENDBRANCH  17  22
ENDBRANCH  16  17
ENDBRANCH   1  16
TORSDOF 6
ENDMDL
