MODEL 1
REMARK VINA RESULT:    -8.940      0.000      0.000
REMARK INTER + INTRA:         -13.225
REMARK INTER:                 -12.076
REMARK INTRA:                  -1.150
REMARK UNBOUND:                -1.150
REMARK  Name = 
REMARK  6 active torsions:
REMARK  status: ('A' for Active; 'I' for Inactive)
REMARK    1  A    between atoms: C_2  and  C_3
REMARK    2  A    between atoms: C_6  and  C_7
REMARK    3  A    between atoms: C_9  and  C_10
REMARK    4  A    between atoms: C_10  and  N_11
REMARK    5  A    between atoms: N_11  and  C_12
REMARK    6  A    between atoms: C_15  and  C_16
REMARK                            x       y       z     vdW  Elec       q    Type
REMARK                         _______ _______ _______ _____ _____    ______ ____
ROOT
ATOM      1  C   UNL     1      43.845   4.957  11.379  0.00  0.00    +0.000 C 
ATOM      2  C   UNL     1      42.979   6.194  11.273  0.00  0.00    +0.000 C 
ATOM      3  C   UNL     1      42.619   5.153  12.272  0.00  0.00    +0.000 C 
ENDROOT
BRANCH   1   6
ATOM      4  C   UNL     1      47.276   6.358  12.359  0.00  0.00    +0.000 A 
ATOM      5  C   UNL     1      46.055   6.191  11.702  0.00  0.00    +0.000 A 
ATOM      6  C   UNL     1      45.215   5.120  12.031  0.00  0.00    +0.000 A 
ATOM      7  C   UNL     1      45.690   4.211  12.983  0.00  0.00    +0.000 A 
ATOM      8  C   UNL     1      46.902   4.443  13.602  0.00  0.00    +0.000 A 
ATOM      9  N   UNL     1      47.695   5.491  13.315  0.00  0.00    +0.000 NA
BRANCH   4  13
ATOM     10  C   UNL     1      49.997   9.584  11.507  0.00  0.00    +0.000 A 
ATOM     11  C   UNL     1      48.646   9.855  11.743  0.00  0.00    +0.000 A 
ATOM     12  C   UNL     1      47.762   8.811  12.024  0.00  0.00    +0.000 A 
ATOM     13  C   UNL     1      48.197   7.474  12.070  0.00  0.00    +0.000 A 
ATOM     14  C   UNL     1      49.565   7.229  11.838  0.00  0.00    +0.000 A 
ATOM     15  C   UNL     1      50.455   8.267  11.557  0.00  0.00    +0.000 A 
BRANCH  10  17
ATOM     16  N   UNL     1      51.642  11.516  10.988  0.00  0.00    +0.000 NA
ATOM     17  C   UNL     1      50.903  10.654  11.220  0.00  0.00    +0.000 C 
ENDBRANCH  10  17
ENDBRANCH   4  13
ENDBRANCH   1   6
BRANCH   1  18
ATOM     18  N   UNL     1      43.770   3.759  10.544  0.00  0.00    +0.000 N 
ATOM     19  H   UNL     1      43.060   3.086  10.812  0.00  0.00    +0.000 HD
BRANCH  18  20
ATOM     20  C   UNL     1      44.611   3.305   9.517  0.00  0.00    +0.000 A 
ATOM     21  C   UNL     1      45.049   1.991   9.348  0.00  0.00    +0.000 A 
ATOM     22  C   UNL     1      45.987   1.672   8.349  0.00  0.00    +0.000 A 
ATOM     23  C   UNL     1      46.472   2.659   7.484  0.00  0.00    +0.000 A 
ATOM     24  C   UNL     1      46.013   3.967   7.617  0.00  0.00    +0.000 A 
ATOM     25  C   UNL     1      45.101   4.278   8.627  0.00  0.00    +0.000 A 
BRANCH  23  26
ATOM     26  C   UNL     1      47.512   2.304   6.484  0.00  0.00    +0.000 C 
ATOM     27  N   UNL     1      47.555   3.039   5.331  0.00  0.00    +0.000 N 
ATOM     28  O   UNL     1      48.297   1.385   6.676  0.00  0.00    +0.000 OA
ATOM     29  H   UNL     1      46.861   3.722   5.069  0.00  0.00    +0.000 HD
ATOM     30  H   UNL     1      48.247   2.773   4.642  0.00  0.00    +0.000 HD
ENDBRANCH  23  26
ENDBRANCH  18  20
ENDBRANCH   1  18
TORSDOF 6
ENDMDL
MODEL 2
REMARK VINA RESULT:    -8.004      2.315      4.120
REMARK INTER + INTRA:         -11.961
REMARK INTER:                 -11.487
REMARK INTRA:                  -0.473
REMARK UNBOUND:                -1.150
REMARK  Name = 
REMARK  6 active torsions:
REMARK  status: ('A' for Active; 'I' for Inactive)
REMARK    1  A    between atoms: C_2  and  C_3
REMARK    2  A    between atoms: C_6  and  C_7
REMARK    3  A    between atoms: C_9  and  C_10
REMARK    4  A    between atoms: C_10  and  N_11
REMARK    5  A    between atoms: N_11  and  C_12
REMARK    6  A    between atoms: C_15  and  C_16
REMARK                            x       y       z     vdW  Elec       q    Type
REMARK                         _______ _______ _______ _____ _____    ______ ____
ROOT
ATOM      1  C   UNL     1      43.832   5.031  11.417  0.00  0.00    +0.000 C 
ATOM      2  C   UNL     1      42.721   6.043  11.231  0.00  0.00    +0.000 C 
ATOM      3  C   UNL     1      42.677   5.141  12.413  0.00  0.00    +0.000 C 
ENDROOT
BRANCH   1   6
ATOM      4  C   UNL     1      46.973   5.724  13.503  0.00  0.00    +0.000 A 
ATOM      5  C   UNL     1      45.699   5.283  13.138  0.00  0.00    +0.000 A 
ATOM      6  C   UNL     1      45.190   5.564  11.864  0.00  0.00    +0.000 A 
ATOM      7  C   UNL     1      45.985   6.351  11.024  0.00  0.00    +0.000 A 
ATOM      8  C   UNL     1      47.240   6.745  11.444  0.00  0.00    +0.000 A 
ATOM      9  N   UNL     1      47.747   6.446  12.653  0.00  0.00    +0.000 NA
BRANCH   4  13
ATOM     10  C   UNL     1      48.697   4.876  17.356  0.00  0.00    +0.000 A 
ATOM     11  C   UNL     1      49.076   6.028  16.660  0.00  0.00    +0.000 A 
ATOM     12  C   UNL     1      48.515   6.308  15.412  0.00  0.00    +0.000 A 
ATOM     13  C   UNL     1      47.571   5.447  14.822  0.00  0.00    +0.000 A 
ATOM     14  C   UNL     1      47.201   4.297  15.549  0.00  0.00    +0.000 A 
ATOM     15  C   UNL     1      47.756   4.011  16.797  0.00  0.00    +0.000 A 
BRANCH  10  17
ATOM     16  N   UNL     1      49.741   4.363  19.670  0.00  0.00    +0.000 NA
ATOM     17  C   UNL     1      49.272   4.590  18.635  0.00  0.00    +0.000 C 
ENDBRANCH  10  17
ENDBRANCH   4  13
ENDBRANCH   1   6
BRANCH   1  18
ATOM     18  N   UNL     1      43.935   3.716  10.787  0.00  0.00    +0.000 N 
ATOM     19  H   UNL     1      43.476   2.960  11.284  0.00  0.00    +0.000 HD
BRANCH  18  20
ATOM     20  C   UNL     1      44.687   3.284   9.685  0.00  0.00    +0.000 A 
ATOM     21  C   UNL     1      45.139   1.982   9.470  0.00  0.00    +0.000 A 
ATOM     22  C   UNL     1      45.987   1.687   8.387  0.00  0.00    +0.000 A 
ATOM     23  C   UNL     1      46.366   2.688   7.485  0.00  0.00    +0.000 A 
ATOM     24  C   UNL     1      45.890   3.984   7.666  0.00  0.00    +0.000 A 
ATOM     25  C   UNL     1      45.069   4.271   8.758  0.00  0.00    +0.000 A 
BRANCH  23  26
ATOM     26  C   UNL     1      47.316   2.360   6.391  0.00  0.00    +0.000 C 
ATOM     27  N   UNL     1      47.365   3.212   5.321  0.00  0.00    +0.000 N 
ATOM     28  O   UNL     1      48.026   1.364   6.437  0.00  0.00    +0.000 OA
ATOM     29  H   UNL     1      46.722   3.974   5.176  0.00  0.00    +0.000 HD
ATOM     30  H   UNL     1      47.994   2.966   4.567  0.00  0.00    +0.000 HD
ENDBRANCH  23  26
ENDBRANCH  18  20
ENDBRANCH   1  18
TORSDOF 6
ENDMDL
MODEL 3
REMARK VINA RESULT:    -6.650      1.809      2.282
REMARK INTER + INTRA:         -10.132
REMARK INTER:                  -9.105
REMARK INTRA:                  -1.028
REMARK UNBOUND:                -1.150
REMARK  Name = 
REMARK  6 active torsions:
REMARK  status: ('A' for Active; 'I' for Inactive)
REMARK    1  A    between atoms: C_2  and  C_3
REMARK    2  A    between atoms: C_6  and  C_7
REMARK    3  A    between atoms: C_9  and  C_10
REMARK    4  A    between atoms: C_10  and  N_11
REMARK    5  A    between atoms: N_11  and  C_12
REMARK    6  A    between atoms: C_15  and  C_16
REMARK                            x       y       z     vdW  Elec       q    Type
REMARK                         _______ _______ _______ _____ _____    ______ ____
ROOT
ATOM      1  C   UNL     1      43.893   5.527  11.664  0.00  0.00    +0.000 C 
ATOM      2  C   UNL     1      42.392   5.521  11.461  0.00  0.00    +0.000 C 
ATOM      3  C   UNL     1      42.934   5.184  12.805  0.00  0.00    +0.000 C 
ENDROOT
BRANCH   1   6
ATOM      4  C   UNL     1      46.541   8.259  12.137  0.00  0.00    +0.000 A 
ATOM      5  C   UNL     1      45.907   7.014  12.158  0.00  0.00    +0.000 A 
ATOM      6  C   UNL     1      44.583   6.887  11.719  0.00  0.00    +0.000 A 
ATOM      7  C   UNL     1      43.927   8.061  11.334  0.00  0.00    +0.000 A 
ATOM      8  C   UNL     1      44.617   9.257  11.327  0.00  0.00    +0.000 A 
ATOM      9  N   UNL     1      45.900   9.377  11.713  0.00  0.00    +0.000 NA
BRANCH   4  13
ATOM     10  C   UNL     1      50.618   8.790  13.413  0.00  0.00    +0.000 A 
ATOM     11  C   UNL     1      49.944   9.836  12.779  0.00  0.00    +0.000 A 
ATOM     12  C   UNL     1      48.620   9.669  12.368  0.00  0.00    +0.000 A 
ATOM     13  C   UNL     1      47.937   8.456  12.570  0.00  0.00    +0.000 A 
ATOM     14  C   UNL     1      48.637   7.419  13.220  0.00  0.00    +0.000 A 
ATOM     15  C   UNL     1      49.960   7.579  13.634  0.00  0.00    +0.000 A 
BRANCH  10  17
ATOM     16  N   UNL     1      53.071   9.104  14.182  0.00  0.00    +0.000 NA
ATOM     17  C   UNL     1      51.975   8.962  13.835  0.00  0.00    +0.000 C 
ENDBRANCH  10  17
ENDBRANCH   4  13
ENDBRANCH   1   6
BRANCH   1  18
ATOM     18  N   UNL     1      44.825   4.447  11.343  0.00  0.00    +0.000 N 
ATOM     19  H   UNL     1      45.378   4.106  12.122  0.00  0.00    +0.000 HD
BRANCH  18  20
ATOM     20  C   UNL     1      45.200   3.897  10.109  0.00  0.00    +0.000 A 
ATOM     21  C   UNL     1      45.126   2.547   9.766  0.00  0.00    +0.000 A 
ATOM     22  C   UNL     1      45.640   2.090   8.539  0.00  0.00    +0.000 A 
ATOM     23  C   UNL     1      46.203   2.986   7.623  0.00  0.00    +0.000 A 
ATOM     24  C   UNL     1      46.246   4.342   7.936  0.00  0.00    +0.000 A 
ATOM     25  C   UNL     1      45.756   4.782   9.167  0.00  0.00    +0.000 A 
BRANCH  23  26
ATOM     26  C   UNL     1      46.798   2.465   6.365  0.00  0.00    +0.000 C 
ATOM     27  N   UNL     1      46.974   3.350   5.337  0.00  0.00    +0.000 N 
ATOM     28  O   UNL     1      47.114   1.289   6.246  0.00  0.00    +0.000 OA
ATOM     29  H   UNL     1      46.622   4.295   5.337  0.00  0.00    +0.000 HD
ATOM     30  H   UNL     1      47.352   2.981   4.473  0.00  0.00    +0.000 HD
ENDBRANCH  23  26
ENDBRANCH  18  20
ENDBRANCH   1  18
TORSDOF 6
ENDMDL
MODEL 4
REMARK VINA RESULT:    -6.288      5.427      8.844
REMARK INTER + INTRA:          -9.643
REMARK INTER:                  -8.605
REMARK INTRA:                  -1.038
REMARK UNBOUND:                -1.150
REMARK  Name = 
REMARK  6 active torsions:
REMARK  status: ('A' for Active; 'I' for Inactive)
REMARK    1  A    between atoms: C_2  and  C_3
REMARK    2  A    between atoms: C_6  and  C_7
REMARK    3  A    between atoms: C_9  and  C_10
REMARK    4  A    between atoms: C_10  and  N_11
REMARK    5  A    between atoms: N_11  and  C_12
REMARK    6  A    between atoms: C_15  and  C_16
REMARK                            x       y       z     vdW  Elec       q    Type
REMARK                         _______ _______ _______ _____ _____    ______ ____
ROOT
ATOM      1  C   UNL     1      49.164   5.778  18.178  0.00  0.00    +0.000 C 
ATOM      2  C   UNL     1      47.779   5.573  18.753  0.00  0.00    +0.000 C 
ATOM      3  C   UNL     1      48.548   6.781  19.154  0.00  0.00    +0.000 C 
ENDROOT
BRANCH   1   6
ATOM      4  C   UNL     1      48.350   6.256  14.462  0.00  0.00    +0.000 A 
ATOM      5  C   UNL     1      48.284   5.806  15.782  0.00  0.00    +0.000 A 
ATOM      6  C   UNL     1      49.255   6.197  16.713  0.00  0.00    +0.000 A 
ATOM      7  C   UNL     1      50.306   6.988  16.237  0.00  0.00    +0.000 A 
ATOM      8  C   UNL     1      50.304   7.407  14.922  0.00  0.00    +0.000 A 
ATOM      9  N   UNL     1      49.353   7.063  14.034  0.00  0.00    +0.000 NA
BRANCH   4  13
ATOM     10  C   UNL     1      45.415   5.167  11.506  0.00  0.00    +0.000 A 
ATOM     11  C   UNL     1      46.263   6.255  11.279  0.00  0.00    +0.000 A 
ATOM     12  C   UNL     1      47.219   6.608  12.234  0.00  0.00    +0.000 A 
ATOM     13  C   UNL     1      47.350   5.894  13.439  0.00  0.00    +0.000 A 
ATOM     14  C   UNL     1      46.489   4.796  13.639  0.00  0.00    +0.000 A 
ATOM     15  C   UNL     1      45.531   4.437  12.689  0.00  0.00    +0.000 A 
BRANCH  10  17
ATOM     16  N   UNL     1      43.640   4.517   9.735  0.00  0.00    +0.000 NA
ATOM     17  C   UNL     1      44.436   4.805  10.527  0.00  0.00    +0.000 C 
ENDBRANCH  10  17
ENDBRANCH   4  13
ENDBRANCH   1   6
BRANCH   1  18
ATOM     18  N   UNL     1      50.411   5.186  18.660  0.00  0.00    +0.000 N 
ATOM     19  H   UNL     1      50.945   5.763  19.302  0.00  0.00    +0.000 HD
BRANCH  18  20
ATOM     20  C   UNL     1      51.078   4.014  18.275  0.00  0.00    +0.000 A 
ATOM     21  C   UNL     1      50.518   2.962  17.551  0.00  0.00    +0.000 A 
ATOM     22  C   UNL     1      51.248   1.782  17.321  0.00  0.00    +0.000 A 
ATOM     23  C   UNL     1      52.562   1.654  17.785  0.00  0.00    +0.000 A 
ATOM     24  C   UNL     1      53.147   2.712  18.475  0.00  0.00    +0.000 A 
ATOM     25  C   UNL     1      52.405   3.870  18.719  0.00  0.00    +0.000 A 
BRANCH  23  26
ATOM     26  C   UNL     1      53.283   0.370  17.586  0.00  0.00    +0.000 C 
ATOM     27  N   UNL     1      53.003  -0.652  18.451  0.00  0.00    +0.000 N 
ATOM     28  O   UNL     1      54.103   0.229  16.688  0.00  0.00    +0.000 OA
ATOM     29  H   UNL     1      52.431  -0.554  19.276  0.00  0.00    +0.000 HD
ATOM     30  H   UNL     1      53.519  -1.513  18.328  0.00  0.00    +0.000 HD
ENDBRANCH  23  26
ENDBRANCH  18  20
ENDBRANCH   1  18
TORSDOF 6
ENDMDL
MODEL 5
REMARK VINA RESULT:    -6.272      4.402      6.566
REMARK INTER + INTRA:          -9.621
REMARK INTER:                  -8.806
REMARK INTRA:                  -0.815
REMARK UNBOUND:                -1.150
REMARK  Name = 
REMARK  6 active torsions:
REMARK  status: ('A' for Active; 'I' for Inactive)
REMARK    1  A    between atoms: C_2  and  C_3
REMARK    2  A    between atoms: C_6  and  C_7
REMARK    3  A    between atoms: C_9  and  C_10
REMARK    4  A    between atoms: C_10  and  N_11
REMARK    5  A    between atoms: N_11  and  C_12
REMARK    6  A    between atoms: C_15  and  C_16
REMARK                            x       y       z     vdW  Elec       q    Type
REMARK                         _______ _______ _______ _____ _____    ______ ____
ROOT
ATOM      1  C   UNL     1      47.746   8.005  13.252  0.00  0.00    +0.000 C 
ATOM      2  C   UNL     1      48.688   7.936  12.069  0.00  0.00    +0.000 C 
ATOM      3  C   UNL     1      48.015   9.227  12.374  0.00  0.00    +0.000 C 
ENDROOT
BRANCH   1   6
ATOM      4  C   UNL     1      49.729   6.934  16.354  0.00  0.00    +0.000 A 
ATOM      5  C   UNL     1      49.106   6.895  15.104  0.00  0.00    +0.000 A 
ATOM      6  C   UNL     1      48.373   7.995  14.643  0.00  0.00    +0.000 A 
ATOM      7  C   UNL     1      48.245   9.082  15.516  0.00  0.00    +0.000 A 
ATOM      8  C   UNL     1      48.895   9.059  16.734  0.00  0.00    +0.000 A 
ATOM      9  N   UNL     1      49.631   8.018  17.164  0.00  0.00    +0.000 NA
BRANCH   4  13
ATOM     10  C   UNL     1      52.097   3.695  17.912  0.00  0.00    +0.000 A 
ATOM     11  C   UNL     1      50.709   3.563  17.822  0.00  0.00    +0.000 A 
ATOM     12  C   UNL     1      49.939   4.610  17.313  0.00  0.00    +0.000 A 
ATOM     13  C   UNL     1      50.527   5.815  16.889  0.00  0.00    +0.000 A 
ATOM     14  C   UNL     1      51.930   5.919  16.983  0.00  0.00    +0.000 A 
ATOM     15  C   UNL     1      52.707   4.876  17.490  0.00  0.00    +0.000 A 
BRANCH  10  17
ATOM     16  N   UNL     1      53.531   1.753  18.852  0.00  0.00    +0.000 NA
ATOM     17  C   UNL     1      52.887   2.621  18.434  0.00  0.00    +0.000 C 
ENDBRANCH  10  17
ENDBRANCH   4  13
ENDBRANCH   1   6
BRANCH   1  18
ATOM     18  N   UNL     1      46.340   7.604  13.278  0.00  0.00    +0.000 N 
ATOM     19  H   UNL     1      45.719   8.234  13.775  0.00  0.00    +0.000 HD
BRANCH  18  20
ATOM     20  C   UNL     1      45.717   6.419  12.862  0.00  0.00    +0.000 A 
ATOM     21  C   UNL     1      45.880   5.165  13.451  0.00  0.00    +0.000 A 
ATOM     22  C   UNL     1      45.297   4.022  12.877  0.00  0.00    +0.000 A 
ATOM     23  C   UNL     1      44.513   4.124  11.722  0.00  0.00    +0.000 A 
ATOM     24  C   UNL     1      44.310   5.375  11.145  0.00  0.00    +0.000 A 
ATOM     25  C   UNL     1      44.914   6.501  11.709  0.00  0.00    +0.000 A 
BRANCH  23  26
ATOM     26  C   UNL     1      43.966   2.890  11.100  0.00  0.00    +0.000 C 
ATOM     27  N   UNL     1      44.644   2.369  10.032  0.00  0.00    +0.000 N 
ATOM     28  O   UNL     1      42.946   2.361  11.519  0.00  0.00    +0.000 OA
ATOM     29  H   UNL     1      45.415   2.828   9.573  0.00  0.00    +0.000 HD
ATOM     30  H   UNL     1      44.250   1.545   9.596  0.00  0.00    +0.000 HD
ENDBRANCH  23  26
ENDBRANCH  18  20
ENDBRANCH   1  18
TORSDOF 6
ENDMDL
MODEL 6
REMARK VINA RESULT:    -6.184      4.482      8.422
REMARK INTER + INTRA:          -9.503
REMARK INTER:                  -8.431
REMARK INTRA:                  -1.071
REMARK UNBOUND:                -1.150
REMARK  Name = 
REMARK  6 active torsions:
REMARK  status: ('A' for Active; 'I' for Inactive)
REMARK    1  A    between atoms: C_2  and  C_3
REMARK    2  A    between atoms: C_6  and  C_7
REMARK    3  A    between atoms: C_9  and  C_10
REMARK    4  A    between atoms: C_10  and  N_11
REMARK    5  A    between atoms: N_11  and  C_12
REMARK    6  A    between atoms: C_15  and  C_16
REMARK                            x       y       z     vdW  Elec       q    Type
REMARK                         _______ _______ _______ _____ _____    ______ ____
ROOT
ATOM      1  C   UNL     1      49.222   8.423  17.344  0.00  0.00    +0.000 C 
ATOM      2  C   UNL     1      48.161   9.441  17.706  0.00  0.00    +0.000 C 
ATOM      3  C   UNL     1      49.589   9.857  17.726  0.00  0.00    +0.000 C 
ENDROOT
BRANCH   1   6
ATOM      4  C   UNL     1      48.447   7.027  13.858  0.00  0.00    +0.000 A 
ATOM      5  C   UNL     1      48.345   7.307  15.223  0.00  0.00    +0.000 A 
ATOM      6  C   UNL     1      49.346   8.041  15.872  0.00  0.00    +0.000 A 
ATOM      7  C   UNL     1      50.460   8.406  15.108  0.00  0.00    +0.000 A 
ATOM      8  C   UNL     1      50.492   8.105  13.761  0.00  0.00    +0.000 A 
ATOM      9  N   UNL     1      49.515   7.433  13.126  0.00  0.00    +0.000 NA
BRANCH   4  13
ATOM     10  C   UNL     1      45.456   4.857  11.650  0.00  0.00    +0.000 A 
ATOM     11  C   UNL     1      45.844   4.415  12.917  0.00  0.00    +0.000 A 
ATOM     12  C   UNL     1      46.811   5.120  13.638  0.00  0.00    +0.000 A 
ATOM     13  C   UNL     1      47.420   6.274  13.114  0.00  0.00    +0.000 A 
ATOM     14  C   UNL     1      47.005   6.703  11.837  0.00  0.00    +0.000 A 
ATOM     15  C   UNL     1      46.038   6.005  11.111  0.00  0.00    +0.000 A 
BRANCH  10  17
ATOM     16  N   UNL     1      43.658   3.557  10.313  0.00  0.00    +0.000 NA
ATOM     17  C   UNL     1      44.464   4.136  10.912  0.00  0.00    +0.000 C 
ENDBRANCH  10  17
ENDBRANCH   4  13
ENDBRANCH   1   6
BRANCH   1  18
ATOM     18  N   UNL     1      49.809   7.416  18.227  0.00  0.00    +0.000 N 
ATOM     19  H   UNL     1      50.196   7.773  19.094  0.00  0.00    +0.000 HD
BRANCH  18  20
ATOM     20  C   UNL     1      50.067   6.053  18.018  0.00  0.00    +0.000 A 
ATOM     21  C   UNL     1      51.319   5.493  17.764  0.00  0.00    +0.000 A 
ATOM     22  C   UNL     1      51.442   4.127  17.454  0.00  0.00    +0.000 A 
ATOM     23  C   UNL     1      50.316   3.296  17.428  0.00  0.00    +0.000 A 
ATOM     24  C   UNL     1      49.066   3.834  17.719  0.00  0.00    +0.000 A 
ATOM     25  C   UNL     1      48.950   5.197  18.002  0.00  0.00    +0.000 A 
BRANCH  23  26
ATOM     26  C   UNL     1      50.470   1.873  17.031  0.00  0.00    +0.000 C 
ATOM     27  N   UNL     1      51.252   1.078  17.823  0.00  0.00    +0.000 N 
ATOM     28  O   UNL     1      49.925   1.425  16.031  0.00  0.00    +0.000 OA
ATOM     29  H   UNL     1      51.818   1.419  18.585  0.00  0.00    +0.000 HD
ATOM     30  H   UNL     1      51.376   0.116  17.530  0.00  0.00    +0.000 HD
ENDBRANCH  23  26
ENDBRANCH  18  20
ENDBRANCH   1  18
TORSDOF 6
ENDMDL
