MODEL 1
REMARK VINA RESULT:    -8.220      0.000      0.000
REMARK INTER + INTRA:         -12.686
REMARK INTER:                 -11.584
REMARK INTRA:                  -1.102
REMARK UNBOUND:                -1.102
REMARK  Name = 
REMARK  9 active torsions:
REMARK  status: ('A' for Active; 'I' for Inactive)
REMARK    1  A    between atoms: C_1  and  O_2
REMARK    2  A    between atoms: O_2  and  C_3
REMARK    3  A    between atoms: C_6  and  C_7
REMARK    4  A    between atoms: C_7  and  N_8
REMARK    5  A    between atoms: C_9  and  C_11
REMARK    6  A    between atoms: C_22  and  C_23
REMARK    7  A    between atoms: C_23  and  N_24
REMARK    8  A    between atoms: C_25  and  C_27
REMARK    9  A    between atoms: N_30  and  C_31
REMARK                            x       y       z     vdW  Elec       q    Type
REMARK                         _______ _______ _______ _____ _____    ______ ____
ROOT
ATOM      1  C   UNL     1      45.370   7.156  12.013  0.00  0.00    +0.000 A 
ATOM      2  C   UNL     1      46.303   7.465  13.009  0.00  0.00    +0.000 A 
ATOM      3  C   UNL     1      46.888   6.458  13.777  0.00  0.00    +0.000 A 
ATOM      4  C   UNL     1      46.532   5.123  13.584  0.00  0.00    +0.000 A 
ATOM      5  C   UNL     1      45.623   4.807  12.565  0.00  0.00    +0.000 A 
ATOM      6  C   UNL     1      45.050   5.810  11.760  0.00  0.00    +0.000 A 
ENDROOT
BRANCH   1   8
ATOM      7  C   UNL     1      44.882   9.453  11.632  0.00  0.00    +0.000 C 
ATOM      8  O   UNL     1      44.740   8.093  11.233  0.00  0.00    +0.000 OA
ENDBRANCH   1   8
BRANCH   4   9
ATOM      9  C   UNL     1      47.145   4.048  14.439  0.00  0.00    +0.000 C 
BRANCH   9  10
ATOM     10  N   UNL     1      47.655   4.585  15.674  0.00  0.00    +0.000 N 
ATOM     11  C   UNL     1      47.236   4.153  16.904  0.00  0.00    +0.000 C 
ATOM     12  O   UNL     1      46.388   3.277  17.041  0.00  0.00    +0.000 OA
ATOM     13  H   UNL     1      48.194   5.441  15.600  0.00  0.00    +0.000 HD
BRANCH  11  14
ATOM     14  C   UNL     1      47.916   4.745  18.065  0.00  0.00    +0.000 A 
ATOM     15  C   UNL     1      47.221   5.614  18.896  0.00  0.00    +0.000 A 
ATOM     16  S   UNL     1      48.131   6.169  20.226  0.00  0.00    +0.000 S 
ATOM     17  C   UNL     1      49.507   5.307  19.713  0.00  0.00    +0.000 A 
ATOM     18  N   UNL     1      50.671   5.371  20.412  0.00  0.00    +0.000 NA
ATOM     19  C   UNL     1      51.642   4.697  19.892  0.00  0.00    +0.000 A 
ATOM     20  N   UNL     1      51.551   3.959  18.742  0.00  0.00    +0.000 N 
ATOM     21  C   UNL     1      50.381   3.817  18.036  0.00  0.00    +0.000 A 
ATOM     22  O   UNL     1      50.311   3.069  17.066  0.00  0.00    +0.000 OA
ATOM     23  C   UNL     1      49.266   4.585  18.556  0.00  0.00    +0.000 A 
ATOM     24  H   UNL     1      52.344   3.436  18.399  0.00  0.00    +0.000 HD
ENDBRANCH  11  14
ENDBRANCH   9  10
ENDBRANCH   4   9
BRANCH   6  25
ATOM     25  C   UNL     1      44.115   5.403  10.648  0.00  0.00    +0.000 C 
BRANCH  25  26
ATOM     26  N   UNL     1      44.769   4.633   9.625  0.00  0.00    +0.000 N 
ATOM     27  C   UNL     1      44.626   3.272   9.483  0.00  0.00    +0.000 C 
ATOM     28  O   UNL     1      43.893   2.584  10.187  0.00  0.00    +0.000 OA
ATOM     29  H   UNL     1      45.363   5.094   8.943  0.00  0.00    +0.000 HD
BRANCH  27  30
ATOM     30  C   UNL     1      45.455   2.707   8.405  0.00  0.00    +0.000 A 
ATOM     31  C   UNL     1      46.044   1.415   8.372  0.00  0.00    +0.000 A 
ATOM     32  C   UNL     1      46.740   1.358   7.188  0.00  0.00    +0.000 A 
ATOM     33  N   UNL     1      46.559   2.569   6.592  0.00  0.00    +0.000 N 
ATOM     34  C   UNL     1      47.134   3.012   5.344  0.00  0.00    +0.000 C 
ATOM     35  N   UNL     1      45.770   3.406   7.292  0.00  0.00    +0.000 NA
ENDBRANCH  27  30
ENDBRANCH  25  26
ENDBRANCH   6  25
TORSDOF 7
ENDMDL
MODEL 2
REMARK VINA RESULT:    -8.059      2.098      3.077
REMARK INTER + INTRA:         -12.459
REMARK INTER:                 -11.182
REMARK INTRA:                  -1.277
REMARK UNBOUND:                -1.102
REMARK  Name = 
REMARK  9 active torsions:
REMARK  status: ('A' for Active; 'I' for Inactive)
REMARK    1  A    between atoms: C_1  and  O_2
REMARK    2  A    between atoms: O_2  and  C_3
REMARK    3  A    between atoms: C_6  and  C_7
REMARK    4  A    between atoms: C_7  and  N_8
REMARK    5  A    between atoms: C_9  and  C_11
REMARK    6  A    between atoms: C_22  and  C_23
REMARK    7  A    between atoms: C_23  and  N_24
REMARK    8  A    between atoms: C_25  and  C_27
REMARK    9  A    between atoms: N_30  and  C_31
REMARK                            x       y       z     vdW  Elec       q    Type
REMARK                         _______ _______ _______ _____ _____    ______ ____
ROOT
ATOM      1  C   UNL     1      44.898   8.512  11.617  0.00  0.00    +0.000 A 
ATOM      2  C   UNL     1      45.830   9.491  11.974  0.00  0.00    +0.000 A 
ATOM      3  C   UNL     1      47.160   9.152  12.231  0.00  0.00    +0.000 A 
ATOM      4  C   UNL     1      47.577   7.823  12.163  0.00  0.00    +0.000 A 
ATOM      5  C   UNL     1      46.653   6.844  11.772  0.00  0.00    +0.000 A 
ATOM      6  C   UNL     1      45.317   7.176  11.478  0.00  0.00    +0.000 A 
ENDROOT
BRANCH   1   8
ATOM      7  C   UNL     1      43.286   9.868  10.511  0.00  0.00    +0.000 C 
ATOM      8  O   UNL     1      43.572   8.768  11.369  0.00  0.00    +0.000 OA
ENDBRANCH   1   8
BRANCH   4   9
ATOM      9  C   UNL     1      49.004   7.464  12.472  0.00  0.00    +0.000 C 
BRANCH   9  10
ATOM     10  N   UNL     1      49.109   6.751  13.719  0.00  0.00    +0.000 N 
ATOM     11  C   UNL     1      49.180   7.379  14.933  0.00  0.00    +0.000 C 
ATOM     12  O   UNL     1      49.164   8.602  15.045  0.00  0.00    +0.000 OA
ATOM     13  H   UNL     1      49.332   5.764  13.651  0.00  0.00    +0.000 HD
BRANCH  11  14
ATOM     14  C   UNL     1      49.199   6.506  16.115  0.00  0.00    +0.000 A 
ATOM     15  C   UNL     1      50.071   6.786  17.159  0.00  0.00    +0.000 A 
ATOM     16  S   UNL     1      49.933   5.714  18.477  0.00  0.00    +0.000 S 
ATOM     17  C   UNL     1      48.735   4.803  17.680  0.00  0.00    +0.000 A 
ATOM     18  N   UNL     1      48.193   3.701  18.263  0.00  0.00    +0.000 NA
ATOM     19  C   UNL     1      47.323   3.087  17.533  0.00  0.00    +0.000 A 
ATOM     20  N   UNL     1      46.941   3.479  16.277  0.00  0.00    +0.000 N 
ATOM     21  C   UNL     1      47.418   4.616  15.673  0.00  0.00    +0.000 A 
ATOM     22  O   UNL     1      46.981   4.991  14.590  0.00  0.00    +0.000 OA
ATOM     23  C   UNL     1      48.428   5.326  16.435  0.00  0.00    +0.000 A 
ATOM     24  H   UNL     1      46.238   2.965  15.766  0.00  0.00    +0.000 HD
ENDBRANCH  11  14
ENDBRANCH   9  10
ENDBRANCH   4   9
BRANCH   6  25
ATOM     25  C   UNL     1      44.381   6.086  11.017  0.00  0.00    +0.000 C 
BRANCH  25  26
ATOM     26  N   UNL     1      44.989   5.198  10.064  0.00  0.00    +0.000 N 
ATOM     27  C   UNL     1      44.533   3.925   9.804  0.00  0.00    +0.000 C 
ATOM     28  O   UNL     1      43.537   3.436  10.328  0.00  0.00    +0.000 OA
ATOM     29  H   UNL     1      45.792   5.504   9.523  0.00  0.00    +0.000 HD
BRANCH  27  30
ATOM     30  C   UNL     1      45.370   3.191   8.840  0.00  0.00    +0.000 A 
ATOM     31  C   UNL     1      46.018   3.727   7.695  0.00  0.00    +0.000 A 
ATOM     32  C   UNL     1      46.651   2.662   7.099  0.00  0.00    +0.000 A 
ATOM     33  N   UNL     1      46.359   1.578   7.869  0.00  0.00    +0.000 N 
ATOM     34  C   UNL     1      46.760   0.213   7.625  0.00  0.00    +0.000 C 
ATOM     35  N   UNL     1      45.600   1.864   8.944  0.00  0.00    +0.000 NA
ENDBRANCH  27  30
ENDBRANCH  25  26
ENDBRANCH   6  25
TORSDOF 7
ENDMDL
MODEL 3
REMARK VINA RESULT:    -7.996      3.564      9.129
REMARK INTER + INTRA:         -12.371
REMARK INTER:                 -11.097
REMARK INTRA:                  -1.274
REMARK UNBOUND:                -1.102
REMARK  Name = 
REMARK  9 active torsions:
REMARK  status: ('A' for Active; 'I' for Inactive)
REMARK    1  A    between atoms: C_1  and  O_2
REMARK    2  A    between atoms: O_2  and  C_3
REMARK    3  A    between atoms: C_6  and  C_7
REMARK    4  A    between atoms: C_7  and  N_8
REMARK    5  A    between atoms: C_9  and  C_11
REMARK    6  A    between atoms: C_22  and  C_23
REMARK    7  A    between atoms: C_23  and  N_24
REMARK    8  A    between atoms: C_25  and  C_27
REMARK    9  A    between atoms: N_30  and  C_31
REMARK                            x       y       z     vdW  Elec       q    Type
REMARK                         _______ _______ _______ _____ _____    ______ ____
ROOT
ATOM      1  C   UNL     1      48.618   5.639  19.083  0.00  0.00    +0.000 A 
ATOM      2  C   UNL     1      48.529   7.029  18.951  0.00  0.00    +0.000 A 
ATOM      3  C   UNL     1      48.568   7.631  17.693  0.00  0.00    +0.000 A 
ATOM      4  C   UNL     1      48.724   6.857  16.542  0.00  0.00    +0.000 A 
ATOM      5  C   UNL     1      48.779   5.463  16.669  0.00  0.00    +0.000 A 
ATOM      6  C   UNL     1      48.707   4.840  17.930  0.00  0.00    +0.000 A 
ENDROOT
BRANCH   1   8
ATOM      7  C   UNL     1      49.776   5.098  21.090  0.00  0.00    +0.000 C 
ATOM      8  O   UNL     1      48.606   4.980  20.287  0.00  0.00    +0.000 OA
ENDBRANCH   1   8
BRANCH   4   9
ATOM      9  C   UNL     1      48.796   7.518  15.193  0.00  0.00    +0.000 C 
BRANCH   9  10
ATOM     10  N   UNL     1      47.624   7.236  14.406  0.00  0.00    +0.000 N 
ATOM     11  C   UNL     1      47.632   6.379  13.338  0.00  0.00    +0.000 C 
ATOM     12  O   UNL     1      48.647   5.792  12.971  0.00  0.00    +0.000 OA
ATOM     13  H   UNL     1      46.831   7.853  14.548  0.00  0.00    +0.000 HD
BRANCH  11  14
ATOM     14  C   UNL     1      46.335   6.136  12.692  0.00  0.00    +0.000 A 
ATOM     15  C   UNL     1      45.642   7.198  12.126  0.00  0.00    +0.000 A 
ATOM     16  S   UNL     1      44.184   6.743  11.370  0.00  0.00    +0.000 S 
ATOM     17  C   UNL     1      44.400   5.113  11.813  0.00  0.00    +0.000 A 
ATOM     18  N   UNL     1      43.473   4.173  11.488  0.00  0.00    +0.000 NA
ATOM     19  C   UNL     1      43.746   2.986  11.917  0.00  0.00    +0.000 A 
ATOM     20  N   UNL     1      44.865   2.654  12.635  0.00  0.00    +0.000 N 
ATOM     21  C   UNL     1      45.855   3.557  12.935  0.00  0.00    +0.000 A 
ATOM     22  O   UNL     1      46.889   3.204  13.492  0.00  0.00    +0.000 OA
ATOM     23  C   UNL     1      45.581   4.917  12.508  0.00  0.00    +0.000 A 
ATOM     24  H   UNL     1      45.030   1.700  12.923  0.00  0.00    +0.000 HD
ENDBRANCH  11  14
ENDBRANCH   9  10
ENDBRANCH   4   9
BRANCH   6  25
ATOM     25  C   UNL     1      48.725   3.332  17.997  0.00  0.00    +0.000 C 
BRANCH  25  26
ATOM     26  N   UNL     1      50.049   2.799  18.165  0.00  0.00    +0.000 N 
ATOM     27  C   UNL     1      50.672   1.992  17.240  0.00  0.00    +0.000 C 
ATOM     28  O   UNL     1      50.176   1.680  16.161  0.00  0.00    +0.000 OA
ATOM     29  H   UNL     1      50.589   3.027  18.994  0.00  0.00    +0.000 HD
BRANCH  27  30
ATOM     30  C   UNL     1      51.995   1.518  17.676  0.00  0.00    +0.000 A 
ATOM     31  C   UNL     1      53.174   2.298  17.820  0.00  0.00    +0.000 A 
ATOM     32  C   UNL     1      54.151   1.418  18.221  0.00  0.00    +0.000 A 
ATOM     33  N   UNL     1      53.548   0.198  18.286  0.00  0.00    +0.000 N 
ATOM     34  C   UNL     1      54.177  -1.059  18.618  0.00  0.00    +0.000 C 
ATOM     35  N   UNL     1      52.237   0.224  17.981  0.00  0.00    +0.000 NA
ENDBRANCH  27  30
ENDBRANCH  25  26
ENDBRANCH   6  25
TORSDOF 7
ENDMDL
MODEL 4
REMARK VINA RESULT:    -7.706      3.566      6.695
REMARK INTER + INTRA:         -11.961
REMARK INTER:                  -9.547
REMARK INTRA:                  -2.414
REMARK UNBOUND:                -1.102
REMARK  Name = 
REMARK  9 active torsions:
REMARK  status: ('A' for Active; 'I' for Inactive)
REMARK    1  A    between atoms: C_1  and  O_2
REMARK    2  A    between atoms: O_2  and  C_3
REMARK    3  A    between atoms: C_6  and  C_7
REMARK    4  A    between atoms: C_7  and  N_8
REMARK    5  A    between atoms: C_9  and  C_11
REMARK    6  A    between atoms: C_22  and  C_23
REMARK    7  A    between atoms: C_23  and  N_24
REMARK    8  A    between atoms: C_25  and  C_27
REMARK    9  A    between atoms: N_30  and  C_31
REMARK                            x       y       z     vdW  Elec       q    Type
REMARK                         _______ _______ _______ _____ _____    ______ ____
ROOT
ATOM      1  C   UNL     1      45.127   4.579  11.852  0.00  0.00    +0.000 A 
ATOM      2  C   UNL     1      44.597   5.660  11.139  0.00  0.00    +0.000 A 
ATOM      3  C   UNL     1      44.899   6.973  11.503  0.00  0.00    +0.000 A 
ATOM      4  C   UNL     1      45.715   7.232  12.605  0.00  0.00    +0.000 A 
ATOM      5  C   UNL     1      46.275   6.152  13.300  0.00  0.00    +0.000 A 
ATOM      6  C   UNL     1      46.006   4.822  12.923  0.00  0.00    +0.000 A 
ENDROOT
BRANCH   1   8
ATOM      7  C   UNL     1      43.507   2.843  11.707  0.00  0.00    +0.000 C 
ATOM      8  O   UNL     1      44.860   3.264  11.564  0.00  0.00    +0.000 OA
ENDBRANCH   1   8
BRANCH   4   9
ATOM      9  C   UNL     1      46.009   8.651  13.007  0.00  0.00    +0.000 C 
BRANCH   9  10
ATOM     10  N   UNL     1      46.888   8.703  14.146  0.00  0.00    +0.000 N 
ATOM     11  C   UNL     1      48.083   9.373  14.136  0.00  0.00    +0.000 C 
ATOM     12  O   UNL     1      48.493   9.974  13.146  0.00  0.00    +0.000 OA
ATOM     13  H   UNL     1      46.684   8.054  14.899  0.00  0.00    +0.000 HD
BRANCH  11  14
ATOM     14  C   UNL     1      48.823   9.399  15.405  0.00  0.00    +0.000 A 
ATOM     15  C   UNL     1      48.927  10.590  16.112  0.00  0.00    +0.000 A 
ATOM     16  S   UNL     1      49.768  10.443  17.587  0.00  0.00    +0.000 S 
ATOM     17  C   UNL     1      50.068   8.790  17.313  0.00  0.00    +0.000 A 
ATOM     18  N   UNL     1      50.781   8.052  18.205  0.00  0.00    +0.000 NA
ATOM     19  C   UNL     1      50.964   6.823  17.855  0.00  0.00    +0.000 A 
ATOM     20  N   UNL     1      50.492   6.263  16.697  0.00  0.00    +0.000 N 
ATOM     21  C   UNL     1      49.718   6.953  15.795  0.00  0.00    +0.000 A 
ATOM     22  O   UNL     1      49.229   6.394  14.820  0.00  0.00    +0.000 OA
ATOM     23  C   UNL     1      49.512   8.351  16.123  0.00  0.00    +0.000 A 
ATOM     24  H   UNL     1      50.651   5.287  16.492  0.00  0.00    +0.000 HD
ENDBRANCH  11  14
ENDBRANCH   9  10
ENDBRANCH   4   9
BRANCH   6  25
ATOM     25  C   UNL     1      46.675   3.702  13.681  0.00  0.00    +0.000 C 
BRANCH  25  26
ATOM     26  N   UNL     1      47.052   4.083  15.016  0.00  0.00    +0.000 N 
ATOM     27  C   UNL     1      47.865   3.324  15.827  0.00  0.00    +0.000 C 
ATOM     28  O   UNL     1      48.384   2.267  15.478  0.00  0.00    +0.000 OA
ATOM     29  H   UNL     1      46.731   4.964  15.403  0.00  0.00    +0.000 HD
BRANCH  27  30
ATOM     30  C   UNL     1      48.044   3.895  17.172  0.00  0.00    +0.000 A 
ATOM     31  C   UNL     1      48.779   3.327  18.247  0.00  0.00    +0.000 A 
ATOM     32  C   UNL     1      48.635   4.205  19.295  0.00  0.00    +0.000 A 
ATOM     33  N   UNL     1      47.844   5.211  18.831  0.00  0.00    +0.000 N 
ATOM     34  C   UNL     1      47.369   6.352  19.579  0.00  0.00    +0.000 C 
ATOM     35  N   UNL     1      47.482   5.067  17.542  0.00  0.00    +0.000 NA
ENDBRANCH  27  30
ENDBRANCH  25  26
ENDBRANCH   6  25
TORSDOF 7
ENDMDL
MODEL 5
REMARK VINA RESULT:    -7.614      1.601      1.970
REMARK INTER + INTRA:         -11.831
REMARK INTER:                 -10.907
REMARK INTRA:                  -0.925
REMARK UNBOUND:                -1.102
REMARK  Name = 
REMARK  9 active torsions:
REMARK  status: ('A' for Active; 'I' for Inactive)
REMARK    1  A    between atoms: C_1  and  O_2
REMARK    2  A    between atoms: O_2  and  C_3
REMARK    3  A    between atoms: C_6  and  C_7
REMARK    4  A    between atoms: C_7  and  N_8
REMARK    5  A    between atoms: C_9  and  C_11
REMARK    6  A    between atoms: C_22  and  C_23
REMARK    7  A    between atoms: C_23  and  N_24
REMARK    8  A    between atoms: C_25  and  C_27
REMARK    9  A    between atoms: N_30  and  C_31
REMARK                            x       y       z     vdW  Elec       q    Type
REMARK                         _______ _______ _______ _____ _____    ______ ____
ROOT
ATOM      1  C   UNL     1      44.919   8.226  11.663  0.00  0.00    +0.000 A 
ATOM      2  C   UNL     1      45.936   8.931  12.316  0.00  0.00    +0.000 A 
ATOM      3  C   UNL     1      46.947   8.257  13.000  0.00  0.00    +0.000 A 
ATOM      4  C   UNL     1      46.948   6.863  13.069  0.00  0.00    +0.000 A 
ATOM      5  C   UNL     1      45.950   6.153  12.388  0.00  0.00    +0.000 A 
ATOM      6  C   UNL     1      44.942   6.820  11.666  0.00  0.00    +0.000 A 
ENDROOT
BRANCH   1   8
ATOM      7  C   UNL     1      43.588  10.170  11.335  0.00  0.00    +0.000 C 
ATOM      8  O   UNL     1      43.883   8.821  10.987  0.00  0.00    +0.000 OA
ENDBRANCH   1   8
BRANCH   4   9
ATOM      9  C   UNL     1      48.025   6.147  13.836  0.00  0.00    +0.000 C 
BRANCH   9  10
ATOM     10  N   UNL     1      47.881   6.345  15.255  0.00  0.00    +0.000 N 
ATOM     11  C   UNL     1      48.948   6.411  16.111  0.00  0.00    +0.000 C 
ATOM     12  O   UNL     1      50.109   6.300  15.727  0.00  0.00    +0.000 OA
ATOM     13  H   UNL     1      46.945   6.232  15.629  0.00  0.00    +0.000 HD
BRANCH  11  14
ATOM     14  C   UNL     1      48.635   6.700  17.517  0.00  0.00    +0.000 A 
ATOM     15  C   UNL     1      48.354   8.004  17.902  0.00  0.00    +0.000 A 
ATOM     16  S   UNL     1      47.958   8.164  19.552  0.00  0.00    +0.000 S 
ATOM     17  C   UNL     1      48.195   6.501  19.826  0.00  0.00    +0.000 A 
ATOM     18  N   UNL     1      48.039   5.969  21.067  0.00  0.00    +0.000 NA
ATOM     19  C   UNL     1      48.285   4.703  21.138  0.00  0.00    +0.000 A 
ATOM     20  N   UNL     1      48.664   3.921  20.080  0.00  0.00    +0.000 N 
ATOM     21  C   UNL     1      48.777   4.403  18.798  0.00  0.00    +0.000 A 
ATOM     22  O   UNL     1      49.022   3.654  17.858  0.00  0.00    +0.000 OA
ATOM     23  C   UNL     1      48.548   5.829  18.667  0.00  0.00    +0.000 A 
ATOM     24  H   UNL     1      48.821   2.930  20.199  0.00  0.00    +0.000 HD
ENDBRANCH  11  14
ENDBRANCH   9  10
ENDBRANCH   4   9
BRANCH   6  25
ATOM     25  C   UNL     1      43.923   5.999  10.914  0.00  0.00    +0.000 C 
BRANCH  25  26
ATOM     26  N   UNL     1      44.520   5.139   9.929  0.00  0.00    +0.000 N 
ATOM     27  C   UNL     1      44.326   3.777   9.885  0.00  0.00    +0.000 C 
ATOM     28  O   UNL     1      43.591   3.165  10.655  0.00  0.00    +0.000 OA
ATOM     29  H   UNL     1      45.108   5.530   9.200  0.00  0.00    +0.000 HD
BRANCH  27  30
ATOM     30  C   UNL     1      45.103   3.111   8.826  0.00  0.00    +0.000 A 
ATOM     31  C   UNL     1      45.532   1.757   8.809  0.00  0.00    +0.000 A 
ATOM     32  C   UNL     1      46.240   1.610   7.640  0.00  0.00    +0.000 A 
ATOM     33  N   UNL     1      46.219   2.831   7.037  0.00  0.00    +0.000 N 
ATOM     34  C   UNL     1      46.869   3.195   5.800  0.00  0.00    +0.000 C 
ATOM     35  N   UNL     1      45.523   3.761   7.718  0.00  0.00    +0.000 NA
ENDBRANCH  27  30
ENDBRANCH  25  26
ENDBRANCH   6  25
TORSDOF 7
ENDMDL
MODEL 6
REMARK VINA RESULT:    -7.314      2.470      3.204
REMARK INTER + INTRA:         -11.410
REMARK INTER:                 -10.274
REMARK INTRA:                  -1.135
REMARK UNBOUND:                -1.102
REMARK  Name = 
REMARK  9 active torsions:
REMARK  status: ('A' for Active; 'I' for Inactive)
REMARK    1  A    between atoms: C_1  and  O_2
REMARK    2  A    between atoms: O_2  and  C_3
REMARK    3  A    between atoms: C_6  and  C_7
REMARK    4  A    between atoms: C_7  and  N_8
REMARK    5  A    between atoms: C_9  and  C_11
REMARK    6  A    between atoms: C_22  and  C_23
REMARK    7  A    between atoms: C_23  and  N_24
REMARK    8  A    between atoms: C_25  and  C_27
REMARK    9  A    between atoms: N_30  and  C_31
REMARK                            x       y       z     vdW  Elec       q    Type
REMARK                         _______ _______ _______ _____ _____    ______ ____
ROOT
ATOM      1  C   UNL     1      45.789   4.902  12.981  0.00  0.00    +0.000 A 
ATOM      2  C   UNL     1      46.538   4.913  14.162  0.00  0.00    +0.000 A 
ATOM      3  C   UNL     1      47.532   5.872  14.369  0.00  0.00    +0.000 A 
ATOM      4  C   UNL     1      47.815   6.821  13.387  0.00  0.00    +0.000 A 
ATOM      5  C   UNL     1      47.043   6.833  12.217  0.00  0.00    +0.000 A 
ATOM      6  C   UNL     1      46.016   5.893  12.009  0.00  0.00    +0.000 A 
ENDROOT
BRANCH   1   8
ATOM      7  C   UNL     1      43.504   4.271  13.186  0.00  0.00    +0.000 C 
ATOM      8  O   UNL     1      44.811   3.980  12.701  0.00  0.00    +0.000 OA
ENDBRANCH   1   8
BRANCH   4   9
ATOM      9  C   UNL     1      48.908   7.830  13.606  0.00  0.00    +0.000 C 
BRANCH   9  10
ATOM     10  N   UNL     1      50.036   7.244  14.284  0.00  0.00    +0.000 N 
ATOM     11  C   UNL     1      50.297   7.451  15.613  0.00  0.00    +0.000 C 
ATOM     12  O   UNL     1      49.587   8.159  16.321  0.00  0.00    +0.000 OA
ATOM     13  H   UNL     1      50.748   6.831  13.692  0.00  0.00    +0.000 HD
BRANCH  11  14
ATOM     14  C   UNL     1      51.439   6.714  16.171  0.00  0.00    +0.000 A 
ATOM     15  C   UNL     1      52.729   7.175  15.943  0.00  0.00    +0.000 A 
ATOM     16  S   UNL     1      53.937   6.242  16.703  0.00  0.00    +0.000 S 
ATOM     17  C   UNL     1      52.783   5.157  17.326  0.00  0.00    +0.000 A 
ATOM     18  N   UNL     1      53.164   4.084  18.069  0.00  0.00    +0.000 NA
ATOM     19  C   UNL     1      52.189   3.325  18.447  0.00  0.00    +0.000 A 
ATOM     20  N   UNL     1      50.869   3.548  18.156  0.00  0.00    +0.000 N 
ATOM     21  C   UNL     1      50.433   4.649  17.460  0.00  0.00    +0.000 A 
ATOM     22  O   UNL     1      49.236   4.868  17.304  0.00  0.00    +0.000 OA
ATOM     23  C   UNL     1      51.491   5.517  16.979  0.00  0.00    +0.000 A 
ATOM     24  H   UNL     1      50.152   2.926  18.502  0.00  0.00    +0.000 HD
ENDBRANCH  11  14
ENDBRANCH   9  10
ENDBRANCH   4   9
BRANCH   6  25
ATOM     25  C   UNL     1      45.189   5.986  10.751  0.00  0.00    +0.000 C 
BRANCH  25  26
ATOM     26  N   UNL     1      45.633   5.082   9.725  0.00  0.00    +0.000 N 
ATOM     27  C   UNL     1      44.890   4.017   9.269  0.00  0.00    +0.000 C 
ATOM     28  O   UNL     1      43.757   3.756   9.662  0.00  0.00    +0.000 OA
ATOM     29  H   UNL     1      46.535   5.221   9.280  0.00  0.00    +0.000 HD
BRANCH  27  30
ATOM     30  C   UNL     1      45.595   3.200   8.268  0.00  0.00    +0.000 A 
ATOM     31  C   UNL     1      45.991   1.842   8.403  0.00  0.00    +0.000 A 
ATOM     32  C   UNL     1      46.634   1.528   7.229  0.00  0.00    +0.000 A 
ATOM     33  N   UNL     1      46.610   2.662   6.477  0.00  0.00    +0.000 N 
ATOM     34  C   UNL     1      47.203   2.847   5.174  0.00  0.00    +0.000 C 
ATOM     35  N   UNL     1      45.972   3.691   7.067  0.00  0.00    +0.000 NA
ENDBRANCH  27  30
ENDBRANCH  25  26
ENDBRANCH   6  25
TORSDOF 7
ENDMDL
MODEL 7
REMARK VINA RESULT:    -7.246      2.322      3.028
REMARK INTER + INTRA:         -11.313
REMARK INTER:                 -10.708
REMARK INTRA:                  -0.606
REMARK UNBOUND:                -1.102
REMARK  Name = 
REMARK  9 active torsions:
REMARK  status: ('A' for Active; 'I' for Inactive)
REMARK    1  A    between atoms: C_1  and  O_2
REMARK    2  A    between atoms: O_2  and  C_3
REMARK    3  A    between atoms: C_6  and  C_7
REMARK    4  A    between atoms: C_7  and  N_8
REMARK    5  A    between atoms: C_9  and  C_11
REMARK    6  A    between atoms: C_22  and  C_23
REMARK    7  A    between atoms: C_23  and  N_24
REMARK    8  A    between atoms: C_25  and  C_27
REMARK    9  A    between atoms: N_30  and  C_31
REMARK                            x       y       z     vdW  Elec       q    Type
REMARK                         _______ _______ _______ _____ _____    ______ ____
ROOT
ATOM      1  C   UNL     1      44.484   6.344  11.832  0.00  0.00    +0.000 A 
ATOM      2  C   UNL     1      45.095   7.555  12.175  0.00  0.00    +0.000 A 
ATOM      3  C   UNL     1      46.313   7.572  12.855  0.00  0.00    +0.000 A 
ATOM      4  C   UNL     1      46.932   6.379  13.231  0.00  0.00    +0.000 A 
ATOM      5  C   UNL     1      46.340   5.165  12.858  0.00  0.00    +0.000 A 
ATOM      6  C   UNL     1      45.127   5.133  12.142  0.00  0.00    +0.000 A 
ENDROOT
BRANCH   1   8
ATOM      7  C   UNL     1      42.206   5.661  11.909  0.00  0.00    +0.000 C 
ATOM      8  O   UNL     1      43.279   6.249  11.180  0.00  0.00    +0.000 OA
ENDBRANCH   1   8
BRANCH   4   9
ATOM      9  C   UNL     1      48.229   6.410  13.991  0.00  0.00    +0.000 C 
BRANCH   9  10
ATOM     10  N   UNL     1      48.005   6.399  15.414  0.00  0.00    +0.000 N 
ATOM     11  C   UNL     1      49.014   6.235  16.326  0.00  0.00    +0.000 C 
ATOM     12  O   UNL     1      50.185   6.080  15.992  0.00  0.00    +0.000 OA
ATOM     13  H   UNL     1      47.040   6.316  15.714  0.00  0.00    +0.000 HD
BRANCH  11  14
ATOM     14  C   UNL     1      48.630   6.332  17.741  0.00  0.00    +0.000 A 
ATOM     15  C   UNL     1      48.698   5.203  18.547  0.00  0.00    +0.000 A 
ATOM     16  S   UNL     1      48.274   5.493  20.172  0.00  0.00    +0.000 S 
ATOM     17  C   UNL     1      47.935   7.129  19.849  0.00  0.00    +0.000 A 
ATOM     18  N   UNL     1      47.490   7.957  20.831  0.00  0.00    +0.000 NA
ATOM     19  C   UNL     1      47.239   9.162  20.439  0.00  0.00    +0.000 A 
ATOM     20  N   UNL     1      47.401   9.614  19.156  0.00  0.00    +0.000 N 
ATOM     21  C   UNL     1      47.903   8.831  18.145  0.00  0.00    +0.000 A 
ATOM     22  O   UNL     1      48.128   9.296  17.033  0.00  0.00    +0.000 OA
ATOM     23  C   UNL     1      48.167   7.455  18.523  0.00  0.00    +0.000 A 
ATOM     24  H   UNL     1      47.206  10.577  18.919  0.00  0.00    +0.000 HD
ENDBRANCH  11  14
ENDBRANCH   9  10
ENDBRANCH   4   9
BRANCH   6  25
ATOM     25  C   UNL     1      44.563   3.796  11.729  0.00  0.00    +0.000 C 
BRANCH  25  26
ATOM     26  N   UNL     1      45.262   3.219  10.613  0.00  0.00    +0.000 N 
ATOM     27  C   UNL     1      44.936   3.462   9.298  0.00  0.00    +0.000 C 
ATOM     28  O   UNL     1      44.044   4.228   8.945  0.00  0.00    +0.000 OA
ATOM     29  H   UNL     1      46.057   2.608  10.771  0.00  0.00    +0.000 HD
BRANCH  27  30
ATOM     30  C   UNL     1      45.756   2.697   8.343  0.00  0.00    +0.000 A 
ATOM     31  C   UNL     1      46.077   1.315   8.413  0.00  0.00    +0.000 A 
ATOM     32  C   UNL     1      46.879   1.068   7.324  0.00  0.00    +0.000 A 
ATOM     33  N   UNL     1      47.011   2.262   6.682  0.00  0.00    +0.000 N 
ATOM     34  C   UNL     1      47.802   2.525   5.502  0.00  0.00    +0.000 C 
ATOM     35  N   UNL     1      46.328   3.268   7.260  0.00  0.00    +0.000 NA
ENDBRANCH  27  30
ENDBRANCH  25  26
ENDBRANCH   6  25
TORSDOF 7
ENDMDL
MODEL 8
REMARK VINA RESULT:    -7.163      3.869      7.413
REMARK INTER + INTRA:         -11.196
REMARK INTER:                  -8.857
REMARK INTRA:                  -2.339
REMARK UNBOUND:                -1.102
REMARK  Name = 
REMARK  9 active torsions:
REMARK  status: ('A' for Active; 'I' for Inactive)
REMARK    1  A    between atoms: C_1  and  O_2
REMARK    2  A    between atoms: O_2  and  C_3
REMARK    3  A    between atoms: C_6  and  C_7
REMARK    4  A    between atoms: C_7  and  N_8
REMARK    5  A    between atoms: C_9  and  C_11
REMARK    6  A    between atoms: C_22  and  C_23
REMARK    7  A    between atoms: C_23  and  N_24
REMARK    8  A    between atoms: C_25  and  C_27
REMARK    9  A    between atoms: N_30  and  C_31
REMARK                            x       y       z     vdW  Elec       q    Type
REMARK                         _______ _______ _______ _____ _____    ______ ____
ROOT
ATOM      1  C   UNL     1      45.224   4.987  12.970  0.00  0.00    +0.000 A 
ATOM      2  C   UNL     1      44.977   5.919  11.956  0.00  0.00    +0.000 A 
ATOM      3  C   UNL     1      45.905   6.920  11.664  0.00  0.00    +0.000 A 
ATOM      4  C   UNL     1      47.086   7.026  12.400  0.00  0.00    +0.000 A 
ATOM      5  C   UNL     1      47.351   6.074  13.393  0.00  0.00    +0.000 A 
ATOM      6  C   UNL     1      46.439   5.039  13.675  0.00  0.00    +0.000 A 
ENDROOT
BRANCH   1   8
ATOM      7  C   UNL     1      43.798   3.220  12.260  0.00  0.00    +0.000 C 
ATOM      8  O   UNL     1      44.350   3.989  13.324  0.00  0.00    +0.000 OA
ENDBRANCH   1   8
BRANCH   4   9
ATOM      9  C   UNL     1      48.065   8.128  12.098  0.00  0.00    +0.000 C 
BRANCH   9  10
ATOM     10  N   UNL     1      49.338   7.886  12.726  0.00  0.00    +0.000 N 
ATOM     11  C   UNL     1      50.036   8.857  13.394  0.00  0.00    +0.000 C 
ATOM     12  O   UNL     1      49.625  10.009  13.500  0.00  0.00    +0.000 OA
ATOM     13  H   UNL     1      49.798   7.015  12.483  0.00  0.00    +0.000 HD
BRANCH  11  14
ATOM     14  C   UNL     1      51.279   8.427  14.050  0.00  0.00    +0.000 A 
ATOM     15  C   UNL     1      52.498   8.908  13.589  0.00  0.00    +0.000 A 
ATOM     16  S   UNL     1      53.837   8.359  14.489  0.00  0.00    +0.000 S 
ATOM     17  C   UNL     1      52.842   7.418  15.499  0.00  0.00    +0.000 A 
ATOM     18  N   UNL     1      53.375   6.658  16.492  0.00  0.00    +0.000 NA
ATOM     19  C   UNL     1      52.510   5.968  17.157  0.00  0.00    +0.000 A 
ATOM     20  N   UNL     1      51.160   5.975  16.924  0.00  0.00    +0.000 N 
ATOM     21  C   UNL     1      50.571   6.771  15.972  0.00  0.00    +0.000 A 
ATOM     22  O   UNL     1      49.352   6.827  15.857  0.00  0.00    +0.000 OA
ATOM     23  C   UNL     1      51.503   7.541  15.169  0.00  0.00    +0.000 A 
ATOM     24  H   UNL     1      50.534   5.428  17.497  0.00  0.00    +0.000 HD
ENDBRANCH  11  14
ENDBRANCH   9  10
ENDBRANCH   4   9
BRANCH   6  25
ATOM     25  C   UNL     1      46.803   4.016  14.723  0.00  0.00    +0.000 C 
BRANCH  25  26
ATOM     26  N   UNL     1      47.312   4.612  15.928  0.00  0.00    +0.000 N 
ATOM     27  C   UNL     1      47.145   4.067  17.181  0.00  0.00    +0.000 C 
ATOM     28  O   UNL     1      46.583   2.997  17.392  0.00  0.00    +0.000 OA
ATOM     29  H   UNL     1      47.844   5.475  15.883  0.00  0.00    +0.000 HD
BRANCH  27  30
ATOM     30  C   UNL     1      47.697   4.904  18.259  0.00  0.00    +0.000 A 
ATOM     31  C   UNL     1      47.056   5.998  18.899  0.00  0.00    +0.000 A 
ATOM     32  C   UNL     1      47.967   6.476  19.811  0.00  0.00    +0.000 A 
ATOM     33  N   UNL     1      49.072   5.693  19.677  0.00  0.00    +0.000 N 
ATOM     34  C   UNL     1      50.321   5.832  20.389  0.00  0.00    +0.000 C 
ATOM     35  N   UNL     1      48.938   4.717  18.758  0.00  0.00    +0.000 NA
ENDBRANCH  27  30
ENDBRANCH  25  26
ENDBRANCH   6  25
TORSDOF 7
ENDMDL
MODEL 9
REMARK VINA RESULT:    -6.927      2.010      2.891
REMARK INTER + INTRA:         -10.864
REMARK INTER:                  -9.629
REMARK INTRA:                  -1.235
REMARK UNBOUND:                -1.102
REMARK  Name = 
REMARK  9 active torsions:
REMARK  status: ('A' for Active; 'I' for Inactive)
REMARK    1  A    between atoms: C_1  and  O_2
REMARK    2  A    between atoms: O_2  and  C_3
REMARK    3  A    between atoms: C_6  and  C_7
REMARK    4  A    between atoms: C_7  and  N_8
REMARK    5  A    between atoms: C_9  and  C_11
REMARK    6  A    between atoms: C_22  and  C_23
REMARK    7  A    between atoms: C_23  and  N_24
REMARK    8  A    between atoms: C_25  and  C_27
REMARK    9  A    between atoms: N_30  and  C_31
REMARK                            x       y       z     vdW  Elec       q    Type
REMARK                         _______ _______ _______ _____ _____    ______ ____
ROOT
ATOM      1  C   UNL     1      45.968   4.587  12.743  0.00  0.00    +0.000 A 
ATOM      2  C   UNL     1      46.475   4.532  14.046  0.00  0.00    +0.000 A 
ATOM      3  C   UNL     1      47.232   5.585  14.562  0.00  0.00    +0.000 A 
ATOM      4  C   UNL     1      47.521   6.701  13.776  0.00  0.00    +0.000 A 
ATOM      5  C   UNL     1      46.985   6.774  12.483  0.00  0.00    +0.000 A 
ATOM      6  C   UNL     1      46.192   5.734  11.962  0.00  0.00    +0.000 A 
ENDROOT
BRANCH   1   8
ATOM      7  C   UNL     1      43.847   3.539  12.489  0.00  0.00    +0.000 C 
ATOM      8  O   UNL     1      45.232   3.583  12.163  0.00  0.00    +0.000 OA
ENDBRANCH   1   8
BRANCH   4   9
ATOM      9  C   UNL     1      48.364   7.816  14.332  0.00  0.00    +0.000 C 
BRANCH   9  10
ATOM     10  N   UNL     1      48.565   7.667  15.750  0.00  0.00    +0.000 N 
ATOM     11  C   UNL     1      49.760   7.284  16.297  0.00  0.00    +0.000 C 
ATOM     12  O   UNL     1      50.749   7.033  15.613  0.00  0.00    +0.000 OA
ATOM     13  H   UNL     1      47.727   7.663  16.322  0.00  0.00    +0.000 HD
BRANCH  11  14
ATOM     14  C   UNL     1      49.824   7.261  17.765  0.00  0.00    +0.000 A 
ATOM     15  C   UNL     1      50.183   8.412  18.453  0.00  0.00    +0.000 A 
ATOM     16  S   UNL     1      50.156   8.237  20.148  0.00  0.00    +0.000 S 
ATOM     17  C   UNL     1      49.710   6.598  20.026  0.00  0.00    +0.000 A 
ATOM     18  N   UNL     1      49.542   5.836  21.139  0.00  0.00    +0.000 NA
ATOM     19  C   UNL     1      49.240   4.604  20.899  0.00  0.00    +0.000 A 
ATOM     20  N   UNL     1      49.083   4.068  19.648  0.00  0.00    +0.000 N 
ATOM     21  C   UNL     1      49.185   4.813  18.499  0.00  0.00    +0.000 A 
ATOM     22  O   UNL     1      48.940   4.323  17.401  0.00  0.00    +0.000 OA
ATOM     23  C   UNL     1      49.560   6.198  18.709  0.00  0.00    +0.000 A 
ATOM     24  H   UNL     1      48.823   3.099  19.530  0.00  0.00    +0.000 HD
ENDBRANCH  11  14
ENDBRANCH   9  10
ENDBRANCH   4   9
BRANCH   6  25
ATOM     25  C   UNL     1      45.605   5.891  10.580  0.00  0.00    +0.000 C 
BRANCH  25  26
ATOM     26  N   UNL     1      46.058   4.878   9.666  0.00  0.00    +0.000 N 
ATOM     27  C   UNL     1      45.227   4.195   8.808  0.00  0.00    +0.000 C 
ATOM     28  O   UNL     1      44.023   4.409   8.707  0.00  0.00    +0.000 OA
ATOM     29  H   UNL     1      47.045   4.645   9.614  0.00  0.00    +0.000 HD
BRANCH  27  30
ATOM     30  C   UNL     1      45.921   3.159   8.025  0.00  0.00    +0.000 A 
ATOM     31  C   UNL     1      46.624   3.342   6.804  0.00  0.00    +0.000 A 
ATOM     32  C   UNL     1      47.072   2.093   6.446  0.00  0.00    +0.000 A 
ATOM     33  N   UNL     1      46.629   1.247   7.417  0.00  0.00    +0.000 N 
ATOM     34  C   UNL     1      46.807  -0.185   7.461  0.00  0.00    +0.000 C 
ATOM     35  N   UNL     1      45.943   1.861   8.400  0.00  0.00    +0.000 NA
ENDBRANCH  27  30
ENDBRANCH  25  26
ENDBRANCH   6  25
TORSDOF 7
ENDMDL
