MODEL 1
REMARK VINA RESULT:    -8.248      0.000      0.000
REMARK INTER + INTRA:         -13.401
REMARK INTER:                 -12.105
REMARK INTRA:                  -1.296
REMARK UNBOUND:                -1.296
REMARK  Name = 
REMARK  8 active torsions:
REMARK  status: ('A' for Active; 'I' for Inactive)
REMARK    1  A    between atoms: C_2  and  C_3
REMARK    2  A    between atoms: C_7  and  C_8
REMARK    3  A    between atoms: C_8  and  N_9
REMARK    4  A    between atoms: N_9  and  C_10
REMARK    5  A    between atoms: C_10  and  C_11
REMARK    6  A    between atoms: C_14  and  C_15
REMARK    7  A    between atoms: C_15  and  N_16
REMARK    8  A    between atoms: C_17  and  C_19
REMARK                            x       y       z     vdW  Elec       q    Type
REMARK                         _______ _______ _______ _____ _____    ______ ____
ROOT
ATOM      1  C   UNL     1      44.619   6.046  11.922  0.00  0.00    +0.000 A 
ATOM      2  C   UNL     1      44.931   5.310  13.076  0.00  0.00    +0.000 A 
ATOM      3  C   UNL     1      46.163   5.460  13.719  0.00  0.00    +0.000 A 
ATOM      4  C   UNL     1      47.119   6.354  13.222  0.00  0.00    +0.000 A 
ATOM      5  C   UNL     1      46.828   7.059  12.045  0.00  0.00    +0.000 A 
ATOM      6  C   UNL     1      45.589   6.916  11.407  0.00  0.00    +0.000 A 
ENDROOT
BRANCH   1   7
ATOM      7  C   UNL     1      43.272   5.869  11.252  0.00  0.00    +0.000 C 
BRANCH   7   8
ATOM      8  N   UNL     1      43.405   5.154   9.982  0.00  0.00    +0.000 NA
ATOM      9  H   UNL     1      42.503   5.137   9.511  0.00  0.00    +0.000 HD
BRANCH   8  10
ATOM     10  C   UNL     1      43.854   3.777  10.162  0.00  0.00    +0.000 C 
BRANCH  10  15
ATOM     11  C   UNL     1      46.253   1.762   7.980  0.00  0.00    +0.000 A 
ATOM     12  C   UNL     1      46.900   2.767   7.260  0.00  0.00    +0.000 A 
ATOM     13  C   UNL     1      46.577   4.104   7.487  0.00  0.00    +0.000 A 
ATOM     14  C   UNL     1      45.603   4.441   8.431  0.00  0.00    +0.000 A 
ATOM     15  C   UNL     1      44.931   3.441   9.150  0.00  0.00    +0.000 A 
ATOM     16  C   UNL     1      45.269   2.098   8.914  0.00  0.00    +0.000 A 
BRANCH  11  18
ATOM     17  N   UNL     1      46.873  -0.722   7.577  0.00  0.00    +0.000 NA
ATOM     18  C   UNL     1      46.594   0.386   7.761  0.00  0.00    +0.000 C 
ENDBRANCH  11  18
ENDBRANCH  10  15
ENDBRANCH   8  10
ENDBRANCH   7   8
ENDBRANCH   1   7
BRANCH   4  19
ATOM     19  C   UNL     1      48.443   6.565  13.915  0.00  0.00    +0.000 C 
BRANCH  19  20
ATOM     20  N   UNL     1      48.306   6.540  15.344  0.00  0.00    +0.000 N 
ATOM     21  C   UNL     1      48.927   7.465  16.150  0.00  0.00    +0.000 C 
ATOM     22  O   UNL     1      49.615   8.376  15.702  0.00  0.00    +0.000 OA
ATOM     23  H   UNL     1      48.029   5.655  15.755  0.00  0.00    +0.000 HD
BRANCH  21  24
ATOM     24  C   UNL     1      48.654   7.334  17.586  0.00  0.00    +0.000 A 
ATOM     25  C   UNL     1      48.176   8.418  18.309  0.00  0.00    +0.000 A 
ATOM     26  S   UNL     1      47.881   8.061  19.952  0.00  0.00    +0.000 S 
ATOM     27  C   UNL     1      48.421   6.459  19.760  0.00  0.00    +0.000 A 
ATOM     28  N   UNL     1      48.459   5.597  20.813  0.00  0.00    +0.000 NA
ATOM     29  C   UNL     1      48.908   4.420  20.525  0.00  0.00    +0.000 A 
ATOM     30  N   UNL     1      49.313   4.022  19.278  0.00  0.00    +0.000 N 
ATOM     31  C   UNL     1      49.261   4.844  18.181  0.00  0.00    +0.000 A 
ATOM     32  O   UNL     1      49.570   4.434  17.067  0.00  0.00    +0.000 OA
ATOM     33  C   UNL     1      48.791   6.190  18.455  0.00  0.00    +0.000 A 
ATOM     34  H   UNL     1      49.633   3.080  19.111  0.00  0.00    +0.000 HD
ENDBRANCH  21  24
ENDBRANCH  19  20
ENDBRANCH   4  19
TORSDOF 8
ENDMDL
MODEL 2
REMARK VINA RESULT:    -7.933      1.307      2.193
REMARK INTER + INTRA:         -12.939
REMARK INTER:                 -11.680
REMARK INTRA:                  -1.259
REMARK UNBOUND:                -1.296
REMARK  Name = 
REMARK  8 active torsions:
REMARK  status: ('A' for Active; 'I' for Inactive)
REMARK    1  A    between atoms: C_2  and  C_3
REMARK    2  A    between atoms: C_7  and  C_8
REMARK    3  A    between atoms: C_8  and  N_9
REMARK    4  A    between atoms: N_9  and  C_10
REMARK    5  A    between atoms: C_10  and  C_11
REMARK    6  A    between atoms: C_14  and  C_15
REMARK    7  A    between atoms: C_15  and  N_16
REMARK    8  A    between atoms: C_17  and  C_19
REMARK                            x       y       z     vdW  Elec       q    Type
REMARK                         _______ _______ _______ _____ _____    ______ ____
ROOT
ATOM      1  C   UNL     1      44.547   5.937  11.989  0.00  0.00    +0.000 A 
ATOM      2  C   UNL     1      45.540   6.834  11.566  0.00  0.00    +0.000 A 
ATOM      3  C   UNL     1      46.763   6.928  12.236  0.00  0.00    +0.000 A 
ATOM      4  C   UNL     1      47.026   6.124  13.351  0.00  0.00    +0.000 A 
ATOM      5  C   UNL     1      46.020   5.257  13.802  0.00  0.00    +0.000 A 
ATOM      6  C   UNL     1      44.798   5.155  13.124  0.00  0.00    +0.000 A 
ENDROOT
BRANCH   1   7
ATOM      7  C   UNL     1      43.235   5.850  11.237  0.00  0.00    +0.000 C 
BRANCH   7   8
ATOM      8  N   UNL     1      43.393   5.112   9.984  0.00  0.00    +0.000 NA
ATOM      9  H   UNL     1      42.493   5.058   9.511  0.00  0.00    +0.000 HD
BRANCH   8  10
ATOM     10  C   UNL     1      43.880   3.752  10.197  0.00  0.00    +0.000 C 
BRANCH  10  15
ATOM     11  C   UNL     1      46.243   1.726   7.986  0.00  0.00    +0.000 A 
ATOM     12  C   UNL     1      46.891   2.728   7.264  0.00  0.00    +0.000 A 
ATOM     13  C   UNL     1      46.581   4.067   7.498  0.00  0.00    +0.000 A 
ATOM     14  C   UNL     1      45.618   4.408   8.452  0.00  0.00    +0.000 A 
ATOM     15  C   UNL     1      44.945   3.411   9.174  0.00  0.00    +0.000 A 
ATOM     16  C   UNL     1      45.270   2.067   8.930  0.00  0.00    +0.000 A 
BRANCH  11  18
ATOM     17  N   UNL     1      46.842  -0.762   7.574  0.00  0.00    +0.000 NA
ATOM     18  C   UNL     1      46.570   0.348   7.758  0.00  0.00    +0.000 C 
ENDBRANCH  11  18
ENDBRANCH  10  15
ENDBRANCH   8  10
ENDBRANCH   7   8
ENDBRANCH   1   7
BRANCH   4  19
ATOM     19  C   UNL     1      48.351   6.176  14.072  0.00  0.00    +0.000 C 
BRANCH  19  20
ATOM     20  N   UNL     1      48.187   6.495  15.463  0.00  0.00    +0.000 N 
ATOM     21  C   UNL     1      48.469   5.583  16.454  0.00  0.00    +0.000 C 
ATOM     22  O   UNL     1      48.894   4.458  16.217  0.00  0.00    +0.000 OA
ATOM     23  H   UNL     1      47.559   7.260  15.680  0.00  0.00    +0.000 HD
BRANCH  21  24
ATOM     24  C   UNL     1      48.294   6.073  17.827  0.00  0.00    +0.000 A 
ATOM     25  C   UNL     1      47.501   5.371  18.724  0.00  0.00    +0.000 A 
ATOM     26  S   UNL     1      47.452   6.071  20.280  0.00  0.00    +0.000 S 
ATOM     27  C   UNL     1      48.456   7.357  19.795  0.00  0.00    +0.000 A 
ATOM     28  N   UNL     1      48.792   8.354  20.659  0.00  0.00    +0.000 NA
ATOM     29  C   UNL     1      49.544   9.273  20.149  0.00  0.00    +0.000 A 
ATOM     30  N   UNL     1      50.000   9.281  18.857  0.00  0.00    +0.000 N 
ATOM     31  C   UNL     1      49.716   8.282  17.961  0.00  0.00    +0.000 A 
ATOM     32  O   UNL     1      50.195   8.288  16.832  0.00  0.00    +0.000 OA
ATOM     33  C   UNL     1      48.849   7.237  18.474  0.00  0.00    +0.000 A 
ATOM     34  H   UNL     1      50.605  10.016  18.523  0.00  0.00    +0.000 HD
ENDBRANCH  21  24
ENDBRANCH  19  20
ENDBRANCH   4  19
TORSDOF 8
ENDMDL
MODEL 3
REMARK VINA RESULT:    -7.805      2.111      2.573
REMARK INTER + INTRA:         -12.751
REMARK INTER:                 -11.337
REMARK INTRA:                  -1.414
REMARK UNBOUND:                -1.296
REMARK  Name = 
REMARK  8 active torsions:
REMARK  status: ('A' for Active; 'I' for Inactive)
REMARK    1  A    between atoms: C_2  and  C_3
REMARK    2  A    between atoms: C_7  and  C_8
REMARK    3  A    between atoms: C_8  and  N_9
REMARK    4  A    between atoms: N_9  and  C_10
REMARK    5  A    between atoms: C_10  and  C_11
REMARK    6  A    between atoms: C_14  and  C_15
REMARK    7  A    between atoms: C_15  and  N_16
REMARK    8  A    between atoms: C_17  and  C_19
REMARK                            x       y       z     vdW  Elec       q    Type
REMARK                         _______ _______ _______ _____ _____    ______ ____
ROOT
ATOM      1  C   UNL     1      44.991   5.097  13.108  0.00  0.00    +0.000 A 
ATOM      2  C   UNL     1      44.862   6.427  12.678  0.00  0.00    +0.000 A 
ATOM      3  C   UNL     1      45.963   7.287  12.646  0.00  0.00    +0.000 A 
ATOM      4  C   UNL     1      47.227   6.837  13.046  0.00  0.00    +0.000 A 
ATOM      5  C   UNL     1      47.351   5.523  13.518  0.00  0.00    +0.000 A 
ATOM      6  C   UNL     1      46.249   4.658  13.540  0.00  0.00    +0.000 A 
ENDROOT
BRANCH   1   7
ATOM      7  C   UNL     1      43.781   4.186  13.124  0.00  0.00    +0.000 C 
BRANCH   7   8
ATOM      8  N   UNL     1      44.079   2.903  12.487  0.00  0.00    +0.000 NA
ATOM      9  H   UNL     1      45.080   2.839  12.313  0.00  0.00    +0.000 HD
BRANCH   8  10
ATOM     10  C   UNL     1      43.383   2.736  11.215  0.00  0.00    +0.000 C 
BRANCH  10  15
ATOM     11  C   UNL     1      45.853   2.226   8.350  0.00  0.00    +0.000 A 
ATOM     12  C   UNL     1      46.044   3.532   7.899  0.00  0.00    +0.000 A 
ATOM     13  C   UNL     1      45.389   4.589   8.528  0.00  0.00    +0.000 A 
ATOM     14  C   UNL     1      44.536   4.343   9.608  0.00  0.00    +0.000 A 
ATOM     15  C   UNL     1      44.320   3.034  10.062  0.00  0.00    +0.000 A 
ATOM     16  C   UNL     1      44.990   1.979   9.421  0.00  0.00    +0.000 A 
BRANCH  11  18
ATOM     17  N   UNL     1      47.090   0.255   7.208  0.00  0.00    +0.000 NA
ATOM     18  C   UNL     1      46.537   1.137   7.714  0.00  0.00    +0.000 C 
ENDBRANCH  11  18
ENDBRANCH  10  15
ENDBRANCH   8  10
ENDBRANCH   7   8
ENDBRANCH   1   7
BRANCH   4  19
ATOM     19  C   UNL     1      48.442   7.732  12.987  0.00  0.00    +0.000 C 
BRANCH  19  20
ATOM     20  N   UNL     1      49.516   7.223  13.793  0.00  0.00    +0.000 N 
ATOM     21  C   UNL     1      49.703   7.629  15.093  0.00  0.00    +0.000 C 
ATOM     22  O   UNL     1      48.957   8.428  15.651  0.00  0.00    +0.000 OA
ATOM     23  H   UNL     1      50.308   6.832  13.294  0.00  0.00    +0.000 HD
BRANCH  21  24
ATOM     24  C   UNL     1      50.818   6.986  15.800  0.00  0.00    +0.000 A 
ATOM     25  C   UNL     1      52.123   7.397  15.568  0.00  0.00    +0.000 A 
ATOM     26  S   UNL     1      53.275   6.563  16.510  0.00  0.00    +0.000 S 
ATOM     27  C   UNL     1      52.072   5.596  17.228  0.00  0.00    +0.000 A 
ATOM     28  N   UNL     1      52.391   4.628  18.130  0.00  0.00    +0.000 NA
ATOM     29  C   UNL     1      51.380   3.961  18.579  0.00  0.00    +0.000 A 
ATOM     30  N   UNL     1      50.077   4.180  18.216  0.00  0.00    +0.000 N 
ATOM     31  C   UNL     1      49.704   5.166  17.338  0.00  0.00    +0.000 A 
ATOM     32  O   UNL     1      48.523   5.377  17.087  0.00  0.00    +0.000 OA
ATOM     33  C   UNL     1      50.807   5.927  16.780  0.00  0.00    +0.000 A 
ATOM     34  H   UNL     1      49.326   3.640  18.621  0.00  0.00    +0.000 HD
ENDBRANCH  21  24
ENDBRANCH  19  20
ENDBRANCH   4  19
TORSDOF 8
ENDMDL
MODEL 4
REMARK VINA RESULT:    -7.775      2.487      3.310
REMARK INTER + INTRA:         -12.706
REMARK INTER:                 -11.631
REMARK INTRA:                  -1.075
REMARK UNBOUND:                -1.296
REMARK  Name = 
REMARK  8 active torsions:
REMARK  status: ('A' for Active; 'I' for Inactive)
REMARK    1  A    between atoms: C_2  and  C_3
REMARK    2  A    between atoms: C_7  and  C_8
REMARK    3  A    between atoms: C_8  and  N_9
REMARK    4  A    between atoms: N_9  and  C_10
REMARK    5  A    between atoms: C_10  and  C_11
REMARK    6  A    between atoms: C_14  and  C_15
REMARK    7  A    between atoms: C_15  and  N_16
REMARK    8  A    between atoms: C_17  and  C_19
REMARK                            x       y       z     vdW  Elec       q    Type
REMARK                         _______ _______ _______ _____ _____    ______ ____
ROOT
ATOM      1  C   UNL     1      46.436   4.641  13.336  0.00  0.00    +0.000 A 
ATOM      2  C   UNL     1      47.030   5.824  12.868  0.00  0.00    +0.000 A 
ATOM      3  C   UNL     1      47.905   6.561  13.671  0.00  0.00    +0.000 A 
ATOM      4  C   UNL     1      48.211   6.132  14.968  0.00  0.00    +0.000 A 
ATOM      5  C   UNL     1      47.586   4.974  15.454  0.00  0.00    +0.000 A 
ATOM      6  C   UNL     1      46.717   4.230  14.646  0.00  0.00    +0.000 A 
ENDROOT
BRANCH   1   7
ATOM      7  C   UNL     1      45.498   3.859  12.440  0.00  0.00    +0.000 C 
BRANCH   7   8
ATOM      8  N   UNL     1      44.743   4.752  11.560  0.00  0.00    +0.000 NA
ATOM      9  H   UNL     1      44.044   5.250  12.107  0.00  0.00    +0.000 HD
BRANCH   8  10
ATOM     10  C   UNL     1      44.058   4.031  10.491  0.00  0.00    +0.000 C 
BRANCH  10  15
ATOM     11  C   UNL     1      46.208   1.993   8.083  0.00  0.00    +0.000 A 
ATOM     12  C   UNL     1      46.813   2.992   7.321  0.00  0.00    +0.000 A 
ATOM     13  C   UNL     1      46.544   4.333   7.592  0.00  0.00    +0.000 A 
ATOM     14  C   UNL     1      45.665   4.679   8.622  0.00  0.00    +0.000 A 
ATOM     15  C   UNL     1      45.034   3.685   9.385  0.00  0.00    +0.000 A 
ATOM     16  C   UNL     1      45.317   2.338   9.104  0.00  0.00    +0.000 A 
BRANCH  11  18
ATOM     17  N   UNL     1      46.728  -0.502   7.610  0.00  0.00    +0.000 NA
ATOM     18  C   UNL     1      46.494   0.612   7.817  0.00  0.00    +0.000 C 
ENDBRANCH  11  18
ENDBRANCH  10  15
ENDBRANCH   8  10
ENDBRANCH   7   8
ENDBRANCH   1   7
BRANCH   4  19
ATOM     19  C   UNL     1      49.181   6.886  15.845  0.00  0.00    +0.000 C 
BRANCH  19  20
ATOM     20  N   UNL     1      50.198   6.023  16.378  0.00  0.00    +0.000 N 
ATOM     21  C   UNL     1      50.364   5.848  17.731  0.00  0.00    +0.000 C 
ATOM     22  O   UNL     1      49.647   6.396  18.563  0.00  0.00    +0.000 OA
ATOM     23  H   UNL     1      50.982   5.820  15.768  0.00  0.00    +0.000 HD
BRANCH  21  24
ATOM     24  C   UNL     1      51.417   4.901  18.119  0.00  0.00    +0.000 A 
ATOM     25  C   UNL     1      52.529   5.341  18.822  0.00  0.00    +0.000 A 
ATOM     26  S   UNL     1      53.621   4.091  19.218  0.00  0.00    +0.000 S 
ATOM     27  C   UNL     1      52.663   2.927  18.428  0.00  0.00    +0.000 A 
ATOM     28  N   UNL     1      53.048   1.623  18.363  0.00  0.00    +0.000 NA
ATOM     29  C   UNL     1      52.234   0.856  17.717  0.00  0.00    +0.000 A 
ATOM     30  N   UNL     1      51.063   1.271  17.138  0.00  0.00    +0.000 N 
ATOM     31  C   UNL     1      50.617   2.567  17.207  0.00  0.00    +0.000 A 
ATOM     32  O   UNL     1      49.533   2.890  16.734  0.00  0.00    +0.000 OA
ATOM     33  C   UNL     1      51.512   3.479  17.897  0.00  0.00    +0.000 A 
ATOM     34  H   UNL     1      50.455   0.618  16.666  0.00  0.00    +0.000 HD
ENDBRANCH  21  24
ENDBRANCH  19  20
ENDBRANCH   4  19
TORSDOF 8
ENDMDL
MODEL 5
REMARK VINA RESULT:    -7.574      3.284      8.848
REMARK INTER + INTRA:         -12.412
REMARK INTER:                 -10.639
REMARK INTRA:                  -1.773
REMARK UNBOUND:                -1.296
REMARK  Name = 
REMARK  8 active torsions:
REMARK  status: ('A' for Active; 'I' for Inactive)
REMARK    1  A    between atoms: C_2  and  C_3
REMARK    2  A    between atoms: C_7  and  C_8
REMARK    3  A    between atoms: C_8  and  N_9
REMARK    4  A    between atoms: N_9  and  C_10
REMARK    5  A    between atoms: C_10  and  C_11
REMARK    6  A    between atoms: C_14  and  C_15
REMARK    7  A    between atoms: C_15  and  N_16
REMARK    8  A    between atoms: C_17  and  C_19
REMARK                            x       y       z     vdW  Elec       q    Type
REMARK                         _______ _______ _______ _____ _____    ______ ____
ROOT
ATOM      1  C   UNL     1      49.050   7.858  16.162  0.00  0.00    +0.000 A 
ATOM      2  C   UNL     1      48.305   8.941  15.671  0.00  0.00    +0.000 A 
ATOM      3  C   UNL     1      47.778   8.930  14.377  0.00  0.00    +0.000 A 
ATOM      4  C   UNL     1      47.984   7.830  13.536  0.00  0.00    +0.000 A 
ATOM      5  C   UNL     1      48.765   6.764  14.008  0.00  0.00    +0.000 A 
ATOM      6  C   UNL     1      49.284   6.772  15.309  0.00  0.00    +0.000 A 
ENDROOT
BRANCH   1   7
ATOM      7  C   UNL     1      49.601   7.896  17.572  0.00  0.00    +0.000 C 
BRANCH   7   8
ATOM      8  N   UNL     1      48.574   7.535  18.550  0.00  0.00    +0.000 NA
ATOM      9  H   UNL     1      48.463   8.295  19.217  0.00  0.00    +0.000 HD
BRANCH   8  10
ATOM     10  C   UNL     1      48.910   6.322  19.290  0.00  0.00    +0.000 C 
BRANCH  10  15
ATOM     11  C   UNL     1      49.415   3.008  17.462  0.00  0.00    +0.000 A 
ATOM     12  C   UNL     1      48.155   2.794  16.902  0.00  0.00    +0.000 A 
ATOM     13  C   UNL     1      47.138   3.727  17.097  0.00  0.00    +0.000 A 
ATOM     14  C   UNL     1      47.376   4.876  17.857  0.00  0.00    +0.000 A 
ATOM     15  C   UNL     1      48.632   5.097  18.442  0.00  0.00    +0.000 A 
ATOM     16  C   UNL     1      49.648   4.150  18.233  0.00  0.00    +0.000 A 
BRANCH  11  18
ATOM     17  N   UNL     1      51.319   1.291  17.087  0.00  0.00    +0.000 NA
ATOM     18  C   UNL     1      50.468   2.058  17.250  0.00  0.00    +0.000 C 
ENDBRANCH  11  18
ENDBRANCH  10  15
ENDBRANCH   8  10
ENDBRANCH   7   8
ENDBRANCH   1   7
BRANCH   4  19
ATOM     19  C   UNL     1      47.396   7.772  12.147  0.00  0.00    +0.000 C 
BRANCH  19  20
ATOM     20  N   UNL     1      46.703   6.536  11.913  0.00  0.00    +0.000 N 
ATOM     21  C   UNL     1      45.343   6.494  11.712  0.00  0.00    +0.000 C 
ATOM     22  O   UNL     1      44.645   7.502  11.698  0.00  0.00    +0.000 OA
ATOM     23  H   UNL     1      47.168   5.692  12.227  0.00  0.00    +0.000 HD
BRANCH  21  24
ATOM     24  C   UNL     1      44.788   5.162  11.442  0.00  0.00    +0.000 A 
ATOM     25  C   UNL     1      44.013   4.520  12.398  0.00  0.00    +0.000 A 
ATOM     26  S   UNL     1      43.424   3.002  11.887  0.00  0.00    +0.000 S 
ATOM     27  C   UNL     1      44.219   3.134  10.388  0.00  0.00    +0.000 A 
ATOM     28  N   UNL     1      44.152   2.137   9.464  0.00  0.00    +0.000 NA
ATOM     29  C   UNL     1      44.818   2.366   8.381  0.00  0.00    +0.000 A 
ATOM     30  N   UNL     1      45.537   3.505   8.132  0.00  0.00    +0.000 N 
ATOM     31  C   UNL     1      45.605   4.551   9.017  0.00  0.00    +0.000 A 
ATOM     32  O   UNL     1      46.203   5.583   8.734  0.00  0.00    +0.000 OA
ATOM     33  C   UNL     1      44.897   4.333  10.266  0.00  0.00    +0.000 A 
ATOM     34  H   UNL     1      46.018   3.636   7.254  0.00  0.00    +0.000 HD
ENDBRANCH  21  24
ENDBRANCH  19  20
ENDBRANCH   4  19
TORSDOF 8
ENDMDL
MODEL 6
REMARK VINA RESULT:    -7.242      3.470      9.022
REMARK INTER + INTRA:         -11.925
REMARK INTER:                 -10.468
REMARK INTRA:                  -1.456
REMARK UNBOUND:                -1.296
REMARK  Name = 
REMARK  8 active torsions:
REMARK  status: ('A' for Active; 'I' for Inactive)
REMARK    1  A    between atoms: C_2  and  C_3
REMARK    2  A    between atoms: C_7  and  C_8
REMARK    3  A    between atoms: C_8  and  N_9
REMARK    4  A    between atoms: N_9  and  C_10
REMARK    5  A    between atoms: C_10  and  C_11
REMARK    6  A    between atoms: C_14  and  C_15
REMARK    7  A    between atoms: C_15  and  N_16
REMARK    8  A    between atoms: C_17  and  C_19
REMARK                            x       y       z     vdW  Elec       q    Type
REMARK                         _______ _______ _______ _____ _____    ______ ____
ROOT
ATOM      1  C   UNL     1      50.581   7.695  14.770  0.00  0.00    +0.000 A 
ATOM      2  C   UNL     1      49.293   7.207  15.036  0.00  0.00    +0.000 A 
ATOM      3  C   UNL     1      48.273   7.298  14.084  0.00  0.00    +0.000 A 
ATOM      4  C   UNL     1      48.517   7.884  12.837  0.00  0.00    +0.000 A 
ATOM      5  C   UNL     1      49.792   8.413  12.584  0.00  0.00    +0.000 A 
ATOM      6  C   UNL     1      50.816   8.311  13.534  0.00  0.00    +0.000 A 
ENDROOT
BRANCH   1   7
ATOM      7  C   UNL     1      51.668   7.574  15.818  0.00  0.00    +0.000 C 
BRANCH   7   8
ATOM      8  N   UNL     1      51.119   7.126  17.098  0.00  0.00    +0.000 NA
ATOM      9  H   UNL     1      51.047   7.921  17.729  0.00  0.00    +0.000 HD
BRANCH   8  10
ATOM     10  C   UNL     1      51.951   6.109  17.736  0.00  0.00    +0.000 C 
BRANCH  10  15
ATOM     11  C   UNL     1      49.266   3.417  17.390  0.00  0.00    +0.000 A 
ATOM     12  C   UNL     1      50.029   2.249  17.383  0.00  0.00    +0.000 A 
ATOM     13  C   UNL     1      51.416   2.323  17.506  0.00  0.00    +0.000 A 
ATOM     14  C   UNL     1      52.044   3.565  17.633  0.00  0.00    +0.000 A 
ATOM     15  C   UNL     1      51.292   4.749  17.624  0.00  0.00    +0.000 A 
ATOM     16  C   UNL     1      49.896   4.660  17.502  0.00  0.00    +0.000 A 
BRANCH  11  18
ATOM     17  N   UNL     1      46.685   3.280  17.192  0.00  0.00    +0.000 NA
ATOM     18  C   UNL     1      47.838   3.345  17.278  0.00  0.00    +0.000 C 
ENDBRANCH  11  18
ENDBRANCH  10  15
ENDBRANCH   8  10
ENDBRANCH   7   8
ENDBRANCH   1   7
BRANCH   4  19
ATOM     19  C   UNL     1      47.447   7.964  11.775  0.00  0.00    +0.000 C 
BRANCH  19  20
ATOM     20  N   UNL     1      46.739   6.723  11.638  0.00  0.00    +0.000 N 
ATOM     21  C   UNL     1      45.365   6.669  11.620  0.00  0.00    +0.000 C 
ATOM     22  O   UNL     1      44.662   7.671  11.696  0.00  0.00    +0.000 OA
ATOM     23  H   UNL     1      47.249   5.883  11.890  0.00  0.00    +0.000 HD
BRANCH  21  24
ATOM     24  C   UNL     1      44.790   5.332  11.429  0.00  0.00    +0.000 A 
ATOM     25  C   UNL     1      44.013   4.756  12.424  0.00  0.00    +0.000 A 
ATOM     26  S   UNL     1      43.400   3.219  12.004  0.00  0.00    +0.000 S 
ATOM     27  C   UNL     1      44.186   3.255  10.495  0.00  0.00    +0.000 A 
ATOM     28  N   UNL     1      44.099   2.208   9.630  0.00  0.00    +0.000 NA
ATOM     29  C   UNL     1      44.761   2.366   8.531  0.00  0.00    +0.000 A 
ATOM     30  N   UNL     1      45.493   3.480   8.213  0.00  0.00    +0.000 N 
ATOM     31  C   UNL     1      45.582   4.573   9.037  0.00  0.00    +0.000 A 
ATOM     32  O   UNL     1      46.192   5.579   8.692  0.00  0.00    +0.000 OA
ATOM     33  C   UNL     1      44.880   4.436  10.301  0.00  0.00    +0.000 A 
ATOM     34  H   UNL     1      45.970   3.554   7.327  0.00  0.00    +0.000 HD
ENDBRANCH  21  24
ENDBRANCH  19  20
ENDBRANCH   4  19
TORSDOF 8
ENDMDL
MODEL 7
REMARK VINA RESULT:    -7.185      3.553      8.504
REMARK INTER + INTRA:         -11.841
REMARK INTER:                  -9.671
REMARK INTRA:                  -2.170
REMARK UNBOUND:                -1.296
REMARK  Name = 
REMARK  8 active torsions:
REMARK  status: ('A' for Active; 'I' for Inactive)
REMARK    1  A    between atoms: C_2  and  C_3
REMARK    2  A    between atoms: C_7  and  C_8
REMARK    3  A    between atoms: C_8  and  N_9
REMARK    4  A    between atoms: N_9  and  C_10
REMARK    5  A    between atoms: C_10  and  C_11
REMARK    6  A    between atoms: C_14  and  C_15
REMARK    7  A    between atoms: C_15  and  N_16
REMARK    8  A    between atoms: C_17  and  C_19
REMARK                            x       y       z     vdW  Elec       q    Type
REMARK                         _______ _______ _______ _____ _____    ______ ____
ROOT
ATOM      1  C   UNL     1      49.626   7.979  18.398  0.00  0.00    +0.000 A 
ATOM      2  C   UNL     1      48.513   8.792  18.130  0.00  0.00    +0.000 A 
ATOM      3  C   UNL     1      48.093   9.035  16.820  0.00  0.00    +0.000 A 
ATOM      4  C   UNL     1      48.777   8.468  15.738  0.00  0.00    +0.000 A 
ATOM      5  C   UNL     1      49.915   7.691  16.000  0.00  0.00    +0.000 A 
ATOM      6  C   UNL     1      50.330   7.439  17.313  0.00  0.00    +0.000 A 
ENDROOT
BRANCH   1   7
ATOM      7  C   UNL     1      50.052   7.726  19.829  0.00  0.00    +0.000 C 
BRANCH   7   8
ATOM      8  N   UNL     1      50.002   6.300  20.150  0.00  0.00    +0.000 NA
ATOM      9  H   UNL     1      50.555   5.783  19.470  0.00  0.00    +0.000 HD
BRANCH   8  10
ATOM     10  C   UNL     1      48.642   5.772  20.131  0.00  0.00    +0.000 C 
BRANCH  10  15
ATOM     11  C   UNL     1      49.257   3.057  17.518  0.00  0.00    +0.000 A 
ATOM     12  C   UNL     1      48.114   3.157  16.725  0.00  0.00    +0.000 A 
ATOM     13  C   UNL     1      47.143   4.114  17.019  0.00  0.00    +0.000 A 
ATOM     14  C   UNL     1      47.311   4.971  18.110  0.00  0.00    +0.000 A 
ATOM     15  C   UNL     1      48.446   4.871  18.928  0.00  0.00    +0.000 A 
ATOM     16  C   UNL     1      49.418   3.905  18.618  0.00  0.00    +0.000 A 
BRANCH  11  18
ATOM     17  N   UNL     1      51.079   1.302  16.954  0.00  0.00    +0.000 NA
ATOM     18  C   UNL     1      50.264   2.084  17.210  0.00  0.00    +0.000 C 
ENDBRANCH  11  18
ENDBRANCH  10  15
ENDBRANCH   8  10
ENDBRANCH   7   8
ENDBRANCH   1   7
BRANCH   4  19
ATOM     19  C   UNL     1      48.325   8.682  14.314  0.00  0.00    +0.000 C 
BRANCH  19  20
ATOM     20  N   UNL     1      47.349   7.708  13.913  0.00  0.00    +0.000 N 
ATOM     21  C   UNL     1      47.699   6.572  13.221  0.00  0.00    +0.000 C 
ATOM     22  O   UNL     1      48.860   6.311  12.923  0.00  0.00    +0.000 OA
ATOM     23  H   UNL     1      46.389   8.029  13.854  0.00  0.00    +0.000 HD
BRANCH  21  24
ATOM     24  C   UNL     1      46.596   5.651  12.922  0.00  0.00    +0.000 A 
ATOM     25  C   UNL     1      46.705   4.304  13.235  0.00  0.00    +0.000 A 
ATOM     26  S   UNL     1      45.308   3.402  12.851  0.00  0.00    +0.000 S 
ATOM     27  C   UNL     1      44.527   4.774  12.216  0.00  0.00    +0.000 A 
ATOM     28  N   UNL     1      43.280   4.690  11.679  0.00  0.00    +0.000 NA
ATOM     29  C   UNL     1      42.819   5.806  11.219  0.00  0.00    +0.000 A 
ATOM     30  N   UNL     1      43.487   7.002  11.256  0.00  0.00    +0.000 N 
ATOM     31  C   UNL     1      44.730   7.142  11.819  0.00  0.00    +0.000 A 
ATOM     32  O   UNL     1      45.271   8.240  11.894  0.00  0.00    +0.000 OA
ATOM     33  C   UNL     1      45.308   5.910  12.325  0.00  0.00    +0.000 A 
ATOM     34  H   UNL     1      43.063   7.847  10.902  0.00  0.00    +0.000 HD
ENDBRANCH  21  24
ENDBRANCH  19  20
ENDBRANCH   4  19
TORSDOF 8
ENDMDL
MODEL 8
REMARK VINA RESULT:    -7.138      3.391      8.228
REMARK INTER + INTRA:         -11.772
REMARK INTER:                 -10.471
REMARK INTRA:                  -1.301
REMARK UNBOUND:                -1.296
REMARK  Name = 
REMARK  8 active torsions:
REMARK  status: ('A' for Active; 'I' for Inactive)
REMARK    1  A    between atoms: C_2  and  C_3
REMARK    2  A    between atoms: C_7  and  C_8
REMARK    3  A    between atoms: C_8  and  N_9
REMARK    4  A    between atoms: N_9  and  C_10
REMARK    5  A    between atoms: C_10  and  C_11
REMARK    6  A    between atoms: C_14  and  C_15
REMARK    7  A    between atoms: C_15  and  N_16
REMARK    8  A    between atoms: C_17  and  C_19
REMARK                            x       y       z     vdW  Elec       q    Type
REMARK                         _______ _______ _______ _____ _____    ______ ____
ROOT
ATOM      1  C   UNL     1      49.429   7.870  17.643  0.00  0.00    +0.000 A 
ATOM      2  C   UNL     1      48.464   8.515  16.854  0.00  0.00    +0.000 A 
ATOM      3  C   UNL     1      48.487   8.420  15.460  0.00  0.00    +0.000 A 
ATOM      4  C   UNL     1      49.480   7.673  14.816  0.00  0.00    +0.000 A 
ATOM      5  C   UNL     1      50.471   7.062  15.598  0.00  0.00    +0.000 A 
ATOM      6  C   UNL     1      50.442   7.150  16.996  0.00  0.00    +0.000 A 
ENDROOT
BRANCH   1   7
ATOM      7  C   UNL     1      49.374   7.984  19.152  0.00  0.00    +0.000 C 
BRANCH   7   8
ATOM      8  N   UNL     1      49.639   6.694  19.789  0.00  0.00    +0.000 NA
ATOM      9  H   UNL     1      50.301   6.169  19.220  0.00  0.00    +0.000 HD
BRANCH   8  10
ATOM     10  C   UNL     1      48.431   5.890  19.945  0.00  0.00    +0.000 C 
BRANCH  10  15
ATOM     11  C   UNL     1      49.235   3.056  17.517  0.00  0.00    +0.000 A 
ATOM     12  C   UNL     1      48.101   3.043  16.704  0.00  0.00    +0.000 A 
ATOM     13  C   UNL     1      47.076   3.961  16.924  0.00  0.00    +0.000 A 
ATOM     14  C   UNL     1      47.179   4.893  17.961  0.00  0.00    +0.000 A 
ATOM     15  C   UNL     1      48.304   4.907  18.799  0.00  0.00    +0.000 A 
ATOM     16  C   UNL     1      49.332   3.979  18.562  0.00  0.00    +0.000 A 
BRANCH  11  18
ATOM     17  N   UNL     1      51.162   1.373  17.101  0.00  0.00    +0.000 NA
ATOM     18  C   UNL     1      50.299   2.123  17.283  0.00  0.00    +0.000 C 
ENDBRANCH  11  18
ENDBRANCH  10  15
ENDBRANCH   8  10
ENDBRANCH   7   8
ENDBRANCH   1   7
BRANCH   4  19
ATOM     19  C   UNL     1      49.509   7.520  13.314  0.00  0.00    +0.000 C 
BRANCH  19  20
ATOM     20  N   UNL     1      48.205   7.237  12.783  0.00  0.00    +0.000 N 
ATOM     21  C   UNL     1      47.525   6.086  13.105  0.00  0.00    +0.000 C 
ATOM     22  O   UNL     1      47.974   5.246  13.877  0.00  0.00    +0.000 OA
ATOM     23  H   UNL     1      47.951   7.721  11.929  0.00  0.00    +0.000 HD
BRANCH  21  24
ATOM     24  C   UNL     1      46.185   5.961  12.517  0.00  0.00    +0.000 A 
ATOM     25  C   UNL     1      45.537   7.078  12.010  0.00  0.00    +0.000 A 
ATOM     26  S   UNL     1      44.010   6.729  11.332  0.00  0.00    +0.000 S 
ATOM     27  C   UNL     1      44.147   5.080  11.731  0.00  0.00    +0.000 A 
ATOM     28  N   UNL     1      43.146   4.201  11.452  0.00  0.00    +0.000 NA
ATOM     29  C   UNL     1      43.380   2.987  11.827  0.00  0.00    +0.000 A 
ATOM     30  N   UNL     1      44.528   2.568  12.448  0.00  0.00    +0.000 N 
ATOM     31  C   UNL     1      45.577   3.410  12.719  0.00  0.00    +0.000 A 
ATOM     32  O   UNL     1      46.615   2.988  13.216  0.00  0.00    +0.000 OA
ATOM     33  C   UNL     1      45.354   4.795  12.344  0.00  0.00    +0.000 A 
ATOM     34  H   UNL     1      44.662   1.599  12.696  0.00  0.00    +0.000 HD
ENDBRANCH  21  24
ENDBRANCH  19  20
ENDBRANCH   4  19
TORSDOF 8
ENDMDL
MODEL 9
REMARK VINA RESULT:    -6.757      4.993      9.840
REMARK INTER + INTRA:         -11.212
REMARK INTER:                 -10.207
REMARK INTRA:                  -1.005
REMARK UNBOUND:                -1.296
REMARK  Name = 
REMARK  8 active torsions:
REMARK  status: ('A' for Active; 'I' for Inactive)
REMARK    1  A    between atoms: C_2  and  C_3
REMARK    2  A    between atoms: C_7  and  C_8
REMARK    3  A    between atoms: C_8  and  N_9
REMARK    4  A    between atoms: N_9  and  C_10
REMARK    5  A    between atoms: C_10  and  C_11
REMARK    6  A    between atoms: C_14  and  C_15
REMARK    7  A    between atoms: C_15  and  N_16
REMARK    8  A    between atoms: C_17  and  C_19
REMARK                            x       y       z     vdW  Elec       q    Type
REMARK                         _______ _______ _______ _____ _____    ______ ____
ROOT
ATOM      1  C   UNL     1      51.382   3.600  17.783  0.00  0.00    +0.000 A 
ATOM      2  C   UNL     1      50.792   2.386  17.398  0.00  0.00    +0.000 A 
ATOM      3  C   UNL     1      49.431   2.309  17.089  0.00  0.00    +0.000 A 
ATOM      4  C   UNL     1      48.622   3.449  17.157  0.00  0.00    +0.000 A 
ATOM      5  C   UNL     1      49.199   4.654  17.583  0.00  0.00    +0.000 A 
ATOM      6  C   UNL     1      50.565   4.733  17.883  0.00  0.00    +0.000 A 
ENDROOT
BRANCH   1   7
ATOM      7  C   UNL     1      52.862   3.654  18.103  0.00  0.00    +0.000 C 
BRANCH   7   8
ATOM      8  N   UNL     1      53.220   2.658  19.113  0.00  0.00    +0.000 NA
ATOM      9  H   UNL     1      53.034   3.037  20.039  0.00  0.00    +0.000 HD
BRANCH   8  10
ATOM     10  C   UNL     1      54.628   2.279  19.047  0.00  0.00    +0.000 C 
BRANCH  10  15
ATOM     11  C   UNL     1      54.727  -1.320  17.780  0.00  0.00    +0.000 A 
ATOM     12  C   UNL     1      55.099  -1.145  16.446  0.00  0.00    +0.000 A 
ATOM     13  C   UNL     1      55.337   0.136  15.952  0.00  0.00    +0.000 A 
ATOM     14  C   UNL     1      55.199   1.248  16.788  0.00  0.00    +0.000 A 
ATOM     15  C   UNL     1      54.808   1.090  18.126  0.00  0.00    +0.000 A 
ATOM     16  C   UNL     1      54.576  -0.207  18.612  0.00  0.00    +0.000 A 
BRANCH  11  18
ATOM     17  N   UNL     1      54.303  -3.702  18.710  0.00  0.00    +0.000 NA
ATOM     18  C   UNL     1      54.496  -2.638  18.296  0.00  0.00    +0.000 C 
ENDBRANCH  11  18
ENDBRANCH  10  15
ENDBRANCH   8  10
ENDBRANCH   7   8
ENDBRANCH   1   7
BRANCH   4  19
ATOM     19  C   UNL     1      47.158   3.405  16.794  0.00  0.00    +0.000 C 
BRANCH  19  20
ATOM     20  N   UNL     1      46.818   4.413  15.829  0.00  0.00    +0.000 N 
ATOM     21  C   UNL     1      46.877   4.171  14.476  0.00  0.00    +0.000 C 
ATOM     22  O   UNL     1      47.199   3.083  14.012  0.00  0.00    +0.000 OA
ATOM     23  H   UNL     1      46.862   5.375  16.147  0.00  0.00    +0.000 HD
BRANCH  21  24
ATOM     24  C   UNL     1      46.457   5.287  13.619  0.00  0.00    +0.000 A 
ATOM     25  C   UNL     1      47.293   6.378  13.431  0.00  0.00    +0.000 A 
ATOM     26  S   UNL     1      46.651   7.552  12.372  0.00  0.00    +0.000 S 
ATOM     27  C   UNL     1      45.216   6.660  12.162  0.00  0.00    +0.000 A 
ATOM     28  N   UNL     1      44.205   7.126  11.380  0.00  0.00    +0.000 NA
ATOM     29  C   UNL     1      43.170   6.353  11.327  0.00  0.00    +0.000 A 
ATOM     30  N   UNL     1      43.059   5.152  11.976  0.00  0.00    +0.000 N 
ATOM     31  C   UNL     1      44.064   4.626  12.746  0.00  0.00    +0.000 A 
ATOM     32  O   UNL     1      43.956   3.517  13.259  0.00  0.00    +0.000 OA
ATOM     33  C   UNL     1      45.241   5.469  12.864  0.00  0.00    +0.000 A 
ATOM     34  H   UNL     1      42.233   4.581  11.876  0.00  0.00    +0.000 HD
ENDBRANCH  21  24
ENDBRANCH  19  20
ENDBRANCH   4  19
TORSDOF 8
ENDMDL
