MODEL 1
REMARK VINA RESULT:    -6.996      0.000      0.000
REMARK INTER + INTRA:          -9.131
REMARK INTER:                  -8.837
REMARK INTRA:                  -0.294
REMARK UNBOUND:                -0.294
REMARK  Name = 
REMARK  5 active torsions:
REMARK  status: ('A' for Active; 'I' for Inactive)
REMARK    1  A    between atoms: N_1  and  C_2
REMARK    2  A    between atoms: C_2  and  C_3
REMARK    3  A    between atoms: C_6  and  S_7
REMARK    4  A    between atoms: S_7  and  C_8
REMARK    5  A    between atoms: C_8  and  C_9
REMARK                            x       y       z     vdW  Elec       q    Type
REMARK                         _______ _______ _______ _____ _____    ______ ____
ROOT
ATOM      1  C   UNL     1      46.604   2.332   7.496  0.00  0.00    +0.000 A 
ATOM      2  C   UNL     1      45.844   1.595   8.415  0.00  0.00    +0.000 A 
ATOM      3  C   UNL     1      44.964   2.233   9.299  0.00  0.00    +0.000 A 
ATOM      4  C   UNL     1      44.838   3.624   9.293  0.00  0.00    +0.000 A 
ATOM      5  C   UNL     1      45.580   4.362   8.361  0.00  0.00    +0.000 A 
ATOM      6  C   UNL     1      46.455   3.724   7.474  0.00  0.00    +0.000 A 
ENDROOT
BRANCH   1   7
ATOM      7  C   UNL     1      47.582   1.646   6.575  0.00  0.00    +0.000 C 
BRANCH   7   8
ATOM      8  N   UNL     1      48.725   2.495   6.257  0.00  0.00    +0.000 NA
ATOM      9  H   UNL     1      49.339   1.996   5.614  0.00  0.00    +0.000 HD
ATOM     10  H   UNL     1      49.265   2.650   7.106  0.00  0.00    +0.000 HD
ENDBRANCH   7   8
ENDBRANCH   1   7
BRANCH   4  11
ATOM     11  S   UNL     1      43.727   4.516  10.374  0.00  0.00    +0.000 S 
BRANCH  11  12
ATOM     12  C   UNL     1      44.171   3.844  12.016  0.00  0.00    +0.000 C 
BRANCH  12  13
ATOM     13  C   UNL     1      45.336   4.571  12.640  0.00  0.00    +0.000 A 
ATOM     14  C   UNL     1      45.883   5.706  12.046  0.00  0.00    +0.000 A 
ATOM     15  N   UNL     1      46.945   6.373  12.561  0.00  0.00    +0.000 NA
ATOM     16  C   UNL     1      47.443   5.866  13.709  0.00  0.00    +0.000 A 
ATOM     17  C   UNL     1      46.912   4.739  14.311  0.00  0.00    +0.000 A 
ATOM     18  N   UNL     1      45.859   4.067  13.791  0.00  0.00    +0.000 NA
ENDBRANCH  12  13
ENDBRANCH  11  12
ENDBRANCH   4  11
TORSDOF 5
ENDMDL
MODEL 2
REMARK VINA RESULT:    -6.390      1.691      5.934
REMARK INTER + INTRA:          -8.365
REMARK INTER:                  -8.064
REMARK INTRA:                  -0.301
REMARK UNBOUND:                -0.294
REMARK  Name = 
REMARK  5 active torsions:
REMARK  status: ('A' for Active; 'I' for Inactive)
REMARK    1  A    between atoms: N_1  and  C_2
REMARK    2  A    between atoms: C_2  and  C_3
REMARK    3  A    between atoms: C_6  and  S_7
REMARK    4  A    between atoms: S_7  and  C_8
REMARK    5  A    between atoms: C_8  and  C_9
REMARK                            x       y       z     vdW  Elec       q    Type
REMARK                         _______ _______ _______ _____ _____    ______ ____
ROOT
ATOM      1  C   UNL     1      47.035   5.910  13.113  0.00  0.00    +0.000 A 
ATOM      2  C   UNL     1      46.516   4.679  13.538  0.00  0.00    +0.000 A 
ATOM      3  C   UNL     1      45.577   3.987  12.762  0.00  0.00    +0.000 A 
ATOM      4  C   UNL     1      45.125   4.519  11.553  0.00  0.00    +0.000 A 
ATOM      5  C   UNL     1      45.658   5.738  11.115  0.00  0.00    +0.000 A 
ATOM      6  C   UNL     1      46.600   6.429  11.887  0.00  0.00    +0.000 A 
ENDROOT
BRANCH   1   7
ATOM      7  C   UNL     1      48.013   6.675  13.970  0.00  0.00    +0.000 C 
BRANCH   7   8
ATOM      8  N   UNL     1      49.351   6.698  13.390  0.00  0.00    +0.000 NA
ATOM      9  H   UNL     1      49.869   7.482  13.785  0.00  0.00    +0.000 HD
ATOM     10  H   UNL     1      49.272   6.884  12.392  0.00  0.00    +0.000 HD
ENDBRANCH   7   8
ENDBRANCH   1   7
BRANCH   4  11
ATOM     11  S   UNL     1      43.944   3.693  10.495  0.00  0.00    +0.000 S 
BRANCH  11  12
ATOM     12  C   UNL     1      44.492   4.213   8.830  0.00  0.00    +0.000 C 
BRANCH  12  13
ATOM     13  C   UNL     1      45.451   3.230   8.205  0.00  0.00    +0.000 A 
ATOM     14  C   UNL     1      45.557   1.924   8.679  0.00  0.00    +0.000 A 
ATOM     15  N   UNL     1      46.423   1.018   8.161  0.00  0.00    +0.000 NA
ATOM     16  C   UNL     1      47.182   1.464   7.137  0.00  0.00    +0.000 A 
ATOM     17  C   UNL     1      47.088   2.758   6.657  0.00  0.00    +0.000 A 
ATOM     18  N   UNL     1      46.232   3.666   7.180  0.00  0.00    +0.000 NA
ENDBRANCH  12  13
ENDBRANCH  11  12
ENDBRANCH   4  11
TORSDOF 5
ENDMDL
MODEL 3
REMARK VINA RESULT:    -6.141      1.473      1.994
REMARK INTER + INTRA:          -8.051
REMARK INTER:                  -7.748
REMARK INTRA:                  -0.303
REMARK UNBOUND:                -0.294
REMARK  Name = 
REMARK  5 active torsions:
REMARK  status: ('A' for Active; 'I' for Inactive)
REMARK    1  A    between atoms: N_1  and  C_2
REMARK    2  A    between atoms: C_2  and  C_3
REMARK    3  A    between atoms: C_6  and  S_7
REMARK    4  A    between atoms: S_7  and  C_8
REMARK    5  A    between atoms: C_8  and  C_9
REMARK                            x       y       z     vdW  Elec       q    Type
REMARK                         _______ _______ _______ _____ _____    ______ ____
ROOT
ATOM      1  C   UNL     1      46.500   2.866   7.551  0.00  0.00    +0.000 A 
ATOM      2  C   UNL     1      45.925   1.845   8.320  0.00  0.00    +0.000 A 
ATOM      3  C   UNL     1      45.044   2.140   9.369  0.00  0.00    +0.000 A 
ATOM      4  C   UNL     1      44.733   3.466   9.681  0.00  0.00    +0.000 A 
ATOM      5  C   UNL     1      45.289   4.488   8.901  0.00  0.00    +0.000 A 
ATOM      6  C   UNL     1      46.165   4.193   7.849  0.00  0.00    +0.000 A 
ENDROOT
BRANCH   1   7
ATOM      7  C   UNL     1      47.481   2.547   6.451  0.00  0.00    +0.000 C 
BRANCH   7   8
ATOM      8  N   UNL     1      48.234   1.328   6.723  0.00  0.00    +0.000 NA
ATOM      9  H   UNL     1      47.884   0.909   7.584  0.00  0.00    +0.000 HD
ATOM     10  H   UNL     1      49.205   1.575   6.900  0.00  0.00    +0.000 HD
ENDBRANCH   7   8
ENDBRANCH   1   7
BRANCH   4  11
ATOM     11  S   UNL     1      43.607   3.929  10.990  0.00  0.00    +0.000 S 
BRANCH  11  12
ATOM     12  C   UNL     1      44.755   4.437  12.320  0.00  0.00    +0.000 C 
BRANCH  12  13
ATOM     13  C   UNL     1      45.042   5.918  12.300  0.00  0.00    +0.000 A 
ATOM     14  C   UNL     1      46.064   6.466  13.072  0.00  0.00    +0.000 A 
ATOM     15  N   UNL     1      46.339   7.794  13.101  0.00  0.00    +0.000 NA
ATOM     16  C   UNL     1      45.554   8.563  12.316  0.00  0.00    +0.000 A 
ATOM     17  C   UNL     1      44.535   8.033  11.545  0.00  0.00    +0.000 A 
ATOM     18  N   UNL     1      44.253   6.709  11.524  0.00  0.00    +0.000 NA
ENDBRANCH  12  13
ENDBRANCH  11  12
ENDBRANCH   4  11
TORSDOF 5
ENDMDL
MODEL 4
REMARK VINA RESULT:    -6.050      2.273      6.148
REMARK INTER + INTRA:          -7.935
REMARK INTER:                  -7.622
REMARK INTRA:                  -0.313
REMARK UNBOUND:                -0.294
REMARK  Name = 
REMARK  5 active torsions:
REMARK  status: ('A' for Active; 'I' for Inactive)
REMARK    1  A    between atoms: N_1  and  C_2
REMARK    2  A    between atoms: C_2  and  C_3
REMARK    3  A    between atoms: C_6  and  S_7
REMARK    4  A    between atoms: S_7  and  C_8
REMARK    5  A    between atoms: C_8  and  C_9
REMARK                            x       y       z     vdW  Elec       q    Type
REMARK                         _______ _______ _______ _____ _____    ______ ____
ROOT
ATOM      1  C   UNL     1      45.474   7.797  12.188  0.00  0.00    +0.000 A 
ATOM      2  C   UNL     1      44.384   7.279  11.475  0.00  0.00    +0.000 A 
ATOM      3  C   UNL     1      44.196   5.896  11.350  0.00  0.00    +0.000 A 
ATOM      4  C   UNL     1      45.105   5.003  11.923  0.00  0.00    +0.000 A 
ATOM      5  C   UNL     1      46.183   5.517  12.654  0.00  0.00    +0.000 A 
ATOM      6  C   UNL     1      46.368   6.899  12.783  0.00  0.00    +0.000 A 
ENDROOT
BRANCH   1   7
ATOM      7  C   UNL     1      45.698   9.286  12.284  0.00  0.00    +0.000 C 
BRANCH   7   8
ATOM      8  N   UNL     1      44.461  10.011  12.554  0.00  0.00    +0.000 NA
ATOM      9  H   UNL     1      43.759   9.353  12.892  0.00  0.00    +0.000 HD
ATOM     10  H   UNL     1      44.103  10.385  11.677  0.00  0.00    +0.000 HD
ENDBRANCH   7   8
ENDBRANCH   1   7
BRANCH   4  11
ATOM     11  S   UNL     1      44.930   3.226  11.826  0.00  0.00    +0.000 S 
BRANCH  11  12
ATOM     12  C   UNL     1      44.132   3.009  10.194  0.00  0.00    +0.000 C 
BRANCH  12  13
ATOM     13  C   UNL     1      45.133   2.906   9.071  0.00  0.00    +0.000 A 
ATOM     14  C   UNL     1      45.485   4.020   8.312  0.00  0.00    +0.000 A 
ATOM     15  N   UNL     1      46.361   3.965   7.279  0.00  0.00    +0.000 NA
ATOM     16  C   UNL     1      46.888   2.746   7.032  0.00  0.00    +0.000 A 
ATOM     17  C   UNL     1      46.547   1.630   7.777  0.00  0.00    +0.000 A 
ATOM     18  N   UNL     1      45.664   1.683   8.801  0.00  0.00    +0.000 NA
ENDBRANCH  12  13
ENDBRANCH  11  12
ENDBRANCH   4  11
TORSDOF 5
ENDMDL
MODEL 5
REMARK VINA RESULT:    -6.029      1.347      1.953
REMARK INTER + INTRA:          -7.910
REMARK INTER:                  -7.593
REMARK INTRA:                  -0.317
REMARK UNBOUND:                -0.294
REMARK  Name = 
REMARK  5 active torsions:
REMARK  status: ('A' for Active; 'I' for Inactive)
REMARK    1  A    between atoms: N_1  and  C_2
REMARK    2  A    between atoms: C_2  and  C_3
REMARK    3  A    between atoms: C_6  and  S_7
REMARK    4  A    between atoms: S_7  and  C_8
REMARK    5  A    between atoms: C_8  and  C_9
REMARK                            x       y       z     vdW  Elec       q    Type
REMARK                         _______ _______ _______ _____ _____    ______ ____
ROOT
ATOM      1  C   UNL     1      45.804   2.570   8.357  0.00  0.00    +0.000 A 
ATOM      2  C   UNL     1      45.803   3.968   8.246  0.00  0.00    +0.000 A 
ATOM      3  C   UNL     1      45.003   4.756   9.084  0.00  0.00    +0.000 A 
ATOM      4  C   UNL     1      44.175   4.162  10.039  0.00  0.00    +0.000 A 
ATOM      5  C   UNL     1      44.190   2.767  10.166  0.00  0.00    +0.000 A 
ATOM      6  C   UNL     1      44.994   1.979   9.332  0.00  0.00    +0.000 A 
ENDROOT
BRANCH   1   7
ATOM      7  C   UNL     1      46.633   1.722   7.424  0.00  0.00    +0.000 C 
BRANCH   7   8
ATOM      8  N   UNL     1      46.696   0.330   7.858  0.00  0.00    +0.000 NA
ATOM      9  H   UNL     1      46.656   0.299   8.876  0.00  0.00    +0.000 HD
ATOM     10  H   UNL     1      47.602  -0.053   7.596  0.00  0.00    +0.000 HD
ENDBRANCH   7   8
ENDBRANCH   1   7
BRANCH   4  11
ATOM     11  S   UNL     1      43.138   5.094  11.157  0.00  0.00    +0.000 S 
BRANCH  11  12
ATOM     12  C   UNL     1      44.200   6.528  11.559  0.00  0.00    +0.000 C 
BRANCH  12  13
ATOM     13  C   UNL     1      45.337   6.164  12.481  0.00  0.00    +0.000 A 
ATOM     14  C   UNL     1      46.499   6.930  12.532  0.00  0.00    +0.000 A 
ATOM     15  N   UNL     1      47.554   6.623  13.328  0.00  0.00    +0.000 NA
ATOM     16  C   UNL     1      47.401   5.517  14.086  0.00  0.00    +0.000 A 
ATOM     17  C   UNL     1      46.254   4.745  14.045  0.00  0.00    +0.000 A 
ATOM     18  N   UNL     1      45.206   5.044  13.243  0.00  0.00    +0.000 NA
ENDBRANCH  12  13
ENDBRANCH  11  12
ENDBRANCH   4  11
TORSDOF 5
ENDMDL
MODEL 6
REMARK VINA RESULT:    -5.610      1.694      2.642
REMARK INTER + INTRA:          -7.381
REMARK INTER:                  -7.150
REMARK INTRA:                  -0.231
REMARK UNBOUND:                -0.294
REMARK  Name = 
REMARK  5 active torsions:
REMARK  status: ('A' for Active; 'I' for Inactive)
REMARK    1  A    between atoms: N_1  and  C_2
REMARK    2  A    between atoms: C_2  and  C_3
REMARK    3  A    between atoms: C_6  and  S_7
REMARK    4  A    between atoms: S_7  and  C_8
REMARK    5  A    between atoms: C_8  and  C_9
REMARK                            x       y       z     vdW  Elec       q    Type
REMARK                         _______ _______ _______ _____ _____    ______ ____
ROOT
ATOM      1  C   UNL     1      45.486   3.638   8.520  0.00  0.00    +0.000 A 
ATOM      2  C   UNL     1      45.729   4.954   8.938  0.00  0.00    +0.000 A 
ATOM      3  C   UNL     1      45.400   5.371  10.235  0.00  0.00    +0.000 A 
ATOM      4  C   UNL     1      44.808   4.483  11.135  0.00  0.00    +0.000 A 
ATOM      5  C   UNL     1      44.583   3.162  10.728  0.00  0.00    +0.000 A 
ATOM      6  C   UNL     1      44.916   2.743   9.434  0.00  0.00    +0.000 A 
ENDROOT
BRANCH   1   7
ATOM      7  C   UNL     1      45.800   3.204   7.109  0.00  0.00    +0.000 C 
BRANCH   7   8
ATOM      8  N   UNL     1      46.798   4.061   6.481  0.00  0.00    +0.000 NA
ATOM      9  H   UNL     1      46.372   4.961   6.263  0.00  0.00    +0.000 HD
ATOM     10  H   UNL     1      47.068   3.650   5.589  0.00  0.00    +0.000 HD
ENDBRANCH   7   8
ENDBRANCH   1   7
BRANCH   4  11
ATOM     11  S   UNL     1      44.374   4.928  12.812  0.00  0.00    +0.000 S 
BRANCH  11  12
ATOM     12  C   UNL     1      45.995   4.861  13.657  0.00  0.00    +0.000 C 
BRANCH  12  13
ATOM     13  C   UNL     1      46.867   6.047  13.328  0.00  0.00    +0.000 A 
ATOM     14  C   UNL     1      46.317   7.307  13.101  0.00  0.00    +0.000 A 
ATOM     15  N   UNL     1      47.062   8.393  12.779  0.00  0.00    +0.000 NA
ATOM     16  C   UNL     1      48.392   8.177  12.698  0.00  0.00    +0.000 A 
ATOM     17  C   UNL     1      48.953   6.931  12.919  0.00  0.00    +0.000 A 
ATOM     18  N   UNL     1      48.208   5.844  13.230  0.00  0.00    +0.000 NA
ENDBRANCH  12  13
ENDBRANCH  11  12
ENDBRANCH   4  11
TORSDOF 5
ENDMDL
MODEL 7
REMARK VINA RESULT:    -5.487      1.831      5.939
REMARK INTER + INTRA:          -7.225
REMARK INTER:                  -6.906
REMARK INTRA:                  -0.318
REMARK UNBOUND:                -0.294
REMARK  Name = 
REMARK  5 active torsions:
REMARK  status: ('A' for Active; 'I' for Inactive)
REMARK    1  A    between atoms: N_1  and  C_2
REMARK    2  A    between atoms: C_2  and  C_3
REMARK    3  A    between atoms: C_6  and  S_7
REMARK    4  A    between atoms: S_7  and  C_8
REMARK    5  A    between atoms: C_8  and  C_9
REMARK                            x       y       z     vdW  Elec       q    Type
REMARK                         _______ _______ _______ _____ _____    ______ ____
ROOT
ATOM      1  C   UNL     1      47.588   6.490  12.954  0.00  0.00    +0.000 A 
ATOM      2  C   UNL     1      47.029   6.796  11.705  0.00  0.00    +0.000 A 
ATOM      3  C   UNL     1      46.019   5.997  11.152  0.00  0.00    +0.000 A 
ATOM      4  C   UNL     1      45.559   4.867  11.831  0.00  0.00    +0.000 A 
ATOM      5  C   UNL     1      46.100   4.571  13.089  0.00  0.00    +0.000 A 
ATOM      6  C   UNL     1      47.106   5.372  13.644  0.00  0.00    +0.000 A 
ENDROOT
BRANCH   1   7
ATOM      7  C   UNL     1      48.706   7.327  13.526  0.00  0.00    +0.000 C 
BRANCH   7   8
ATOM      8  N   UNL     1      48.907   8.562  12.776  0.00  0.00    +0.000 NA
ATOM      9  H   UNL     1      49.033   8.333  11.790  0.00  0.00    +0.000 HD
ATOM     10  H   UNL     1      49.777   8.992  13.082  0.00  0.00    +0.000 HD
ENDBRANCH   7   8
ENDBRANCH   1   7
BRANCH   4  11
ATOM     11  S   UNL     1      44.262   3.805  11.207  0.00  0.00    +0.000 S 
BRANCH  11  12
ATOM     12  C   UNL     1      44.294   4.176   9.416  0.00  0.00    +0.000 C 
BRANCH  12  13
ATOM     13  C   UNL     1      45.292   3.328   8.668  0.00  0.00    +0.000 A 
ATOM     14  C   UNL     1      46.187   3.894   7.763  0.00  0.00    +0.000 A 
ATOM     15  N   UNL     1      47.083   3.164   7.053  0.00  0.00    +0.000 NA
ATOM     16  C   UNL     1      47.058   1.835   7.287  0.00  0.00    +0.000 A 
ATOM     17  C   UNL     1      46.174   1.258   8.182  0.00  0.00    +0.000 A 
ATOM     18  N   UNL     1      45.273   1.985   8.883  0.00  0.00    +0.000 NA
ENDBRANCH  12  13
ENDBRANCH  11  12
ENDBRANCH   4  11
TORSDOF 5
ENDMDL
MODEL 8
REMARK VINA RESULT:    -4.937      2.213      6.584
REMARK INTER + INTRA:          -6.530
REMARK INTER:                  -6.302
REMARK INTRA:                  -0.228
REMARK UNBOUND:                -0.294
REMARK  Name = 
REMARK  5 active torsions:
REMARK  status: ('A' for Active; 'I' for Inactive)
REMARK    1  A    between atoms: N_1  and  C_2
REMARK    2  A    between atoms: C_2  and  C_3
REMARK    3  A    between atoms: C_6  and  S_7
REMARK    4  A    between atoms: S_7  and  C_8
REMARK    5  A    between atoms: C_8  and  C_9
REMARK                            x       y       z     vdW  Elec       q    Type
REMARK                         _______ _______ _______ _____ _____    ______ ____
ROOT
ATOM      1  C   UNL     1      47.876   5.534  15.280  0.00  0.00    +0.000 A 
ATOM      2  C   UNL     1      46.888   4.650  14.825  0.00  0.00    +0.000 A 
ATOM      3  C   UNL     1      46.218   4.878  13.616  0.00  0.00    +0.000 A 
ATOM      4  C   UNL     1      46.512   6.005  12.845  0.00  0.00    +0.000 A 
ATOM      5  C   UNL     1      47.513   6.879  13.286  0.00  0.00    +0.000 A 
ATOM      6  C   UNL     1      48.187   6.649  14.492  0.00  0.00    +0.000 A 
ENDROOT
BRANCH   1   7
ATOM      7  C   UNL     1      48.565   5.310  16.604  0.00  0.00    +0.000 C 
BRANCH   7   8
ATOM      8  N   UNL     1      47.659   5.494  17.732  0.00  0.00    +0.000 NA
ATOM      9  H   UNL     1      46.800   4.975  17.555  0.00  0.00    +0.000 HD
ATOM     10  H   UNL     1      47.394   6.476  17.782  0.00  0.00    +0.000 HD
ENDBRANCH   7   8
ENDBRANCH   1   7
BRANCH   4  11
ATOM     11  S   UNL     1      45.717   6.362  11.283  0.00  0.00    +0.000 S 
BRANCH  11  12
ATOM     12  C   UNL     1      44.697   4.866  11.023  0.00  0.00    +0.000 C 
BRANCH  12  13
ATOM     13  C   UNL     1      45.148   4.061   9.829  0.00  0.00    +0.000 A 
ATOM     14  C   UNL     1      45.658   4.681   8.690  0.00  0.00    +0.000 A 
ATOM     15  N   UNL     1      46.050   3.996   7.588  0.00  0.00    +0.000 NA
ATOM     16  C   UNL     1      45.923   2.654   7.666  0.00  0.00    +0.000 A 
ATOM     17  C   UNL     1      45.416   2.024   8.789  0.00  0.00    +0.000 A 
ATOM     18  N   UNL     1      45.014   2.708   9.886  0.00  0.00    +0.000 NA
ENDBRANCH  12  13
ENDBRANCH  11  12
ENDBRANCH   4  11
TORSDOF 5
ENDMDL
MODEL 9
REMARK VINA RESULT:    -4.835      2.794      6.271
REMARK INTER + INTRA:          -6.401
REMARK INTER:                  -6.116
REMARK INTRA:                  -0.286
REMARK UNBOUND:                -0.294
REMARK  Name = 
REMARK  5 active torsions:
REMARK  status: ('A' for Active; 'I' for Inactive)
REMARK    1  A    between atoms: N_1  and  C_2
REMARK    2  A    between atoms: C_2  and  C_3
REMARK    3  A    between atoms: C_6  and  S_7
REMARK    4  A    between atoms: S_7  and  C_8
REMARK    5  A    between atoms: C_8  and  C_9
REMARK                            x       y       z     vdW  Elec       q    Type
REMARK                         _______ _______ _______ _____ _____    ______ ____
ROOT
ATOM      1  C   UNL     1      49.433   7.663  12.815  0.00  0.00    +0.000 A 
ATOM      2  C   UNL     1      48.553   7.675  11.725  0.00  0.00    +0.000 A 
ATOM      3  C   UNL     1      47.342   6.971  11.767  0.00  0.00    +0.000 A 
ATOM      4  C   UNL     1      46.995   6.226  12.897  0.00  0.00    +0.000 A 
ATOM      5  C   UNL     1      47.863   6.229  13.996  0.00  0.00    +0.000 A 
ATOM      6  C   UNL     1      49.071   6.937  13.956  0.00  0.00    +0.000 A 
ENDROOT
BRANCH   1   7
ATOM      7  C   UNL     1      50.756   8.386  12.749  0.00  0.00    +0.000 C 
BRANCH   7   8
ATOM      8  N   UNL     1      51.668   7.959  13.804  0.00  0.00    +0.000 NA
ATOM      9  H   UNL     1      52.457   7.471  13.381  0.00  0.00    +0.000 HD
ATOM     10  H   UNL     1      51.193   7.278  14.392  0.00  0.00    +0.000 HD
ENDBRANCH   7   8
ENDBRANCH   1   7
BRANCH   4  11
ATOM     11  S   UNL     1      45.464   5.314  13.041  0.00  0.00    +0.000 S 
BRANCH  11  12
ATOM     12  C   UNL     1      44.611   5.751  11.483  0.00  0.00    +0.000 C 
BRANCH  12  13
ATOM     13  C   UNL     1      44.730   4.670  10.437  0.00  0.00    +0.000 A 
ATOM     14  C   UNL     1      44.164   3.412  10.631  0.00  0.00    +0.000 A 
ATOM     15  N   UNL     1      44.269   2.406   9.727  0.00  0.00    +0.000 NA
ATOM     16  C   UNL     1      44.961   2.707   8.607  0.00  0.00    +0.000 A 
ATOM     17  C   UNL     1      45.530   3.951   8.401  0.00  0.00    +0.000 A 
ATOM     18  N   UNL     1      45.434   4.952   9.308  0.00  0.00    +0.000 NA
ENDBRANCH  12  13
ENDBRANCH  11  12
ENDBRANCH   4  11
TORSDOF 5
ENDMDL
