MODEL 1
REMARK VINA RESULT:    -8.283      0.000      0.000
REMARK INTER + INTRA:         -11.570
REMARK INTER:                 -10.705
REMARK INTRA:                  -0.865
REMARK UNBOUND:                -0.865
REMARK  Name = 
REMARK  6 active torsions:
REMARK  status: ('A' for Active; 'I' for Inactive)
REMARK    1  A    between atoms: C_1  and  C_2
REMARK    2  A    between atoms: C_4  and  C_5
REMARK    3  A    between atoms: C_10  and  N_11
REMARK    4  A    between atoms: N_11  and  C_12
REMARK    5  A    between atoms: C_12  and  C_13
REMARK    6  A    between atoms: C_17  and  C_18
REMARK                            x       y       z     vdW  Elec       q    Type
REMARK                         _______ _______ _______ _____ _____    ______ ____
ROOT
ATOM      1  C   UNL     1      45.094   5.257  11.565  0.00  0.00    +0.000 C 
ATOM      2  C   UNL     1      45.666   4.077  12.327  0.00  0.00    +0.000 C 
ATOM      3  C   UNL     1      44.385   4.689  12.790  0.00  0.00    +0.000 C 
ENDROOT
BRANCH   1   4
ATOM      4  C   UNL     1      45.699   6.655  11.742  0.00  0.00    +0.000 A 
ATOM      5  C   UNL     1      44.889   7.798  11.779  0.00  0.00    +0.000 A 
ATOM      6  C   UNL     1      45.434   9.071  11.935  0.00  0.00    +0.000 A 
ATOM      7  C   UNL     1      46.812   9.228  12.089  0.00  0.00    +0.000 A 
ATOM      8  C   UNL     1      47.675   8.121  12.091  0.00  0.00    +0.000 A 
ATOM      9  C   UNL     1      47.093   6.849  11.890  0.00  0.00    +0.000 A 
BRANCH   8  10
ATOM     10  C   UNL     1      49.125   8.284  12.346  0.00  0.00    +0.000 A 
ATOM     11  C   UNL     1      50.093   8.143  11.346  0.00  0.00    +0.000 A 
ATOM     12  C   UNL     1      51.455   8.262  11.649  0.00  0.00    +0.000 A 
ATOM     13  C   UNL     1      51.818   8.540  12.953  0.00  0.00    +0.000 A 
ATOM     14  N   UNL     1      50.930   8.700  13.952  0.00  0.00    +0.000 NA
ATOM     15  C   UNL     1      49.619   8.567  13.623  0.00  0.00    +0.000 A 
ENDBRANCH   8  10
ENDBRANCH   1   4
BRANCH   1  16
ATOM     16  N   UNL     1      44.457   5.021  10.245  0.00  0.00    +0.000 N 
ATOM     17  H   UNL     1      43.932   5.808   9.892  0.00  0.00    +0.000 HD
BRANCH  16  24
ATOM     18  C   UNL     1      44.084   2.128   9.957  0.00  0.00    +0.000 C 
ATOM     19  C   UNL     1      45.058   2.930   9.140  0.00  0.00    +0.000 A 
ATOM     20  C   UNL     1      45.881   2.244   8.234  0.00  0.00    +0.000 A 
ATOM     21  C   UNL     1      46.766   2.935   7.407  0.00  0.00    +0.000 A 
ATOM     22  C   UNL     1      46.758   4.314   7.517  0.00  0.00    +0.000 A 
ATOM     23  N   UNL     1      45.984   5.015   8.392  0.00  0.00    +0.000 NA
ATOM     24  C   UNL     1      45.144   4.333   9.213  0.00  0.00    +0.000 A 
BRANCH  21  25
ATOM     25  C   UNL     1      47.638   2.149   6.498  0.00  0.00    +0.000 C 
ATOM     26  N   UNL     1      48.189   2.752   5.403  0.00  0.00    +0.000 N 
ATOM     27  O   UNL     1      47.882   0.969   6.716  0.00  0.00    +0.000 OA
ATOM     28  H   UNL     1      48.077   3.720   5.143  0.00  0.00    +0.000 HD
ATOM     29  H   UNL     1      48.796   2.179   4.829  0.00  0.00    +0.000 HD
ENDBRANCH  21  25
ENDBRANCH  16  24
ENDBRANCH   1  16
TORSDOF 5
ENDMDL
MODEL 2
REMARK VINA RESULT:    -8.238      2.503      3.447
REMARK INTER + INTRA:         -11.512
REMARK INTER:                 -10.386
REMARK INTRA:                  -1.126
REMARK UNBOUND:                -0.865
REMARK  Name = 
REMARK  6 active torsions:
REMARK  status: ('A' for Active; 'I' for Inactive)
REMARK    1  A    between atoms: C_1  and  C_2
REMARK    2  A    between atoms: C_4  and  C_5
REMARK    3  A    between atoms: C_10  and  N_11
REMARK    4  A    between atoms: N_11  and  C_12
REMARK    5  A    between atoms: C_12  and  C_13
REMARK    6  A    between atoms: C_17  and  C_18
REMARK                            x       y       z     vdW  Elec       q    Type
REMARK                         _______ _______ _______ _____ _____    ______ ____
ROOT
ATOM      1  C   UNL     1      43.730   5.000  11.333  0.00  0.00    +0.000 C 
ATOM      2  C   UNL     1      42.877   4.088  12.194  0.00  0.00    +0.000 C 
ATOM      3  C   UNL     1      42.377   5.457  11.870  0.00  0.00    +0.000 C 
ENDROOT
BRANCH   1   4
ATOM      4  C   UNL     1      44.951   5.707  11.934  0.00  0.00    +0.000 A 
ATOM      5  C   UNL     1      45.390   6.943  11.441  0.00  0.00    +0.000 A 
ATOM      6  C   UNL     1      46.501   7.588  11.981  0.00  0.00    +0.000 A 
ATOM      7  C   UNL     1      47.188   7.019  13.053  0.00  0.00    +0.000 A 
ATOM      8  C   UNL     1      46.781   5.797  13.612  0.00  0.00    +0.000 A 
ATOM      9  C   UNL     1      45.675   5.151  13.016  0.00  0.00    +0.000 A 
BRANCH   8  10
ATOM     10  C   UNL     1      47.456   5.242  14.808  0.00  0.00    +0.000 A 
ATOM     11  C   UNL     1      47.120   4.004  15.364  0.00  0.00    +0.000 A 
ATOM     12  C   UNL     1      47.758   3.546  16.524  0.00  0.00    +0.000 A 
ATOM     13  C   UNL     1      48.738   4.336  17.093  0.00  0.00    +0.000 A 
ATOM     14  N   UNL     1      49.112   5.529  16.594  0.00  0.00    +0.000 NA
ATOM     15  C   UNL     1      48.465   5.946  15.476  0.00  0.00    +0.000 A 
ENDBRANCH   8  10
ENDBRANCH   1   4
BRANCH   1  16
ATOM     16  N   UNL     1      43.824   4.732   9.876  0.00  0.00    +0.000 N 
ATOM     17  H   UNL     1      43.856   5.563   9.304  0.00  0.00    +0.000 HD
BRANCH  16  24
ATOM     18  C   UNL     1      46.319   5.460   8.523  0.00  0.00    +0.000 C 
ATOM     19  C   UNL     1      45.803   4.051   8.622  0.00  0.00    +0.000 A 
ATOM     20  C   UNL     1      46.524   3.037   7.975  0.00  0.00    +0.000 A 
ATOM     21  C   UNL     1      46.130   1.703   8.076  0.00  0.00    +0.000 A 
ATOM     22  C   UNL     1      45.021   1.449   8.863  0.00  0.00    +0.000 A 
ATOM     23  N   UNL     1      44.288   2.407   9.496  0.00  0.00    +0.000 NA
ATOM     24  C   UNL     1      44.663   3.706   9.372  0.00  0.00    +0.000 A 
BRANCH  21  25
ATOM     25  C   UNL     1      46.912   0.681   7.335  0.00  0.00    +0.000 C 
ATOM     26  N   UNL     1      46.727  -0.644   7.614  0.00  0.00    +0.000 N 
ATOM     27  O   UNL     1      47.716   1.002   6.468  0.00  0.00    +0.000 OA
ATOM     28  H   UNL     1      46.075  -1.020   8.286  0.00  0.00    +0.000 HD
ATOM     29  H   UNL     1      47.266  -1.301   7.064  0.00  0.00    +0.000 HD
ENDBRANCH  21  25
ENDBRANCH  16  24
ENDBRANCH   1  16
TORSDOF 5
ENDMDL
MODEL 3
REMARK VINA RESULT:    -7.635      1.974      2.913
REMARK INTER + INTRA:         -10.732
REMARK INTER:                  -9.606
REMARK INTRA:                  -1.126
REMARK UNBOUND:                -0.865
REMARK  Name = 
REMARK  6 active torsions:
REMARK  status: ('A' for Active; 'I' for Inactive)
REMARK    1  A    between atoms: C_1  and  C_2
REMARK    2  A    between atoms: C_4  and  C_5
REMARK    3  A    between atoms: C_10  and  N_11
REMARK    4  A    between atoms: N_11  and  C_12
REMARK    5  A    between atoms: C_12  and  C_13
REMARK    6  A    between atoms: C_17  and  C_18
REMARK                            x       y       z     vdW  Elec       q    Type
REMARK                         _______ _______ _______ _____ _____    ______ ____
ROOT
ATOM      1  C   UNL     1      44.170   4.394  12.026  0.00  0.00    +0.000 C 
ATOM      2  C   UNL     1      43.660   3.201  12.813  0.00  0.00    +0.000 C 
ATOM      3  C   UNL     1      42.911   4.492  12.883  0.00  0.00    +0.000 C 
ENDROOT
BRANCH   1   4
ATOM      4  C   UNL     1      45.377   5.191  12.534  0.00  0.00    +0.000 A 
ATOM      5  C   UNL     1      46.372   4.586  13.313  0.00  0.00    +0.000 A 
ATOM      6  C   UNL     1      47.469   5.307  13.781  0.00  0.00    +0.000 A 
ATOM      7  C   UNL     1      47.612   6.655  13.453  0.00  0.00    +0.000 A 
ATOM      8  C   UNL     1      46.666   7.313  12.650  0.00  0.00    +0.000 A 
ATOM      9  C   UNL     1      45.546   6.563  12.226  0.00  0.00    +0.000 A 
BRANCH   8  10
ATOM     10  C   UNL     1      46.869   8.718  12.229  0.00  0.00    +0.000 A 
ATOM     11  C   UNL     1      48.127   9.242  11.912  0.00  0.00    +0.000 A 
ATOM     12  C   UNL     1      48.271  10.591  11.563  0.00  0.00    +0.000 A 
ATOM     13  C   UNL     1      47.140  11.385  11.521  0.00  0.00    +0.000 A 
ATOM     14  N   UNL     1      45.904  10.931  11.802  0.00  0.00    +0.000 NA
ATOM     15  C   UNL     1      45.804   9.622  12.147  0.00  0.00    +0.000 A 
ENDBRANCH   8  10
ENDBRANCH   1   4
BRANCH   1  16
ATOM     16  N   UNL     1      43.988   4.414  10.553  0.00  0.00    +0.000 N 
ATOM     17  H   UNL     1      43.741   5.320  10.180  0.00  0.00    +0.000 HD
BRANCH  16  24
ATOM     18  C   UNL     1      46.038   5.895   9.072  0.00  0.00    +0.000 C 
ATOM     19  C   UNL     1      45.779   4.424   8.896  0.00  0.00    +0.000 A 
ATOM     20  C   UNL     1      46.516   3.736   7.922  0.00  0.00    +0.000 A 
ATOM     21  C   UNL     1      46.364   2.361   7.747  0.00  0.00    +0.000 A 
ATOM     22  C   UNL     1      45.476   1.730   8.601  0.00  0.00    +0.000 A 
ATOM     23  N   UNL     1      44.734   2.365   9.550  0.00  0.00    +0.000 NA
ATOM     24  C   UNL     1      44.869   3.708   9.696  0.00  0.00    +0.000 A 
BRANCH  21  25
ATOM     25  C   UNL     1      47.144   1.697   6.673  0.00  0.00    +0.000 C 
ATOM     26  N   UNL     1      47.933   2.449   5.849  0.00  0.00    +0.000 N 
ATOM     27  O   UNL     1      47.102   0.483   6.515  0.00  0.00    +0.000 OA
ATOM     28  H   UNL     1      48.062   3.447   5.905  0.00  0.00    +0.000 HD
ATOM     29  H   UNL     1      48.463   1.945   5.148  0.00  0.00    +0.000 HD
ENDBRANCH  21  25
ENDBRANCH  16  24
ENDBRANCH   1  16
TORSDOF 5
ENDMDL
MODEL 4
REMARK VINA RESULT:    -7.022      3.580      7.430
REMARK INTER + INTRA:          -9.940
REMARK INTER:                  -9.749
REMARK INTRA:                  -0.190
REMARK UNBOUND:                -0.865
REMARK  Name = 
REMARK  6 active torsions:
REMARK  status: ('A' for Active; 'I' for Inactive)
REMARK    1  A    between atoms: C_1  and  C_2
REMARK    2  A    between atoms: C_4  and  C_5
REMARK    3  A    between atoms: C_10  and  N_11
REMARK    4  A    between atoms: N_11  and  C_12
REMARK    5  A    between atoms: C_12  and  C_13
REMARK    6  A    between atoms: C_17  and  C_18
REMARK                            x       y       z     vdW  Elec       q    Type
REMARK                         _______ _______ _______ _____ _____    ______ ____
ROOT
ATOM      1  C   UNL     1      46.354   7.408  12.185  0.00  0.00    +0.000 C 
ATOM      2  C   UNL     1      46.403   8.867  11.773  0.00  0.00    +0.000 C 
ATOM      3  C   UNL     1      45.640   8.484  12.998  0.00  0.00    +0.000 C 
ENDROOT
BRANCH   1   4
ATOM      4  C   UNL     1      45.440   6.428  11.440  0.00  0.00    +0.000 A 
ATOM      5  C   UNL     1      44.050   6.459  11.611  0.00  0.00    +0.000 A 
ATOM      6  C   UNL     1      43.214   5.567  10.940  0.00  0.00    +0.000 A 
ATOM      7  C   UNL     1      43.753   4.635  10.053  0.00  0.00    +0.000 A 
ATOM      8  C   UNL     1      45.135   4.572   9.815  0.00  0.00    +0.000 A 
ATOM      9  C   UNL     1      45.957   5.464  10.541  0.00  0.00    +0.000 A 
BRANCH   8  10
ATOM     10  C   UNL     1      45.694   3.644   8.805  0.00  0.00    +0.000 A 
ATOM     11  C   UNL     1      46.278   4.082   7.612  0.00  0.00    +0.000 A 
ATOM     12  C   UNL     1      46.749   3.160   6.668  0.00  0.00    +0.000 A 
ATOM     13  C   UNL     1      46.641   1.812   6.952  0.00  0.00    +0.000 A 
ATOM     14  N   UNL     1      46.102   1.335   8.089  0.00  0.00    +0.000 NA
ATOM     15  C   UNL     1      45.645   2.256   8.976  0.00  0.00    +0.000 A 
ENDBRANCH   8  10
ENDBRANCH   1   4
BRANCH   1  16
ATOM     16  N   UNL     1      47.561   6.792  12.791  0.00  0.00    +0.000 N 
ATOM     17  H   UNL     1      48.375   7.390  12.792  0.00  0.00    +0.000 HD
BRANCH  16  24
ATOM     18  C   UNL     1      49.008   7.657  15.188  0.00  0.00    +0.000 C 
ATOM     19  C   UNL     1      48.254   6.360  15.090  0.00  0.00    +0.000 A 
ATOM     20  C   UNL     1      48.300   5.487  16.186  0.00  0.00    +0.000 A 
ATOM     21  C   UNL     1      47.577   4.294  16.181  0.00  0.00    +0.000 A 
ATOM     22  C   UNL     1      46.806   4.050  15.059  0.00  0.00    +0.000 A 
ATOM     23  N   UNL     1      46.745   4.867  13.971  0.00  0.00    +0.000 NA
ATOM     24  C   UNL     1      47.472   6.014  13.972  0.00  0.00    +0.000 A 
BRANCH  21  25
ATOM     25  C   UNL     1      47.698   3.393  17.355  0.00  0.00    +0.000 C 
ATOM     26  N   UNL     1      48.827   3.432  18.123  0.00  0.00    +0.000 N 
ATOM     27  O   UNL     1      46.797   2.618  17.656  0.00  0.00    +0.000 OA
ATOM     28  H   UNL     1      49.615   4.047  17.982  0.00  0.00    +0.000 HD
ATOM     29  H   UNL     1      48.849   2.816  18.926  0.00  0.00    +0.000 HD
ENDBRANCH  21  25
ENDBRANCH  16  24
ENDBRANCH   1  16
TORSDOF 5
ENDMDL
MODEL 5
REMARK VINA RESULT:    -7.002      5.095      8.231
REMARK INTER + INTRA:          -9.914
REMARK INTER:                  -8.694
REMARK INTRA:                  -1.220
REMARK UNBOUND:                -0.865
REMARK  Name = 
REMARK  6 active torsions:
REMARK  status: ('A' for Active; 'I' for Inactive)
REMARK    1  A    between atoms: C_1  and  C_2
REMARK    2  A    between atoms: C_4  and  C_5
REMARK    3  A    between atoms: C_10  and  N_11
REMARK    4  A    between atoms: N_11  and  C_12
REMARK    5  A    between atoms: C_12  and  C_13
REMARK    6  A    between atoms: C_17  and  C_18
REMARK                            x       y       z     vdW  Elec       q    Type
REMARK                         _______ _______ _______ _____ _____    ______ ____
ROOT
ATOM      1  C   UNL     1      49.005   7.232  16.854  0.00  0.00    +0.000 C 
ATOM      2  C   UNL     1      49.905   8.295  17.453  0.00  0.00    +0.000 C 
ATOM      3  C   UNL     1      48.429   8.523  17.427  0.00  0.00    +0.000 C 
ENDROOT
BRANCH   1   4
ATOM      4  C   UNL     1      48.900   7.081  15.332  0.00  0.00    +0.000 A 
ATOM      5  C   UNL     1      49.866   7.632  14.479  0.00  0.00    +0.000 A 
ATOM      6  C   UNL     1      49.773   7.502  13.094  0.00  0.00    +0.000 A 
ATOM      7  C   UNL     1      48.718   6.787  12.527  0.00  0.00    +0.000 A 
ATOM      8  C   UNL     1      47.734   6.185  13.328  0.00  0.00    +0.000 A 
ATOM      9  C   UNL     1      47.836   6.370  14.725  0.00  0.00    +0.000 A 
BRANCH   8  10
ATOM     10  C   UNL     1      46.668   5.351  12.728  0.00  0.00    +0.000 A 
ATOM     11  C   UNL     1      45.905   5.766  11.631  0.00  0.00    +0.000 A 
ATOM     12  C   UNL     1      44.876   4.958  11.130  0.00  0.00    +0.000 A 
ATOM     13  C   UNL     1      44.646   3.736  11.733  0.00  0.00    +0.000 A 
ATOM     14  N   UNL     1      45.356   3.280  12.781  0.00  0.00    +0.000 NA
ATOM     15  C   UNL     1      46.338   4.094  13.246  0.00  0.00    +0.000 A 
ENDBRANCH   8  10
ENDBRANCH   1   4
BRANCH   1  16
ATOM     16  N   UNL     1      48.759   5.984  17.618  0.00  0.00    +0.000 N 
ATOM     17  H   UNL     1      47.787   5.716  17.671  0.00  0.00    +0.000 HD
BRANCH  16  24
ATOM     18  C   UNL     1      47.598   3.368  16.989  0.00  0.00    +0.000 C 
ATOM     19  C   UNL     1      49.054   3.584  17.296  0.00  0.00    +0.000 A 
ATOM     20  C   UNL     1      49.891   2.459  17.347  0.00  0.00    +0.000 A 
ATOM     21  C   UNL     1      51.261   2.597  17.571  0.00  0.00    +0.000 A 
ATOM     22  C   UNL     1      51.733   3.890  17.708  0.00  0.00    +0.000 A 
ATOM     23  N   UNL     1      50.951   5.005  17.677  0.00  0.00    +0.000 NA
ATOM     24  C   UNL     1      49.614   4.861  17.484  0.00  0.00    +0.000 A 
BRANCH  21  25
ATOM     25  C   UNL     1      52.087   1.366  17.653  0.00  0.00    +0.000 C 
ATOM     26  N   UNL     1      51.525   0.203  18.097  0.00  0.00    +0.000 N 
ATOM     27  O   UNL     1      53.267   1.370  17.320  0.00  0.00    +0.000 OA
ATOM     28  H   UNL     1      50.561   0.081  18.370  0.00  0.00    +0.000 HD
ATOM     29  H   UNL     1      52.124  -0.613  18.110  0.00  0.00    +0.000 HD
ENDBRANCH  21  25
ENDBRANCH  16  24
ENDBRANCH   1  16
TORSDOF 5
ENDMDL
MODEL 6
REMARK VINA RESULT:    -6.999      2.903      7.249
REMARK INTER + INTRA:          -9.911
REMARK INTER:                  -8.806
REMARK INTRA:                  -1.105
REMARK UNBOUND:                -0.865
REMARK  Name = 
REMARK  6 active torsions:
REMARK  status: ('A' for Active; 'I' for Inactive)
REMARK    1  A    between atoms: C_1  and  C_2
REMARK    2  A    between atoms: C_4  and  C_5
REMARK    3  A    between atoms: C_10  and  N_11
REMARK    4  A    between atoms: N_11  and  C_12
REMARK    5  A    between atoms: C_12  and  C_13
REMARK    6  A    between atoms: C_17  and  C_18
REMARK                            x       y       z     vdW  Elec       q    Type
REMARK                         _______ _______ _______ _____ _____    ______ ____
ROOT
ATOM      1  C   UNL     1      44.065   6.262  11.696  0.00  0.00    +0.000 C 
ATOM      2  C   UNL     1      44.012   7.407  10.702  0.00  0.00    +0.000 C 
ATOM      3  C   UNL     1      42.762   7.004  11.413  0.00  0.00    +0.000 C 
ENDROOT
BRANCH   1   4
ATOM      4  C   UNL     1      44.119   4.813  11.199  0.00  0.00    +0.000 A 
ATOM      5  C   UNL     1      43.345   3.810  11.797  0.00  0.00    +0.000 A 
ATOM      6  C   UNL     1      43.394   2.490  11.352  0.00  0.00    +0.000 A 
ATOM      7  C   UNL     1      44.204   2.146  10.270  0.00  0.00    +0.000 A 
ATOM      8  C   UNL     1      44.982   3.109   9.608  0.00  0.00    +0.000 A 
ATOM      9  C   UNL     1      44.939   4.430  10.110  0.00  0.00    +0.000 A 
BRANCH   8  10
ATOM     10  C   UNL     1      45.769   2.758   8.404  0.00  0.00    +0.000 A 
ATOM     11  C   UNL     1      46.038   3.671   7.379  0.00  0.00    +0.000 A 
ATOM     12  C   UNL     1      46.748   3.276   6.238  0.00  0.00    +0.000 A 
ATOM     13  C   UNL     1      47.191   1.969   6.159  0.00  0.00    +0.000 A 
ATOM     14  N   UNL     1      46.973   1.052   7.119  0.00  0.00    +0.000 NA
ATOM     15  C   UNL     1      46.272   1.468   8.205  0.00  0.00    +0.000 A 
ENDBRANCH   8  10
ENDBRANCH   1   4
BRANCH   1  16
ATOM     16  N   UNL     1      44.698   6.487  13.020  0.00  0.00    +0.000 N 
ATOM     17  H   UNL     1      44.490   5.774  13.704  0.00  0.00    +0.000 HD
BRANCH  16  24
ATOM     18  C   UNL     1      46.843   4.569  13.574  0.00  0.00    +0.000 C 
ATOM     19  C   UNL     1      47.050   6.056  13.503  0.00  0.00    +0.000 A 
ATOM     20  C   UNL     1      48.330   6.558  13.781  0.00  0.00    +0.000 A 
ATOM     21  C   UNL     1      48.602   7.922  13.677  0.00  0.00    +0.000 A 
ATOM     22  C   UNL     1      47.555   8.725  13.263  0.00  0.00    +0.000 A 
ATOM     23  N   UNL     1      46.297   8.278  12.995  0.00  0.00    +0.000 NA
ATOM     24  C   UNL     1      46.033   6.952  13.124  0.00  0.00    +0.000 A 
BRANCH  21  25
ATOM     25  C   UNL     1      49.966   8.395  14.023  0.00  0.00    +0.000 C 
ATOM     26  N   UNL     1      50.900   7.501  14.464  0.00  0.00    +0.000 N 
ATOM     27  O   UNL     1      50.275   9.576  13.911  0.00  0.00    +0.000 OA
ATOM     28  H   UNL     1      50.762   6.507  14.568  0.00  0.00    +0.000 HD
ATOM     29  H   UNL     1      51.821   7.871  14.663  0.00  0.00    +0.000 HD
ENDBRANCH  21  25
ENDBRANCH  16  24
ENDBRANCH   1  16
TORSDOF 5
ENDMDL
MODEL 7
REMARK VINA RESULT:    -6.906      4.942      7.259
REMARK INTER + INTRA:          -9.790
REMARK INTER:                  -8.785
REMARK INTRA:                  -1.005
REMARK UNBOUND:                -0.865
REMARK  Name = 
REMARK  6 active torsions:
REMARK  status: ('A' for Active; 'I' for Inactive)
REMARK    1  A    between atoms: C_1  and  C_2
REMARK    2  A    between atoms: C_4  and  C_5
REMARK    3  A    between atoms: C_10  and  N_11
REMARK    4  A    between atoms: N_11  and  C_12
REMARK    5  A    between atoms: C_12  and  C_13
REMARK    6  A    between atoms: C_17  and  C_18
REMARK                            x       y       z     vdW  Elec       q    Type
REMARK                         _______ _______ _______ _____ _____    ______ ____
ROOT
ATOM      1  C   UNL     1      49.045   7.744  15.360  0.00  0.00    +0.000 C 
ATOM      2  C   UNL     1      48.427   9.126  15.453  0.00  0.00    +0.000 C 
ATOM      3  C   UNL     1      49.911   9.000  15.353  0.00  0.00    +0.000 C 
ENDROOT
BRANCH   1   4
ATOM      4  C   UNL     1      49.163   6.868  16.613  0.00  0.00    +0.000 A 
ATOM      5  C   UNL     1      48.461   7.179  17.785  0.00  0.00    +0.000 A 
ATOM      6  C   UNL     1      48.568   6.389  18.929  0.00  0.00    +0.000 A 
ATOM      7  C   UNL     1      49.364   5.243  18.916  0.00  0.00    +0.000 A 
ATOM      8  C   UNL     1      50.069   4.860  17.764  0.00  0.00    +0.000 A 
ATOM      9  C   UNL     1      49.970   5.705  16.635  0.00  0.00    +0.000 A 
BRANCH   8  10
ATOM     10  C   UNL     1      50.839   3.596  17.726  0.00  0.00    +0.000 A 
ATOM     11  C   UNL     1      52.160   3.497  18.174  0.00  0.00    +0.000 A 
ATOM     12  C   UNL     1      52.860   2.287  18.074  0.00  0.00    +0.000 A 
ATOM     13  C   UNL     1      52.208   1.192  17.539  0.00  0.00    +0.000 A 
ATOM     14  N   UNL     1      50.934   1.225  17.106  0.00  0.00    +0.000 NA
ATOM     15  C   UNL     1      50.291   2.417  17.209  0.00  0.00    +0.000 A 
ENDBRANCH   8  10
ENDBRANCH   1   4
BRANCH   1  16
ATOM     16  N   UNL     1      48.934   6.991  14.086  0.00  0.00    +0.000 N 
ATOM     17  H   UNL     1      49.755   6.451  13.852  0.00  0.00    +0.000 HD
BRANCH  16  24
ATOM     18  C   UNL     1      47.027   8.310  12.294  0.00  0.00    +0.000 C 
ATOM     19  C   UNL     1      46.767   6.991  12.966  0.00  0.00    +0.000 A 
ATOM     20  C   UNL     1      45.514   6.390  12.775  0.00  0.00    +0.000 A 
ATOM     21  C   UNL     1      45.229   5.140  13.325  0.00  0.00    +0.000 A 
ATOM     22  C   UNL     1      46.252   4.534  14.032  0.00  0.00    +0.000 A 
ATOM     23  N   UNL     1      47.476   5.090  14.249  0.00  0.00    +0.000 NA
ATOM     24  C   UNL     1      47.737   6.319  13.733  0.00  0.00    +0.000 A 
BRANCH  21  25
ATOM     25  C   UNL     1      43.872   4.574  13.121  0.00  0.00    +0.000 C 
ATOM     26  N   UNL     1      42.787   5.404  13.127  0.00  0.00    +0.000 N 
ATOM     27  O   UNL     1      43.706   3.374  12.936  0.00  0.00    +0.000 OA
ATOM     28  H   UNL     1      42.810   6.405  13.242  0.00  0.00    +0.000 HD
ATOM     29  H   UNL     1      41.887   4.972  12.958  0.00  0.00    +0.000 HD
ENDBRANCH  21  25
ENDBRANCH  16  24
ENDBRANCH   1  16
TORSDOF 5
ENDMDL
MODEL 8
REMARK VINA RESULT:    -6.866      3.606      7.663
REMARK INTER + INTRA:          -9.738
REMARK INTER:                  -9.438
REMARK INTRA:                  -0.300
REMARK UNBOUND:                -0.865
REMARK  Name = 
REMARK  6 active torsions:
REMARK  status: ('A' for Active; 'I' for Inactive)
REMARK    1  A    between atoms: C_1  and  C_2
REMARK    2  A    between atoms: C_4  and  C_5
REMARK    3  A    between atoms: C_10  and  N_11
REMARK    4  A    between atoms: N_11  and  C_12
REMARK    5  A    between atoms: C_12  and  C_13
REMARK    6  A    between atoms: C_17  and  C_18
REMARK                            x       y       z     vdW  Elec       q    Type
REMARK                         _______ _______ _______ _____ _____    ______ ____
ROOT
ATOM      1  C   UNL     1      48.933   7.947  12.850  0.00  0.00    +0.000 C 
ATOM      2  C   UNL     1      50.046   7.581  11.886  0.00  0.00    +0.000 C 
ATOM      3  C   UNL     1      49.661   9.016  12.040  0.00  0.00    +0.000 C 
ENDROOT
BRANCH   1   4
ATOM      4  C   UNL     1      47.469   7.707  12.461  0.00  0.00    +0.000 A 
ATOM      5  C   UNL     1      46.469   8.630  12.796  0.00  0.00    +0.000 A 
ATOM      6  C   UNL     1      45.136   8.415  12.449  0.00  0.00    +0.000 A 
ATOM      7  C   UNL     1      44.775   7.277  11.727  0.00  0.00    +0.000 A 
ATOM      8  C   UNL     1      45.734   6.330  11.335  0.00  0.00    +0.000 A 
ATOM      9  C   UNL     1      47.070   6.559  11.737  0.00  0.00    +0.000 A 
BRANCH   8  10
ATOM     10  C   UNL     1      45.361   5.172  10.491  0.00  0.00    +0.000 A 
ATOM     11  C   UNL     1      45.696   5.080   9.136  0.00  0.00    +0.000 A 
ATOM     12  C   UNL     1      45.279   3.984   8.370  0.00  0.00    +0.000 A 
ATOM     13  C   UNL     1      44.546   2.989   8.989  0.00  0.00    +0.000 A 
ATOM     14  N   UNL     1      44.207   3.018  10.291  0.00  0.00    +0.000 NA
ATOM     15  C   UNL     1      44.619   4.100  10.999  0.00  0.00    +0.000 A 
ENDBRANCH   8  10
ENDBRANCH   1   4
BRANCH   1  16
ATOM     16  N   UNL     1      49.202   7.903  14.308  0.00  0.00    +0.000 N 
ATOM     17  H   UNL     1      49.192   8.807  14.758  0.00  0.00    +0.000 HD
BRANCH  16  24
ATOM     18  C   UNL     1      49.138   8.288  17.213  0.00  0.00    +0.000 C 
ATOM     19  C   UNL     1      48.705   7.022  16.528  0.00  0.00    +0.000 A 
ATOM     20  C   UNL     1      48.309   5.941  17.330  0.00  0.00    +0.000 A 
ATOM     21  C   UNL     1      47.842   4.758  16.757  0.00  0.00    +0.000 A 
ATOM     22  C   UNL     1      47.772   4.733  15.376  0.00  0.00    +0.000 A 
ATOM     23  N   UNL     1      48.158   5.756  14.564  0.00  0.00    +0.000 NA
ATOM     24  C   UNL     1      48.636   6.895  15.128  0.00  0.00    +0.000 A 
BRANCH  21  25
ATOM     25  C   UNL     1      47.476   3.637  17.658  0.00  0.00    +0.000 C 
ATOM     26  N   UNL     1      48.246   3.372  18.755  0.00  0.00    +0.000 N 
ATOM     27  O   UNL     1      46.486   2.948  17.443  0.00  0.00    +0.000 OA
ATOM     28  H   UNL     1      49.064   3.890  19.041  0.00  0.00    +0.000 HD
ATOM     29  H   UNL     1      47.939   2.613  19.351  0.00  0.00    +0.000 HD
ENDBRANCH  21  25
ENDBRANCH  16  24
ENDBRANCH   1  16
TORSDOF 5
ENDMDL
MODEL 9
REMARK VINA RESULT:    -6.206      4.178      6.255
REMARK INTER + INTRA:          -8.886
REMARK INTER:                  -7.773
REMARK INTRA:                  -1.113
REMARK UNBOUND:                -0.865
REMARK  Name = 
REMARK  6 active torsions:
REMARK  status: ('A' for Active; 'I' for Inactive)
REMARK    1  A    between atoms: C_1  and  C_2
REMARK    2  A    between atoms: C_4  and  C_5
REMARK    3  A    between atoms: C_10  and  N_11
REMARK    4  A    between atoms: N_11  and  C_12
REMARK    5  A    between atoms: C_12  and  C_13
REMARK    6  A    between atoms: C_17  and  C_18
REMARK                            x       y       z     vdW  Elec       q    Type
REMARK                         _______ _______ _______ _____ _____    ______ ____
ROOT
ATOM      1  C   UNL     1      48.974   7.626  13.294  0.00  0.00    +0.000 C 
ATOM      2  C   UNL     1      49.029   8.702  12.226  0.00  0.00    +0.000 C 
ATOM      3  C   UNL     1      50.299   8.056  12.672  0.00  0.00    +0.000 C 
ENDROOT
BRANCH   1   4
ATOM      4  C   UNL     1      48.780   8.012  14.765  0.00  0.00    +0.000 A 
ATOM      5  C   UNL     1      48.439   9.320  15.134  0.00  0.00    +0.000 A 
ATOM      6  C   UNL     1      48.266   9.677  16.470  0.00  0.00    +0.000 A 
ATOM      7  C   UNL     1      48.402   8.718  17.474  0.00  0.00    +0.000 A 
ATOM      8  C   UNL     1      48.712   7.383  17.169  0.00  0.00    +0.000 A 
ATOM      9  C   UNL     1      48.920   7.065  15.808  0.00  0.00    +0.000 A 
BRANCH   8  10
ATOM     10  C   UNL     1      48.765   6.351  18.229  0.00  0.00    +0.000 A 
ATOM     11  C   UNL     1      48.894   4.986  17.954  0.00  0.00    +0.000 A 
ATOM     12  C   UNL     1      48.892   4.045  18.991  0.00  0.00    +0.000 A 
ATOM     13  C   UNL     1      48.779   4.499  20.292  0.00  0.00    +0.000 A 
ATOM     14  N   UNL     1      48.666   5.800  20.616  0.00  0.00    +0.000 NA
ATOM     15  C   UNL     1      48.660   6.682  19.584  0.00  0.00    +0.000 A 
ENDBRANCH   8  10
ENDBRANCH   1   4
BRANCH   1  16
ATOM     16  N   UNL     1      48.463   6.280  12.933  0.00  0.00    +0.000 N 
ATOM     17  H   UNL     1      48.903   5.523  13.435  0.00  0.00    +0.000 HD
BRANCH  16  24
ATOM     18  C   UNL     1      47.032   4.472  14.742  0.00  0.00    +0.000 C 
ATOM     19  C   UNL     1      46.412   5.098  13.524  0.00  0.00    +0.000 A 
ATOM     20  C   UNL     1      45.094   4.746  13.200  0.00  0.00    +0.000 A 
ATOM     21  C   UNL     1      44.442   5.334  12.116  0.00  0.00    +0.000 A 
ATOM     22  C   UNL     1      45.157   6.287  11.414  0.00  0.00    +0.000 A 
ATOM     23  N   UNL     1      46.442   6.647  11.690  0.00  0.00    +0.000 NA
ATOM     24  C   UNL     1      47.079   6.052  12.731  0.00  0.00    +0.000 A 
BRANCH  21  25
ATOM     25  C   UNL     1      43.061   4.890  11.800  0.00  0.00    +0.000 C 
ATOM     26  N   UNL     1      42.815   3.568  11.557  0.00  0.00    +0.000 N 
ATOM     27  O   UNL     1      42.131   5.686  11.763  0.00  0.00    +0.000 OA
ATOM     28  H   UNL     1      43.498   2.826  11.587  0.00  0.00    +0.000 HD
ATOM     29  H   UNL     1      41.853   3.314  11.371  0.00  0.00    +0.000 HD
ENDBRANCH  21  25
ENDBRANCH  16  24
ENDBRANCH   1  16
TORSDOF 5
ENDMDL
