MODEL 1
REMARK VINA RESULT:    -8.031      0.000      0.000
REMARK INTER + INTRA:         -10.100
REMARK INTER:                  -9.909
REMARK INTRA:                  -0.191
REMARK UNBOUND:                -0.191
REMARK  Name = 
REMARK  4 active torsions:
REMARK  status: ('A' for Active; 'I' for Inactive)
REMARK    1  A    between atoms: C_2  and  C_4
REMARK    2  A    between atoms: C_7  and  O_8
REMARK    3  A    between atoms: O_8  and  C_9
REMARK    4  A    between atoms: C_9  and  C_10
REMARK                            x       y       z     vdW  Elec       q    Type
REMARK                         _______ _______ _______ _____ _____    ______ ____
ROOT
ATOM      1  O   UNL     1      43.923   3.546  10.760  0.00  0.00    +0.000 OA
ENDROOT
BRANCH   1   5
ATOM      2  C   UNL     1      46.391   2.774   7.642  0.00  0.00    +0.000 A 
ATOM      3  C   UNL     1      45.887   1.775   8.439  0.00  0.00    +0.000 A 
ATOM      4  N   UNL     1      45.039   2.015   9.467  0.00  0.00    +0.000 NA
ATOM      5  C   UNL     1      44.709   3.306   9.653  0.00  0.00    +0.000 A 
ATOM      6  N   UNL     1      45.160   4.329   8.885  0.00  0.00    +0.000 NA
ATOM      7  N   UNL     1      46.027   4.061   7.852  0.00  0.00    +0.000 NA
BRANCH   2   9
ATOM      8  N   UNL     1      47.268   3.171   5.410  0.00  0.00    +0.000 N 
ATOM      9  C   UNL     1      47.378   2.469   6.578  0.00  0.00    +0.000 C 
ATOM     10  O   UNL     1      48.263   1.635   6.742  0.00  0.00    +0.000 OA
ATOM     11  H   UNL     1      47.959   3.022   4.685  0.00  0.00    +0.000 HD
ATOM     12  H   UNL     1      46.560   3.887   5.282  0.00  0.00    +0.000 HD
ENDBRANCH   2   9
ENDBRANCH   1   5
BRANCH   1  13
ATOM     13  C   UNL     1      43.986   4.863  11.355  0.00  0.00    +0.000 C 
ATOM     14  C   UNL     1      42.685   5.186  12.091  0.00  0.00    +0.000 C 
ATOM     15  C   UNL     1      43.053   5.955  10.867  0.00  0.00    +0.000 C 
BRANCH  13  16
ATOM     16  C   UNL     1      45.291   5.249  12.038  0.00  0.00    +0.000 A 
ATOM     17  C   UNL     1      46.098   6.287  11.543  0.00  0.00    +0.000 A 
ATOM     18  C   UNL     1      47.251   6.706  12.220  0.00  0.00    +0.000 A 
ATOM     19  C   UNL     1      47.626   6.095  13.415  0.00  0.00    +0.000 A 
ATOM     20 CL   UNL     1      49.020   6.702  14.234  0.00  0.00    +0.000 Cl
ATOM     21  C   UNL     1      46.866   5.035  13.912  0.00  0.00    +0.000 A 
ATOM     22 CL   UNL     1      47.258   4.221  15.386  0.00  0.00    +0.000 Cl
ATOM     23  C   UNL     1      45.724   4.613  13.219  0.00  0.00    +0.000 A 
ENDBRANCH  13  16
ENDBRANCH   1  13
TORSDOF 4
ENDMDL
MODEL 2
REMARK VINA RESULT:    -7.554      1.297      2.150
REMARK INTER + INTRA:          -9.512
REMARK INTER:                  -9.908
REMARK INTRA:                   0.396
REMARK UNBOUND:                -0.191
REMARK  Name = 
REMARK  4 active torsions:
REMARK  status: ('A' for Active; 'I' for Inactive)
REMARK    1  A    between atoms: C_2  and  C_4
REMARK    2  A    between atoms: C_7  and  O_8
REMARK    3  A    between atoms: O_8  and  C_9
REMARK    4  A    between atoms: C_9  and  C_10
REMARK                            x       y       z     vdW  Elec       q    Type
REMARK                         _______ _______ _______ _____ _____    ______ ____
ROOT
ATOM      1  O   UNL     1      43.740   4.894   9.647  0.00  0.00    +0.000 OA
ENDROOT
BRANCH   1   5
ATOM      2  C   UNL     1      46.413   2.419   7.877  0.00  0.00    +0.000 A 
ATOM      3  C   UNL     1      46.405   3.773   7.643  0.00  0.00    +0.000 A 
ATOM      4  N   UNL     1      45.537   4.617   8.248  0.00  0.00    +0.000 NA
ATOM      5  C   UNL     1      44.680   4.040   9.111  0.00  0.00    +0.000 A 
ATOM      6  N   UNL     1      44.657   2.713   9.395  0.00  0.00    +0.000 NA
ATOM      7  N   UNL     1      45.544   1.876   8.760  0.00  0.00    +0.000 NA
BRANCH   2   9
ATOM      8  N   UNL     1      48.423   2.108   6.546  0.00  0.00    +0.000 N 
ATOM      9  C   UNL     1      47.332   1.527   7.129  0.00  0.00    +0.000 C 
ATOM     10  O   UNL     1      47.132   0.319   7.049  0.00  0.00    +0.000 OA
ATOM     11  H   UNL     1      49.096   1.517   6.072  0.00  0.00    +0.000 HD
ATOM     12  H   UNL     1      48.612   3.101   6.638  0.00  0.00    +0.000 HD
ENDBRANCH   2   9
ENDBRANCH   1   5
BRANCH   1  13
ATOM     13  C   UNL     1      43.708   5.040  11.086  0.00  0.00    +0.000 C 
ATOM     14  C   UNL     1      42.970   3.867  11.733  0.00  0.00    +0.000 C 
ATOM     15  C   UNL     1      42.380   5.236  11.793  0.00  0.00    +0.000 C 
BRANCH  13  16
ATOM     16  C   UNL     1      44.988   5.519  11.759  0.00  0.00    +0.000 A 
ATOM     17  C   UNL     1      45.786   4.649  12.519  0.00  0.00    +0.000 A 
ATOM     18  C   UNL     1      47.010   5.062  13.062  0.00  0.00    +0.000 A 
ATOM     19  C   UNL     1      47.468   6.362  12.854  0.00  0.00    +0.000 A 
ATOM     20 CL   UNL     1      49.015   6.789  13.493  0.00  0.00    +0.000 Cl
ATOM     21  C   UNL     1      46.679   7.261  12.136  0.00  0.00    +0.000 A 
ATOM     22 CL   UNL     1      47.170   8.891  11.831  0.00  0.00    +0.000 Cl
ATOM     23  C   UNL     1      45.449   6.842  11.611  0.00  0.00    +0.000 A 
ENDBRANCH  13  16
ENDBRANCH   1  13
TORSDOF 4
ENDMDL
MODEL 3
REMARK VINA RESULT:    -7.381      4.325      6.447
REMARK INTER + INTRA:          -9.298
REMARK INTER:                  -9.156
REMARK INTRA:                  -0.143
REMARK UNBOUND:                -0.191
REMARK  Name = 
REMARK  4 active torsions:
REMARK  status: ('A' for Active; 'I' for Inactive)
REMARK    1  A    between atoms: C_2  and  C_4
REMARK    2  A    between atoms: C_7  and  O_8
REMARK    3  A    between atoms: O_8  and  C_9
REMARK    4  A    between atoms: C_9  and  C_10
REMARK                            x       y       z     vdW  Elec       q    Type
REMARK                         _______ _______ _______ _____ _____    ______ ____
ROOT
ATOM      1  O   UNL     1      45.263   5.081  11.874  0.00  0.00    +0.000 OA
ENDROOT
BRANCH   1   5
ATOM      2  C   UNL     1      47.404   3.712  15.028  0.00  0.00    +0.000 A 
ATOM      3  C   UNL     1      46.934   5.002  14.968  0.00  0.00    +0.000 A 
ATOM      4  N   UNL     1      46.194   5.466  13.934  0.00  0.00    +0.000 NA
ATOM      5  C   UNL     1      45.935   4.571  12.964  0.00  0.00    +0.000 A 
ATOM      6  N   UNL     1      46.357   3.281  12.980  0.00  0.00    +0.000 NA
ATOM      7  N   UNL     1      47.115   2.837  14.037  0.00  0.00    +0.000 NA
BRANCH   2   9
ATOM      8  N   UNL     1      48.303   4.066  17.258  0.00  0.00    +0.000 N 
ATOM      9  C   UNL     1      48.278   3.275  16.143  0.00  0.00    +0.000 C 
ATOM     10  O   UNL     1      48.938   2.242  16.076  0.00  0.00    +0.000 OA
ATOM     11  H   UNL     1      48.850   3.766  18.056  0.00  0.00    +0.000 HD
ATOM     12  H   UNL     1      47.733   4.902  17.332  0.00  0.00    +0.000 HD
ENDBRANCH   2   9
ENDBRANCH   1   5
BRANCH   1  13
ATOM     13  C   UNL     1      44.512   4.155  11.053  0.00  0.00    +0.000 C 
ATOM     14  C   UNL     1      43.028   4.525  11.041  0.00  0.00    +0.000 C 
ATOM     15  C   UNL     1      43.470   3.258  11.694  0.00  0.00    +0.000 C 
BRANCH  13  16
ATOM     16  C   UNL     1      45.142   3.739   9.731  0.00  0.00    +0.000 A 
ATOM     17  C   UNL     1      45.584   4.692   8.798  0.00  0.00    +0.000 A 
ATOM     18  C   UNL     1      46.247   4.315   7.623  0.00  0.00    +0.000 A 
ATOM     19  C   UNL     1      46.486   2.968   7.351  0.00  0.00    +0.000 A 
ATOM     20 CL   UNL     1      47.366   2.574   5.919  0.00  0.00    +0.000 Cl
ATOM     21  C   UNL     1      46.025   1.997   8.240  0.00  0.00    +0.000 A 
ATOM     22 CL   UNL     1      46.278   0.307   7.982  0.00  0.00    +0.000 Cl
ATOM     23  C   UNL     1      45.349   2.385   9.405  0.00  0.00    +0.000 A 
ENDBRANCH  13  16
ENDBRANCH   1  13
TORSDOF 4
ENDMDL
MODEL 4
REMARK VINA RESULT:    -7.015      4.192      6.342
REMARK INTER + INTRA:          -8.847
REMARK INTER:                  -9.436
REMARK INTRA:                   0.590
REMARK UNBOUND:                -0.191
REMARK  Name = 
REMARK  4 active torsions:
REMARK  status: ('A' for Active; 'I' for Inactive)
REMARK    1  A    between atoms: C_2  and  C_4
REMARK    2  A    between atoms: C_7  and  O_8
REMARK    3  A    between atoms: O_8  and  C_9
REMARK    4  A    between atoms: C_9  and  C_10
REMARK                            x       y       z     vdW  Elec       q    Type
REMARK                         _______ _______ _______ _____ _____    ______ ____
ROOT
ATOM      1  O   UNL     1      44.127   5.194  10.798  0.00  0.00    +0.000 OA
ENDROOT
BRANCH   1   5
ATOM      2  C   UNL     1      46.650   7.770  12.642  0.00  0.00    +0.000 A 
ATOM      3  C   UNL     1      46.890   6.418  12.598  0.00  0.00    +0.000 A 
ATOM      4  N   UNL     1      46.071   5.548  11.962  0.00  0.00    +0.000 NA
ATOM      5  C   UNL     1      45.002   6.099  11.359  0.00  0.00    +0.000 A 
ATOM      6  N   UNL     1      44.727   7.428  11.353  0.00  0.00    +0.000 NA
ATOM      7  N   UNL     1      45.570   8.290  12.014  0.00  0.00    +0.000 NA
BRANCH   2   9
ATOM      8  N   UNL     1      47.217   8.872  14.733  0.00  0.00    +0.000 N 
ATOM      9  C   UNL     1      47.535   8.672  13.419  0.00  0.00    +0.000 C 
ATOM     10  O   UNL     1      48.516   9.205  12.910  0.00  0.00    +0.000 OA
ATOM     11  H   UNL     1      47.831   9.442  15.302  0.00  0.00    +0.000 HD
ATOM     12  H   UNL     1      46.426   8.407  15.168  0.00  0.00    +0.000 HD
ENDBRANCH   2   9
ENDBRANCH   1   5
BRANCH   1  13
ATOM     13  C   UNL     1      44.566   3.820  10.680  0.00  0.00    +0.000 C 
ATOM     14  C   UNL     1      43.500   2.864  11.217  0.00  0.00    +0.000 C 
ATOM     15  C   UNL     1      44.802   2.996  11.932  0.00  0.00    +0.000 C 
BRANCH  13  16
ATOM     16  C   UNL     1      45.270   3.429   9.387  0.00  0.00    +0.000 A 
ATOM     17  C   UNL     1      45.698   4.398   8.465  0.00  0.00    +0.000 A 
ATOM     18  C   UNL     1      46.427   4.049   7.321  0.00  0.00    +0.000 A 
ATOM     19  C   UNL     1      46.748   2.715   7.071  0.00  0.00    +0.000 A 
ATOM     20 CL   UNL     1      47.706   2.358   5.679  0.00  0.00    +0.000 Cl
ATOM     21  C   UNL     1      46.304   1.726   7.950  0.00  0.00    +0.000 A 
ATOM     22 CL   UNL     1      46.657   0.050   7.717  0.00  0.00    +0.000 Cl
ATOM     23  C   UNL     1      45.561   2.085   9.082  0.00  0.00    +0.000 A 
ENDBRANCH  13  16
ENDBRANCH   1  13
TORSDOF 4
ENDMDL
MODEL 5
REMARK VINA RESULT:    -6.435      4.616      6.886
REMARK INTER + INTRA:          -8.131
REMARK INTER:                  -8.047
REMARK INTRA:                  -0.084
REMARK UNBOUND:                -0.191
REMARK  Name = 
REMARK  4 active torsions:
REMARK  status: ('A' for Active; 'I' for Inactive)
REMARK    1  A    between atoms: C_2  and  C_4
REMARK    2  A    between atoms: C_7  and  O_8
REMARK    3  A    between atoms: O_8  and  C_9
REMARK    4  A    between atoms: C_9  and  C_10
REMARK                            x       y       z     vdW  Elec       q    Type
REMARK                         _______ _______ _______ _____ _____    ______ ____
ROOT
ATOM      1  O   UNL     1      47.811   6.388  12.882  0.00  0.00    +0.000 OA
ENDROOT
BRANCH   1   5
ATOM      2  C   UNL     1      47.872   4.138  16.249  0.00  0.00    +0.000 A 
ATOM      3  C   UNL     1      48.305   5.442  16.234  0.00  0.00    +0.000 A 
ATOM      4  N   UNL     1      48.265   6.215  15.124  0.00  0.00    +0.000 NA
ATOM      5  C   UNL     1      47.758   5.622  14.027  0.00  0.00    +0.000 A 
ATOM      6  N   UNL     1      47.298   4.346  13.990  0.00  0.00    +0.000 NA
ATOM      7  N   UNL     1      47.358   3.579  15.129  0.00  0.00    +0.000 NA
BRANCH   2   9
ATOM      8  N   UNL     1      46.907   2.607  17.872  0.00  0.00    +0.000 N 
ATOM      9  C   UNL     1      48.010   3.308  17.471  0.00  0.00    +0.000 C 
ATOM     10  O   UNL     1      49.069   3.242  18.087  0.00  0.00    +0.000 OA
ATOM     11  H   UNL     1      46.985   1.991  18.673  0.00  0.00    +0.000 HD
ATOM     12  H   UNL     1      46.039   2.631  17.347  0.00  0.00    +0.000 HD
ENDBRANCH   2   9
ENDBRANCH   1   5
BRANCH   1  13
ATOM     13  C   UNL     1      46.557   6.803  12.292  0.00  0.00    +0.000 C 
ATOM     14  C   UNL     1      46.604   8.282  11.908  0.00  0.00    +0.000 C 
ATOM     15  C   UNL     1      45.696   7.830  13.002  0.00  0.00    +0.000 C 
BRANCH  13  16
ATOM     16  C   UNL     1      45.909   5.843  11.304  0.00  0.00    +0.000 A 
ATOM     17  C   UNL     1      46.240   5.861   9.939  0.00  0.00    +0.000 A 
ATOM     18  C   UNL     1      45.716   4.920   9.044  0.00  0.00    +0.000 A 
ATOM     19  C   UNL     1      44.843   3.931   9.495  0.00  0.00    +0.000 A 
ATOM     20 CL   UNL     1      44.284   2.760   8.355  0.00  0.00    +0.000 Cl
ATOM     21  C   UNL     1      44.465   3.910  10.838  0.00  0.00    +0.000 A 
ATOM     22 CL   UNL     1      43.389   2.720  11.482  0.00  0.00    +0.000 Cl
ATOM     23  C   UNL     1      44.983   4.866  11.721  0.00  0.00    +0.000 A 
ENDBRANCH  13  16
ENDBRANCH   1  13
TORSDOF 4
ENDMDL
MODEL 6
REMARK VINA RESULT:    -6.411      4.930      6.780
REMARK INTER + INTRA:          -8.101
REMARK INTER:                  -7.817
REMARK INTRA:                  -0.284
REMARK UNBOUND:                -0.191
REMARK  Name = 
REMARK  4 active torsions:
REMARK  status: ('A' for Active; 'I' for Inactive)
REMARK    1  A    between atoms: C_2  and  C_4
REMARK    2  A    between atoms: C_7  and  O_8
REMARK    3  A    between atoms: O_8  and  C_9
REMARK    4  A    between atoms: C_9  and  C_10
REMARK                            x       y       z     vdW  Elec       q    Type
REMARK                         _______ _______ _______ _____ _____    ______ ____
ROOT
ATOM      1  O   UNL     1      47.656   3.205  15.386  0.00  0.00    +0.000 OA
ENDROOT
BRANCH   1   5
ATOM      2  C   UNL     1      46.223   6.062  12.899  0.00  0.00    +0.000 A 
ATOM      3  C   UNL     1      45.509   4.926  13.194  0.00  0.00    +0.000 A 
ATOM      4  N   UNL     1      45.962   3.976  14.045  0.00  0.00    +0.000 NA
ATOM      5  C   UNL     1      47.164   4.223  14.598  0.00  0.00    +0.000 A 
ATOM      6  N   UNL     1      47.902   5.336  14.357  0.00  0.00    +0.000 NA
ATOM      7  N   UNL     1      47.423   6.282  13.482  0.00  0.00    +0.000 NA
BRANCH   2   9
ATOM      8  N   UNL     1      44.909   6.547  10.912  0.00  0.00    +0.000 N 
ATOM      9  C   UNL     1      45.718   7.035  11.900  0.00  0.00    +0.000 C 
ATOM     10  O   UNL     1      46.003   8.228  11.963  0.00  0.00    +0.000 OA
ATOM     11  H   UNL     1      44.508   7.196  10.245  0.00  0.00    +0.000 HD
ATOM     12  H   UNL     1      44.643   5.568  10.875  0.00  0.00    +0.000 HD
ENDBRANCH   2   9
ENDBRANCH   1   5
BRANCH   1  13
ATOM     13  C   UNL     1      48.021   3.526  16.748  0.00  0.00    +0.000 C 
ATOM     14  C   UNL     1      47.059   2.865  17.737  0.00  0.00    +0.000 C 
ATOM     15  C   UNL     1      47.078   4.350  17.605  0.00  0.00    +0.000 C 
BRANCH  13  16
ATOM     16  C   UNL     1      49.505   3.499  17.089  0.00  0.00    +0.000 A 
ATOM     17  C   UNL     1      50.209   4.676  17.394  0.00  0.00    +0.000 A 
ATOM     18  C   UNL     1      51.550   4.644  17.798  0.00  0.00    +0.000 A 
ATOM     19  C   UNL     1      52.222   3.427  17.909  0.00  0.00    +0.000 A 
ATOM     20 CL   UNL     1      53.854   3.452  18.477  0.00  0.00    +0.000 Cl
ATOM     21  C   UNL     1      51.561   2.245  17.577  0.00  0.00    +0.000 A 
ATOM     22 CL   UNL     1      52.318   0.695  17.686  0.00  0.00    +0.000 Cl
ATOM     23  C   UNL     1      50.225   2.290  17.158  0.00  0.00    +0.000 A 
ENDBRANCH  13  16
ENDBRANCH   1  13
TORSDOF 4
ENDMDL
MODEL 7
REMARK VINA RESULT:    -6.342      5.491      7.452
REMARK INTER + INTRA:          -8.016
REMARK INTER:                  -7.963
REMARK INTRA:                  -0.053
REMARK UNBOUND:                -0.191
REMARK  Name = 
REMARK  4 active torsions:
REMARK  status: ('A' for Active; 'I' for Inactive)
REMARK    1  A    between atoms: C_2  and  C_4
REMARK    2  A    between atoms: C_7  and  O_8
REMARK    3  A    between atoms: O_8  and  C_9
REMARK    4  A    between atoms: C_9  and  C_10
REMARK                            x       y       z     vdW  Elec       q    Type
REMARK                         _______ _______ _______ _____ _____    ______ ____
ROOT
ATOM      1  O   UNL     1      46.896   4.132  15.791  0.00  0.00    +0.000 OA
ENDROOT
BRANCH   1   5
ATOM      2  C   UNL     1      50.251   2.336  17.179  0.00  0.00    +0.000 A 
ATOM      3  C   UNL     1      49.687   3.419  17.810  0.00  0.00    +0.000 A 
ATOM      4  N   UNL     1      48.551   4.012  17.375  0.00  0.00    +0.000 NA
ATOM      5  C   UNL     1      47.997   3.461  16.279  0.00  0.00    +0.000 A 
ATOM      6  N   UNL     1      48.499   2.382  15.628  0.00  0.00    +0.000 NA
ATOM      7  N   UNL     1      49.659   1.803  16.085  0.00  0.00    +0.000 NA
BRANCH   2   9
ATOM      8  N   UNL     1      51.554   0.441  17.963  0.00  0.00    +0.000 N 
ATOM      9  C   UNL     1      51.539   1.771  17.649  0.00  0.00    +0.000 C 
ATOM     10  O   UNL     1      52.549   2.462  17.740  0.00  0.00    +0.000 OA
ATOM     11  H   UNL     1      52.432   0.015  18.237  0.00  0.00    +0.000 HD
ATOM     12  H   UNL     1      50.731  -0.143  17.857  0.00  0.00    +0.000 HD
ENDBRANCH   2   9
ENDBRANCH   1   5
BRANCH   1  13
ATOM     13  C   UNL     1      46.988   4.695  14.461  0.00  0.00    +0.000 C 
ATOM     14  C   UNL     1      45.606   4.773  13.811  0.00  0.00    +0.000 C 
ATOM     15  C   UNL     1      46.632   3.843  13.258  0.00  0.00    +0.000 C 
BRANCH  13  16
ATOM     16  C   UNL     1      47.915   5.889  14.280  0.00  0.00    +0.000 A 
ATOM     17  C   UNL     1      48.384   6.626  15.381  0.00  0.00    +0.000 A 
ATOM     18  C   UNL     1      49.310   7.666  15.226  0.00  0.00    +0.000 A 
ATOM     19  C   UNL     1      49.793   7.994  13.960  0.00  0.00    +0.000 A 
ATOM     20 CL   UNL     1      50.983   9.242  13.844  0.00  0.00    +0.000 Cl
ATOM     21  C   UNL     1      49.317   7.305  12.844  0.00  0.00    +0.000 A 
ATOM     22 CL   UNL     1      49.862   7.647  11.239  0.00  0.00    +0.000 Cl
ATOM     23  C   UNL     1      48.379   6.278  13.008  0.00  0.00    +0.000 A 
ENDBRANCH  13  16
ENDBRANCH   1  13
TORSDOF 4
ENDMDL
MODEL 8
REMARK VINA RESULT:    -6.016      4.313      6.469
REMARK INTER + INTRA:          -7.613
REMARK INTER:                  -7.338
REMARK INTRA:                  -0.275
REMARK UNBOUND:                -0.191
REMARK  Name = 
REMARK  4 active torsions:
REMARK  status: ('A' for Active; 'I' for Inactive)
REMARK    1  A    between atoms: C_2  and  C_4
REMARK    2  A    between atoms: C_7  and  O_8
REMARK    3  A    between atoms: O_8  and  C_9
REMARK    4  A    between atoms: C_9  and  C_10
REMARK                            x       y       z     vdW  Elec       q    Type
REMARK                         _______ _______ _______ _____ _____    ______ ____
ROOT
ATOM      1  O   UNL     1      44.957   6.931  11.435  0.00  0.00    +0.000 OA
ENDROOT
BRANCH   1   5
ATOM      2  C   UNL     1      48.203   7.253  13.836  0.00  0.00    +0.000 A 
ATOM      3  C   UNL     1      47.280   8.264  13.717  0.00  0.00    +0.000 A 
ATOM      4  N   UNL     1      46.175   8.160  12.940  0.00  0.00    +0.000 NA
ATOM      5  C   UNL     1      46.033   6.988  12.296  0.00  0.00    +0.000 A 
ATOM      6  N   UNL     1      46.901   5.950  12.393  0.00  0.00    +0.000 NA
ATOM      7  N   UNL     1      48.020   6.083  13.181  0.00  0.00    +0.000 NA
BRANCH   2   9
ATOM      8  N   UNL     1      50.031   8.673  14.576  0.00  0.00    +0.000 N 
ATOM      9  C   UNL     1      49.436   7.444  14.637  0.00  0.00    +0.000 C 
ATOM     10  O   UNL     1      49.896   6.545  15.335  0.00  0.00    +0.000 OA
ATOM     11  H   UNL     1      50.845   8.851  15.152  0.00  0.00    +0.000 HD
ATOM     12  H   UNL     1      49.636   9.431  14.028  0.00  0.00    +0.000 HD
ENDBRANCH   2   9
ENDBRANCH   1   5
BRANCH   1  13
ATOM     13  C   UNL     1      44.138   5.738  11.461  0.00  0.00    +0.000 C 
ATOM     14  C   UNL     1      42.654   6.099  11.376  0.00  0.00    +0.000 C 
ATOM     15  C   UNL     1      43.198   5.496  12.627  0.00  0.00    +0.000 C 
BRANCH  13  16
ATOM     16  C   UNL     1      44.619   4.554  10.634  0.00  0.00    +0.000 A 
ATOM     17  C   UNL     1      44.317   3.232  11.003  0.00  0.00    +0.000 A 
ATOM     18  C   UNL     1      44.678   2.145  10.196  0.00  0.00    +0.000 A 
ATOM     19  C   UNL     1      45.353   2.355   8.994  0.00  0.00    +0.000 A 
ATOM     20 CL   UNL     1      45.710   0.979   8.013  0.00  0.00    +0.000 Cl
ATOM     21  C   UNL     1      45.700   3.654   8.620  0.00  0.00    +0.000 A 
ATOM     22 CL   UNL     1      46.536   4.004   7.147  0.00  0.00    +0.000 Cl
ATOM     23  C   UNL     1      45.348   4.732   9.442  0.00  0.00    +0.000 A 
ENDBRANCH  13  16
ENDBRANCH   1  13
TORSDOF 4
ENDMDL
MODEL 9
REMARK VINA RESULT:    -5.784      3.170      4.988
REMARK INTER + INTRA:          -7.327
REMARK INTER:                  -7.028
REMARK INTRA:                  -0.300
REMARK UNBOUND:                -0.191
REMARK  Name = 
REMARK  4 active torsions:
REMARK  status: ('A' for Active; 'I' for Inactive)
REMARK    1  A    between atoms: C_2  and  C_4
REMARK    2  A    between atoms: C_7  and  O_8
REMARK    3  A    between atoms: O_8  and  C_9
REMARK    4  A    between atoms: C_9  and  C_10
REMARK                            x       y       z     vdW  Elec       q    Type
REMARK                         _______ _______ _______ _____ _____    ______ ____
ROOT
ATOM      1  O   UNL     1      46.357   7.607  12.756  0.00  0.00    +0.000 OA
ENDROOT
BRANCH   1   5
ATOM      2  C   UNL     1      44.698   4.124  11.522  0.00  0.00    +0.000 A 
ATOM      3  C   UNL     1      44.934   5.167  10.659  0.00  0.00    +0.000 A 
ATOM      4  N   UNL     1      45.513   6.326  11.050  0.00  0.00    +0.000 NA
ATOM      5  C   UNL     1      45.857   6.388  12.350  0.00  0.00    +0.000 A 
ATOM      6  N   UNL     1      45.665   5.383  13.241  0.00  0.00    +0.000 NA
ATOM      7  N   UNL     1      45.067   4.219  12.821  0.00  0.00    +0.000 NA
BRANCH   2   9
ATOM      8  N   UNL     1      44.523   2.244   9.992  0.00  0.00    +0.000 N 
ATOM      9  C   UNL     1      43.989   2.906  11.062  0.00  0.00    +0.000 C 
ATOM     10  O   UNL     1      42.975   2.501  11.624  0.00  0.00    +0.000 OA
ATOM     11  H   UNL     1      44.091   1.380   9.688  0.00  0.00    +0.000 HD
ATOM     12  H   UNL     1      45.380   2.555   9.546  0.00  0.00    +0.000 HD
ENDBRANCH   2   9
ENDBRANCH   1   5
BRANCH   1  13
ATOM     13  C   UNL     1      47.778   7.699  13.012  0.00  0.00    +0.000 C 
ATOM     14  C   UNL     1      48.442   8.672  12.037  0.00  0.00    +0.000 C 
ATOM     15  C   UNL     1      48.764   7.217  11.964  0.00  0.00    +0.000 C 
BRANCH  13  16
ATOM     16  C   UNL     1      48.213   7.762  14.470  0.00  0.00    +0.000 A 
ATOM     17  C   UNL     1      48.081   8.940  15.224  0.00  0.00    +0.000 A 
ATOM     18  C   UNL     1      48.393   8.976  16.589  0.00  0.00    +0.000 A 
ATOM     19  C   UNL     1      48.846   7.828  17.237  0.00  0.00    +0.000 A 
ATOM     20 CL   UNL     1      49.150   7.921  18.935  0.00  0.00    +0.000 Cl
ATOM     21  C   UNL     1      49.023   6.652  16.507  0.00  0.00    +0.000 A 
ATOM     22 CL   UNL     1      49.580   5.184  17.230  0.00  0.00    +0.000 Cl
ATOM     23  C   UNL     1      48.724   6.632  15.138  0.00  0.00    +0.000 A 
ENDBRANCH  13  16
ENDBRANCH   1  13
TORSDOF 4
ENDMDL
