MODEL 1
REMARK VINA RESULT:    -8.555      0.000      0.000
REMARK INTER + INTRA:         -12.667
REMARK INTER:                 -11.555
REMARK INTRA:                  -1.112
REMARK UNBOUND:                -1.112
REMARK  Name = 
REMARK  6 active torsions:
REMARK  status: ('A' for Active; 'I' for Inactive)
REMARK    1  A    between atoms: C_2  and  C_25
REMARK    2  A    between atoms: N_3  and  C_4
REMARK    3  A    between atoms: C_4  and  C_5
REMARK    4  A    between atoms: C_8  and  C_9
REMARK    5  A    between atoms: C_9  and  N_10
REMARK    6  A    between atoms: C_11  and  C_13
REMARK                            x       y       z     vdW  Elec       q    Type
REMARK                         _______ _______ _______ _____ _____    ______ ____
ROOT
ATOM      1  C   UNL     1      44.525   5.812  11.103  0.00  0.00    +0.000 A 
ATOM      2  C   UNL     1      44.080   6.943  11.801  0.00  0.00    +0.000 A 
ATOM      3  C   UNL     1      44.974   7.708  12.553  0.00  0.00    +0.000 A 
ATOM      4  C   UNL     1      46.332   7.371  12.602  0.00  0.00    +0.000 A 
ATOM      5  C   UNL     1      46.775   6.238  11.904  0.00  0.00    +0.000 A 
ATOM      6  C   UNL     1      45.882   5.472  11.153  0.00  0.00    +0.000 A 
ENDROOT
BRANCH   1   7
ATOM      7  C   UNL     1      43.552   4.962  10.336  0.00  0.00    +0.000 C 
BRANCH   7  10
ATOM      8  O   UNL     1      44.316   2.337  10.141  0.00  0.00    +0.000 OA
ATOM      9  C   UNL     1      44.524   3.081   9.185  0.00  0.00    +0.000 C 
ATOM     10  N   UNL     1      44.124   4.388   9.144  0.00  0.00    +0.000 N 
ATOM     11  H   UNL     1      44.228   4.948   8.309  0.00  0.00    +0.000 HD
BRANCH   9  12
ATOM     12  C   UNL     1      45.255   2.548   7.988  0.00  0.00    +0.000 C 
ATOM     13  C   UNL     1      45.952   3.431   7.056  0.00  0.00    +0.000 C 
ATOM     14  C   UNL     1      47.158   3.070   6.572  0.00  0.00    +0.000 C 
ATOM     15  C   UNL     1      47.760   1.807   6.973  0.00  0.00    +0.000 C 
ATOM     16  C   UNL     1      47.028   0.948   7.701  0.00  0.00    +0.000 C 
ATOM     17  N   UNL     1      45.745   1.245   8.113  0.00  0.00    +0.000 N 
ATOM     18  H   UNL     1      45.458   0.808   8.991  0.00  0.00    +0.000 HD
ENDBRANCH   9  12
ENDBRANCH   7  10
ENDBRANCH   1   7
BRANCH   4  19
ATOM     19  C   UNL     1      47.298   8.172  13.434  0.00  0.00    +0.000 C 
BRANCH  19  20
ATOM     20  N   UNL     1      47.650   7.467  14.640  0.00  0.00    +0.000 N 
ATOM     21  C   UNL     1      48.893   6.910  14.800  0.00  0.00    +0.000 C 
ATOM     22  O   UNL     1      49.774   7.035  13.954  0.00  0.00    +0.000 OA
ATOM     23  H   UNL     1      46.887   7.168  15.238  0.00  0.00    +0.000 HD
BRANCH  21  24
ATOM     24  C   UNL     1      49.138   6.208  16.065  0.00  0.00    +0.000 A 
ATOM     25  C   UNL     1      50.156   6.641  16.903  0.00  0.00    +0.000 A 
ATOM     26  S   UNL     1      50.270   5.756  18.356  0.00  0.00    +0.000 S 
ATOM     27  C   UNL     1      48.998   4.727  17.893  0.00  0.00    +0.000 A 
ATOM     28  N   UNL     1      48.594   3.708  18.700  0.00  0.00    +0.000 NA
ATOM     29  C   UNL     1      47.641   2.987  18.212  0.00  0.00    +0.000 A 
ATOM     30  N   UNL     1      47.051   3.194  16.993  0.00  0.00    +0.000 N 
ATOM     31  C   UNL     1      47.404   4.226  16.158  0.00  0.00    +0.000 A 
ATOM     32  O   UNL     1      46.827   4.412  15.089  0.00  0.00    +0.000 OA
ATOM     33  C   UNL     1      48.481   5.063  16.655  0.00  0.00    +0.000 A 
ATOM     34  H   UNL     1      46.301   2.600  16.674  0.00  0.00    +0.000 HD
ENDBRANCH  21  24
ENDBRANCH  19  20
ENDBRANCH   4  19
TORSDOF 6
ENDMDL
MODEL 2
REMARK VINA RESULT:    -8.314      1.768      2.081
REMARK INTER + INTRA:         -12.342
REMARK INTER:                 -11.532
REMARK INTRA:                  -0.810
REMARK UNBOUND:                -1.112
REMARK  Name = 
REMARK  6 active torsions:
REMARK  status: ('A' for Active; 'I' for Inactive)
REMARK    1  A    between atoms: C_2  and  C_25
REMARK    2  A    between atoms: N_3  and  C_4
REMARK    3  A    between atoms: C_4  and  C_5
REMARK    4  A    between atoms: C_8  and  C_9
REMARK    5  A    between atoms: C_9  and  N_10
REMARK    6  A    between atoms: C_11  and  C_13
REMARK                            x       y       z     vdW  Elec       q    Type
REMARK                         _______ _______ _______ _____ _____    ______ ____
ROOT
ATOM      1  C   UNL     1      45.062   5.563  11.670  0.00  0.00    +0.000 A 
ATOM      2  C   UNL     1      45.335   5.028  12.937  0.00  0.00    +0.000 A 
ATOM      3  C   UNL     1      46.459   5.444  13.654  0.00  0.00    +0.000 A 
ATOM      4  C   UNL     1      47.317   6.417  13.129  0.00  0.00    +0.000 A 
ATOM      5  C   UNL     1      47.043   6.950  11.861  0.00  0.00    +0.000 A 
ATOM      6  C   UNL     1      45.920   6.534  11.143  0.00  0.00    +0.000 A 
ENDROOT
BRANCH   1   7
ATOM      7  C   UNL     1      43.880   5.077  10.880  0.00  0.00    +0.000 C 
BRANCH   7  10
ATOM      8  O   UNL     1      44.787   2.507  10.591  0.00  0.00    +0.000 OA
ATOM      9  C   UNL     1      44.747   3.230   9.598  0.00  0.00    +0.000 C 
ATOM     10  N   UNL     1      44.250   4.504   9.610  0.00  0.00    +0.000 N 
ATOM     11  H   UNL     1      44.146   5.040   8.760  0.00  0.00    +0.000 HD
BRANCH   9  12
ATOM     12  C   UNL     1      45.268   2.709   8.291  0.00  0.00    +0.000 C 
ATOM     13  C   UNL     1      45.912   3.584   7.314  0.00  0.00    +0.000 C 
ATOM     14  C   UNL     1      47.009   3.157   6.657  0.00  0.00    +0.000 C 
ATOM     15  C   UNL     1      47.548   1.830   6.917  0.00  0.00    +0.000 C 
ATOM     16  C   UNL     1      46.846   0.992   7.698  0.00  0.00    +0.000 C 
ATOM     17  N   UNL     1      45.658   1.366   8.291  0.00  0.00    +0.000 N 
ATOM     18  H   UNL     1      45.450   0.904   9.179  0.00  0.00    +0.000 HD
ENDBRANCH   9  12
ENDBRANCH   7  10
ENDBRANCH   1   7
BRANCH   4  19
ATOM     19  C   UNL     1      48.547   6.850  13.881  0.00  0.00    +0.000 C 
BRANCH  19  20
ATOM     20  N   UNL     1      48.258   7.033  15.281  0.00  0.00    +0.000 N 
ATOM     21  C   UNL     1      49.173   6.693  16.246  0.00  0.00    +0.000 C 
ATOM     22  O   UNL     1      50.290   6.274  15.961  0.00  0.00    +0.000 OA
ATOM     23  H   UNL     1      47.285   7.164  15.538  0.00  0.00    +0.000 HD
BRANCH  21  24
ATOM     24  C   UNL     1      48.767   6.916  17.639  0.00  0.00    +0.000 A 
ATOM     25  C   UNL     1      48.437   8.197  18.059  0.00  0.00    +0.000 A 
ATOM     26  S   UNL     1      47.934   8.274  19.687  0.00  0.00    +0.000 S 
ATOM     27  C   UNL     1      48.191   6.607  19.903  0.00  0.00    +0.000 A 
ATOM     28  N   UNL     1      47.964   6.015  21.107  0.00  0.00    +0.000 NA
ATOM     29  C   UNL     1      48.228   4.753  21.139  0.00  0.00    +0.000 A 
ATOM     30  N   UNL     1      48.696   4.025  20.075  0.00  0.00    +0.000 N 
ATOM     31  C   UNL     1      48.911   4.572  18.834  0.00  0.00    +0.000 A 
ATOM     32  O   UNL     1      49.290   3.885  17.888  0.00  0.00    +0.000 OA
ATOM     33  C   UNL     1      48.638   5.995  18.745  0.00  0.00    +0.000 A 
ATOM     34  H   UNL     1      48.873   3.036  20.163  0.00  0.00    +0.000 HD
ENDBRANCH  21  24
ENDBRANCH  19  20
ENDBRANCH   4  19
TORSDOF 6
ENDMDL
MODEL 3
REMARK VINA RESULT:    -7.611      2.081      2.513
REMARK INTER + INTRA:         -11.392
REMARK INTER:                 -10.469
REMARK INTRA:                  -0.923
REMARK UNBOUND:                -1.112
REMARK  Name = 
REMARK  6 active torsions:
REMARK  status: ('A' for Active; 'I' for Inactive)
REMARK    1  A    between atoms: C_2  and  C_25
REMARK    2  A    between atoms: N_3  and  C_4
REMARK    3  A    between atoms: C_4  and  C_5
REMARK    4  A    between atoms: C_8  and  C_9
REMARK    5  A    between atoms: C_9  and  N_10
REMARK    6  A    between atoms: C_11  and  C_13
REMARK                            x       y       z     vdW  Elec       q    Type
REMARK                         _______ _______ _______ _____ _____    ______ ____
ROOT
ATOM      1  C   UNL     1      45.296   4.555  12.584  0.00  0.00    +0.000 A 
ATOM      2  C   UNL     1      46.438   4.186  13.309  0.00  0.00    +0.000 A 
ATOM      3  C   UNL     1      47.296   5.160  13.823  0.00  0.00    +0.000 A 
ATOM      4  C   UNL     1      47.017   6.520  13.641  0.00  0.00    +0.000 A 
ATOM      5  C   UNL     1      45.876   6.887  12.914  0.00  0.00    +0.000 A 
ATOM      6  C   UNL     1      45.017   5.913  12.399  0.00  0.00    +0.000 A 
ENDROOT
BRANCH   1   7
ATOM      7  C   UNL     1      44.403   3.504  11.989  0.00  0.00    +0.000 C 
BRANCH   7  10
ATOM      8  O   UNL     1      43.944   4.478   9.469  0.00  0.00    +0.000 OA
ATOM      9  C   UNL     1      44.601   3.447   9.588  0.00  0.00    +0.000 C 
ATOM     10  N   UNL     1      44.950   2.909  10.796  0.00  0.00    +0.000 N 
ATOM     11  H   UNL     1      45.568   2.111  10.862  0.00  0.00    +0.000 HD
BRANCH   9  12
ATOM     12  C   UNL     1      45.055   2.722   8.356  0.00  0.00    +0.000 C 
ATOM     13  C   UNL     1      45.684   3.423   7.238  0.00  0.00    +0.000 C 
ATOM     14  C   UNL     1      46.742   2.867   6.614  0.00  0.00    +0.000 C 
ATOM     15  C   UNL     1      47.252   1.575   7.047  0.00  0.00    +0.000 C 
ATOM     16  C   UNL     1      46.558   0.884   7.967  0.00  0.00    +0.000 C 
ATOM     17  N   UNL     1      45.406   1.381   8.540  0.00  0.00    +0.000 N 
ATOM     18  H   UNL     1      45.221   1.062   9.493  0.00  0.00    +0.000 HD
ENDBRANCH   9  12
ENDBRANCH   7  10
ENDBRANCH   1   7
BRANCH   4  19
ATOM     19  C   UNL     1      47.952   7.577  14.166  0.00  0.00    +0.000 C 
BRANCH  19  20
ATOM     20  N   UNL     1      49.158   6.987  14.687  0.00  0.00    +0.000 N 
ATOM     21  C   UNL     1      49.679   7.382  15.893  0.00  0.00    +0.000 C 
ATOM     22  O   UNL     1      49.115   8.209  16.603  0.00  0.00    +0.000 OA
ATOM     23  H   UNL     1      49.743   6.478  14.032  0.00  0.00    +0.000 HD
BRANCH  21  24
ATOM     24  C   UNL     1      50.916   6.718  16.321  0.00  0.00    +0.000 A 
ATOM     25  C   UNL     1      52.141   7.316  16.057  0.00  0.00    +0.000 A 
ATOM     26  S   UNL     1      53.473   6.445  16.669  0.00  0.00    +0.000 S 
ATOM     27  C   UNL     1      52.464   5.211  17.262  0.00  0.00    +0.000 A 
ATOM     28  N   UNL     1      52.986   4.126  17.896  0.00  0.00    +0.000 NA
ATOM     29  C   UNL     1      52.112   3.253  18.267  0.00  0.00    +0.000 A 
ATOM     30  N   UNL     1      50.760   3.367  18.066  0.00  0.00    +0.000 N 
ATOM     31  C   UNL     1      50.185   4.457  17.460  0.00  0.00    +0.000 A 
ATOM     32  O   UNL     1      48.967   4.551  17.332  0.00  0.00    +0.000 OA
ATOM     33  C   UNL     1      51.128   5.467  17.012  0.00  0.00    +0.000 A 
ATOM     34  H   UNL     1      50.127   2.652  18.391  0.00  0.00    +0.000 HD
ENDBRANCH  21  24
ENDBRANCH  19  20
ENDBRANCH   4  19
TORSDOF 6
ENDMDL
MODEL 4
REMARK VINA RESULT:    -7.412      1.958      2.641
REMARK INTER + INTRA:         -11.124
REMARK INTER:                 -10.068
REMARK INTRA:                  -1.055
REMARK UNBOUND:                -1.112
REMARK  Name = 
REMARK  6 active torsions:
REMARK  status: ('A' for Active; 'I' for Inactive)
REMARK    1  A    between atoms: C_2  and  C_25
REMARK    2  A    between atoms: N_3  and  C_4
REMARK    3  A    between atoms: C_4  and  C_5
REMARK    4  A    between atoms: C_8  and  C_9
REMARK    5  A    between atoms: C_9  and  N_10
REMARK    6  A    between atoms: C_11  and  C_13
REMARK                            x       y       z     vdW  Elec       q    Type
REMARK                         _______ _______ _______ _____ _____    ______ ____
ROOT
ATOM      1  C   UNL     1      45.310   6.449  12.005  0.00  0.00    +0.000 A 
ATOM      2  C   UNL     1      45.295   7.780  12.446  0.00  0.00    +0.000 A 
ATOM      3  C   UNL     1      46.384   8.307  13.142  0.00  0.00    +0.000 A 
ATOM      4  C   UNL     1      47.517   7.523  13.390  0.00  0.00    +0.000 A 
ATOM      5  C   UNL     1      47.530   6.192  12.950  0.00  0.00    +0.000 A 
ATOM      6  C   UNL     1      46.441   5.663  12.254  0.00  0.00    +0.000 A 
ENDROOT
BRANCH   1   7
ATOM      7  C   UNL     1      44.117   5.869  11.301  0.00  0.00    +0.000 C 
BRANCH   7  10
ATOM      8  O   UNL     1      43.471   3.262  10.756  0.00  0.00    +0.000 OA
ATOM      9  C   UNL     1      44.136   3.886   9.932  0.00  0.00    +0.000 C 
ATOM     10  N   UNL     1      44.458   5.209  10.067  0.00  0.00    +0.000 N 
ATOM     11  H   UNL     1      44.927   5.717   9.329  0.00  0.00    +0.000 HD
BRANCH   9  12
ATOM     12  C   UNL     1      44.635   3.179   8.707  0.00  0.00    +0.000 C 
ATOM     13  C   UNL     1      45.454   3.858   7.705  0.00  0.00    +0.000 C 
ATOM     14  C   UNL     1      46.503   3.214   7.155  0.00  0.00    +0.000 C 
ATOM     15  C   UNL     1      46.815   1.849   7.553  0.00  0.00    +0.000 C 
ATOM     16  C   UNL     1      45.953   1.198   8.352  0.00  0.00    +0.000 C 
ATOM     17  N   UNL     1      44.810   1.798   8.837  0.00  0.00    +0.000 N 
ATOM     18  H   UNL     1      44.489   1.453   9.744  0.00  0.00    +0.000 HD
ENDBRANCH   9  12
ENDBRANCH   7  10
ENDBRANCH   1   7
BRANCH   4  19
ATOM     19  C   UNL     1      48.684   8.075  14.165  0.00  0.00    +0.000 C 
BRANCH  19  20
ATOM     20  N   UNL     1      49.131   7.136  15.163  0.00  0.00    +0.000 N 
ATOM     21  C   UNL     1      48.955   7.382  16.500  0.00  0.00    +0.000 C 
ATOM     22  O   UNL     1      48.362   8.378  16.904  0.00  0.00    +0.000 OA
ATOM     23  H   UNL     1      49.803   6.435  14.867  0.00  0.00    +0.000 HD
BRANCH  21  24
ATOM     24  C   UNL     1      49.458   6.360  17.426  0.00  0.00    +0.000 A 
ATOM     25  C   UNL     1      48.605   5.821  18.380  0.00  0.00    +0.000 A 
ATOM     26  S   UNL     1      49.327   4.608  19.336  0.00  0.00    +0.000 S 
ATOM     27  C   UNL     1      50.821   4.796  18.544  0.00  0.00    +0.000 A 
ATOM     28  N   UNL     1      51.901   4.051  18.904  0.00  0.00    +0.000 NA
ATOM     29  C   UNL     1      52.977   4.318  18.243  0.00  0.00    +0.000 A 
ATOM     30  N   UNL     1      53.071   5.259  17.251  0.00  0.00    +0.000 N 
ATOM     31  C   UNL     1      52.001   6.013  16.833  0.00  0.00    +0.000 A 
ATOM     32  O   UNL     1      52.106   6.819  15.912  0.00  0.00    +0.000 OA
ATOM     33  C   UNL     1      50.766   5.760  17.553  0.00  0.00    +0.000 A 
ATOM     34  H   UNL     1      53.941   5.412  16.764  0.00  0.00    +0.000 HD
ENDBRANCH  21  24
ENDBRANCH  19  20
ENDBRANCH   4  19
TORSDOF 6
ENDMDL
MODEL 5
REMARK VINA RESULT:    -7.119      4.906      9.488
REMARK INTER + INTRA:         -10.729
REMARK INTER:                  -9.855
REMARK INTRA:                  -0.874
REMARK UNBOUND:                -1.112
REMARK  Name = 
REMARK  6 active torsions:
REMARK  status: ('A' for Active; 'I' for Inactive)
REMARK    1  A    between atoms: C_2  and  C_25
REMARK    2  A    between atoms: N_3  and  C_4
REMARK    3  A    between atoms: C_4  and  C_5
REMARK    4  A    between atoms: C_8  and  C_9
REMARK    5  A    between atoms: C_9  and  N_10
REMARK    6  A    between atoms: C_11  and  C_13
REMARK                            x       y       z     vdW  Elec       q    Type
REMARK                         _______ _______ _______ _____ _____    ______ ____
ROOT
ATOM      1  C   UNL     1      51.417   3.413  17.748  0.00  0.00    +0.000 A 
ATOM      2  C   UNL     1      50.635   4.557  17.957  0.00  0.00    +0.000 A 
ATOM      3  C   UNL     1      49.263   4.534  17.702  0.00  0.00    +0.000 A 
ATOM      4  C   UNL     1      48.643   3.360  17.258  0.00  0.00    +0.000 A 
ATOM      5  C   UNL     1      49.426   2.216  17.048  0.00  0.00    +0.000 A 
ATOM      6  C   UNL     1      50.799   2.239  17.302  0.00  0.00    +0.000 A 
ENDROOT
BRANCH   1   7
ATOM      7  C   UNL     1      52.902   3.455  17.974  0.00  0.00    +0.000 C 
BRANCH   7  10
ATOM      8  O   UNL     1      54.245   1.880  19.770  0.00  0.00    +0.000 OA
ATOM      9  C   UNL     1      54.253   1.556  18.584  0.00  0.00    +0.000 C 
ATOM     10  N   UNL     1      53.562   2.226  17.613  0.00  0.00    +0.000 N 
ATOM     11  H   UNL     1      53.514   1.881  16.664  0.00  0.00    +0.000 HD
BRANCH   9  12
ATOM     12  C   UNL     1      55.058   0.365  18.156  0.00  0.00    +0.000 C 
ATOM     13  C   UNL     1      54.976  -0.913  18.860  0.00  0.00    +0.000 C 
ATOM     14  C   UNL     1      54.954  -2.062  18.154  0.00  0.00    +0.000 C 
ATOM     15  C   UNL     1      55.017  -2.030  16.701  0.00  0.00    +0.000 C 
ATOM     16  C   UNL     1      55.254  -0.855  16.092  0.00  0.00    +0.000 C 
ATOM     17  N   UNL     1      55.395   0.320  16.800  0.00  0.00    +0.000 N 
ATOM     18  H   UNL     1      55.105   1.165  16.303  0.00  0.00    +0.000 HD
ENDBRANCH   9  12
ENDBRANCH   7  10
ENDBRANCH   1   7
BRANCH   4  19
ATOM     19  C   UNL     1      47.168   3.334  16.952  0.00  0.00    +0.000 C 
BRANCH  19  20
ATOM     20  N   UNL     1      46.823   4.343  15.984  0.00  0.00    +0.000 N 
ATOM     21  C   UNL     1      46.962   4.114  14.638  0.00  0.00    +0.000 C 
ATOM     22  O   UNL     1      47.330   3.028  14.200  0.00  0.00    +0.000 OA
ATOM     23  H   UNL     1      46.734   5.296  16.323  0.00  0.00    +0.000 HD
BRANCH  21  24
ATOM     24  C   UNL     1      46.588   5.216  13.745  0.00  0.00    +0.000 A 
ATOM     25  C   UNL     1      47.479   6.260  13.535  0.00  0.00    +0.000 A 
ATOM     26  S   UNL     1      46.916   7.429  12.428  0.00  0.00    +0.000 S 
ATOM     27  C   UNL     1      45.439   6.608  12.229  0.00  0.00    +0.000 A 
ATOM     28  N   UNL     1      44.472   7.099  11.408  0.00  0.00    +0.000 NA
ATOM     29  C   UNL     1      43.392   6.394  11.375  0.00  0.00    +0.000 A 
ATOM     30  N   UNL     1      43.191   5.239  12.085  0.00  0.00    +0.000 N 
ATOM     31  C   UNL     1      44.148   4.689  12.902  0.00  0.00    +0.000 A 
ATOM     32  O   UNL     1      43.955   3.629  13.493  0.00  0.00    +0.000 OA
ATOM     33  C   UNL     1      45.382   5.450  12.984  0.00  0.00    +0.000 A 
ATOM     34  H   UNL     1      42.325   4.728  12.006  0.00  0.00    +0.000 HD
ENDBRANCH  21  24
ENDBRANCH  19  20
ENDBRANCH   4  19
TORSDOF 6
ENDMDL
MODEL 6
REMARK VINA RESULT:    -7.114      3.707      5.156
REMARK INTER + INTRA:         -10.722
REMARK INTER:                  -9.677
REMARK INTRA:                  -1.045
REMARK UNBOUND:                -1.112
REMARK  Name = 
REMARK  6 active torsions:
REMARK  status: ('A' for Active; 'I' for Inactive)
REMARK    1  A    between atoms: C_2  and  C_25
REMARK    2  A    between atoms: N_3  and  C_4
REMARK    3  A    between atoms: C_4  and  C_5
REMARK    4  A    between atoms: C_8  and  C_9
REMARK    5  A    between atoms: C_9  and  N_10
REMARK    6  A    between atoms: C_11  and  C_13
REMARK                            x       y       z     vdW  Elec       q    Type
REMARK                         _______ _______ _______ _____ _____    ______ ____
ROOT
ATOM      1  C   UNL     1      46.218   4.853  13.209  0.00  0.00    +0.000 A 
ATOM      2  C   UNL     1      46.681   6.003  12.554  0.00  0.00    +0.000 A 
ATOM      3  C   UNL     1      47.646   6.817  13.150  0.00  0.00    +0.000 A 
ATOM      4  C   UNL     1      48.184   6.484  14.398  0.00  0.00    +0.000 A 
ATOM      5  C   UNL     1      47.720   5.335  15.053  0.00  0.00    +0.000 A 
ATOM      6  C   UNL     1      46.754   4.520  14.458  0.00  0.00    +0.000 A 
ENDROOT
BRANCH   1   7
ATOM      7  C   UNL     1      45.143   4.007  12.589  0.00  0.00    +0.000 C 
BRANCH   7  10
ATOM      8  O   UNL     1      43.359   2.658  11.005  0.00  0.00    +0.000 OA
ATOM      9  C   UNL     1      44.410   3.051  10.502  0.00  0.00    +0.000 C 
ATOM     10  N   UNL     1      45.340   3.792  11.178  0.00  0.00    +0.000 N 
ATOM     11  H   UNL     1      46.149   4.178  10.711  0.00  0.00    +0.000 HD
BRANCH   9  12
ATOM     12  C   UNL     1      44.710   2.709   9.072  0.00  0.00    +0.000 C 
ATOM     13  C   UNL     1      45.032   3.738   8.086  0.00  0.00    +0.000 C 
ATOM     14  C   UNL     1      46.014   3.516   7.189  0.00  0.00    +0.000 C 
ATOM     15  C   UNL     1      46.746   2.259   7.200  0.00  0.00    +0.000 C 
ATOM     16  C   UNL     1      46.322   1.274   8.010  0.00  0.00    +0.000 C 
ATOM     17  N   UNL     1      45.246   1.436   8.857  0.00  0.00    +0.000 N 
ATOM     18  H   UNL     1      45.281   0.882   9.715  0.00  0.00    +0.000 HD
ENDBRANCH   9  12
ENDBRANCH   7  10
ENDBRANCH   1   7
BRANCH   4  19
ATOM     19  C   UNL     1      49.204   7.372  15.061  0.00  0.00    +0.000 C 
BRANCH  19  20
ATOM     20  N   UNL     1      50.414   7.440  14.282  0.00  0.00    +0.000 N 
ATOM     21  C   UNL     1      51.021   8.641  14.016  0.00  0.00    +0.000 C 
ATOM     22  O   UNL     1      50.598   9.697  14.475  0.00  0.00    +0.000 OA
ATOM     23  H   UNL     1      50.649   6.626  13.723  0.00  0.00    +0.000 HD
BRANCH  21  24
ATOM     24  C   UNL     1      52.244   8.591  13.205  0.00  0.00    +0.000 A 
ATOM     25  C   UNL     1      53.449   9.006  13.756  0.00  0.00    +0.000 A 
ATOM     26  S   UNL     1      54.779   8.831  12.704  0.00  0.00    +0.000 S 
ATOM     27  C   UNL     1      53.784   8.243  11.456  0.00  0.00    +0.000 A 
ATOM     28  N   UNL     1      54.306   7.913  10.244  0.00  0.00    +0.000 NA
ATOM     29  C   UNL     1      53.435   7.511   9.380  0.00  0.00    +0.000 A 
ATOM     30  N   UNL     1      52.090   7.405   9.618  0.00  0.00    +0.000 N 
ATOM     31  C   UNL     1      51.522   7.699  10.834  0.00  0.00    +0.000 A 
ATOM     32  O   UNL     1      50.318   7.553  11.031  0.00  0.00    +0.000 OA
ATOM     33  C   UNL     1      52.458   8.166  11.841  0.00  0.00    +0.000 A 
ATOM     34  H   UNL     1      51.462   7.074   8.902  0.00  0.00    +0.000 HD
ENDBRANCH  21  24
ENDBRANCH  19  20
ENDBRANCH   4  19
TORSDOF 6
ENDMDL
MODEL 7
REMARK VINA RESULT:    -6.978      4.055      8.723
REMARK INTER + INTRA:         -10.537
REMARK INTER:                  -9.522
REMARK INTRA:                  -1.015
REMARK UNBOUND:                -1.112
REMARK  Name = 
REMARK  6 active torsions:
REMARK  status: ('A' for Active; 'I' for Inactive)
REMARK    1  A    between atoms: C_2  and  C_25
REMARK    2  A    between atoms: N_3  and  C_4
REMARK    3  A    between atoms: C_4  and  C_5
REMARK    4  A    between atoms: C_8  and  C_9
REMARK    5  A    between atoms: C_9  and  N_10
REMARK    6  A    between atoms: C_11  and  C_13
REMARK                            x       y       z     vdW  Elec       q    Type
REMARK                         _______ _______ _______ _____ _____    ______ ____
ROOT
ATOM      1  C   UNL     1      49.712   4.575  17.516  0.00  0.00    +0.000 A 
ATOM      2  C   UNL     1      50.468   5.712  17.198  0.00  0.00    +0.000 A 
ATOM      3  C   UNL     1      50.005   6.628  16.251  0.00  0.00    +0.000 A 
ATOM      4  C   UNL     1      48.769   6.438  15.623  0.00  0.00    +0.000 A 
ATOM      5  C   UNL     1      48.014   5.300  15.942  0.00  0.00    +0.000 A 
ATOM      6  C   UNL     1      48.476   4.383  16.888  0.00  0.00    +0.000 A 
ENDROOT
BRANCH   1   7
ATOM      7  C   UNL     1      50.235   3.565  18.497  0.00  0.00    +0.000 C 
BRANCH   7  10
ATOM      8  O   UNL     1      50.828   1.194  17.257  0.00  0.00    +0.000 OA
ATOM      9  C   UNL     1      51.756   1.906  17.635  0.00  0.00    +0.000 C 
ATOM     10  N   UNL     1      51.580   3.138  18.202  0.00  0.00    +0.000 N 
ATOM     11  H   UNL     1      52.364   3.738  18.418  0.00  0.00    +0.000 HD
BRANCH   9  12
ATOM     12  C   UNL     1      53.165   1.417  17.478  0.00  0.00    +0.000 C 
ATOM     13  C   UNL     1      54.292   2.097  18.112  0.00  0.00    +0.000 C 
ATOM     14  C   UNL     1      55.275   1.370  18.680  0.00  0.00    +0.000 C 
ATOM     15  C   UNL     1      55.218  -0.083  18.658  0.00  0.00    +0.000 C 
ATOM     16  C   UNL     1      54.257  -0.679  17.931  0.00  0.00    +0.000 C 
ATOM     17  N   UNL     1      53.304   0.046  17.245  0.00  0.00    +0.000 N 
ATOM     18  H   UNL     1      52.401  -0.420  17.133  0.00  0.00    +0.000 HD
ENDBRANCH   9  12
ENDBRANCH   7  10
ENDBRANCH   1   7
BRANCH   4  19
ATOM     19  C   UNL     1      48.275   7.405  14.580  0.00  0.00    +0.000 C 
BRANCH  19  20
ATOM     20  N   UNL     1      47.037   6.952  14.000  0.00  0.00    +0.000 N 
ATOM     21  C   UNL     1      46.947   6.645  12.666  0.00  0.00    +0.000 C 
ATOM     22  O   UNL     1      47.923   6.687  11.924  0.00  0.00    +0.000 OA
ATOM     23  H   UNL     1      46.189   7.120  14.533  0.00  0.00    +0.000 HD
BRANCH  21  24
ATOM     24  C   UNL     1      45.634   6.201  12.183  0.00  0.00    +0.000 A 
ATOM     25  C   UNL     1      44.767   7.123  11.613  0.00  0.00    +0.000 A 
ATOM     26  S   UNL     1      43.309   6.437  11.053  0.00  0.00    +0.000 S 
ATOM     27  C   UNL     1      43.763   4.892  11.602  0.00  0.00    +0.000 A 
ATOM     28  N   UNL     1      42.933   3.824  11.448  0.00  0.00    +0.000 NA
ATOM     29  C   UNL     1      43.388   2.720  11.937  0.00  0.00    +0.000 A 
ATOM     30  N   UNL     1      44.600   2.584  12.562  0.00  0.00    +0.000 N 
ATOM     31  C   UNL     1      45.483   3.624  12.713  0.00  0.00    +0.000 A 
ATOM     32  O   UNL     1      46.582   3.462  13.240  0.00  0.00    +0.000 OA
ATOM     33  C   UNL     1      45.015   4.895  12.189  0.00  0.00    +0.000 A 
ATOM     34  H   UNL     1      44.903   1.688  12.913  0.00  0.00    +0.000 HD
ENDBRANCH  21  24
ENDBRANCH  19  20
ENDBRANCH   4  19
TORSDOF 6
ENDMDL
MODEL 8
REMARK VINA RESULT:    -6.925      2.057      2.657
REMARK INTER + INTRA:         -10.465
REMARK INTER:                  -9.537
REMARK INTRA:                  -0.929
REMARK UNBOUND:                -1.112
REMARK  Name = 
REMARK  6 active torsions:
REMARK  status: ('A' for Active; 'I' for Inactive)
REMARK    1  A    between atoms: C_2  and  C_25
REMARK    2  A    between atoms: N_3  and  C_4
REMARK    3  A    between atoms: C_4  and  C_5
REMARK    4  A    between atoms: C_8  and  C_9
REMARK    5  A    between atoms: C_9  and  N_10
REMARK    6  A    between atoms: C_11  and  C_13
REMARK                            x       y       z     vdW  Elec       q    Type
REMARK                         _______ _______ _______ _____ _____    ______ ____
ROOT
ATOM      1  C   UNL     1      46.075   7.355  12.164  0.00  0.00    +0.000 A 
ATOM      2  C   UNL     1      46.243   8.319  13.168  0.00  0.00    +0.000 A 
ATOM      3  C   UNL     1      47.518   8.781  13.500  0.00  0.00    +0.000 A 
ATOM      4  C   UNL     1      48.646   8.306  12.819  0.00  0.00    +0.000 A 
ATOM      5  C   UNL     1      48.476   7.340  11.817  0.00  0.00    +0.000 A 
ATOM      6  C   UNL     1      47.201   6.877  11.485  0.00  0.00    +0.000 A 
ENDROOT
BRANCH   1   7
ATOM      7  C   UNL     1      44.707   6.823  11.843  0.00  0.00    +0.000 C 
BRANCH   7  10
ATOM      8  O   UNL     1      44.536   4.091  11.710  0.00  0.00    +0.000 OA
ATOM      9  C   UNL     1      44.641   4.725  10.662  0.00  0.00    +0.000 C 
ATOM     10  N   UNL     1      44.665   6.090  10.603  0.00  0.00    +0.000 N 
ATOM     11  H   UNL     1      44.659   6.583   9.720  0.00  0.00    +0.000 HD
BRANCH   9  12
ATOM     12  C   UNL     1      44.752   3.979   9.365  0.00  0.00    +0.000 C 
ATOM     13  C   UNL     1      45.641   4.424   8.294  0.00  0.00    +0.000 C 
ATOM     14  C   UNL     1      46.360   3.516   7.604  0.00  0.00    +0.000 C 
ATOM     15  C   UNL     1      46.248   2.100   7.920  0.00  0.00    +0.000 C 
ATOM     16  C   UNL     1      45.307   1.708   8.796  0.00  0.00    +0.000 C 
ATOM     17  N   UNL     1      44.479   2.610   9.432  0.00  0.00    +0.000 N 
ATOM     18  H   UNL     1      44.158   2.326  10.359  0.00  0.00    +0.000 HD
ENDBRANCH   9  12
ENDBRANCH   7  10
ENDBRANCH   1   7
BRANCH   4  19
ATOM     19  C   UNL     1      50.027   8.776  13.191  0.00  0.00    +0.000 C 
BRANCH  19  20
ATOM     20  N   UNL     1      50.698   7.804  14.018  0.00  0.00    +0.000 N 
ATOM     21  C   UNL     1      51.018   8.081  15.322  0.00  0.00    +0.000 C 
ATOM     22  O   UNL     1      50.699   9.138  15.857  0.00  0.00    +0.000 OA
ATOM     23  H   UNL     1      51.156   7.033  13.543  0.00  0.00    +0.000 HD
BRANCH  21  24
ATOM     24  C   UNL     1      51.708   7.021  16.066  0.00  0.00    +0.000 A 
ATOM     25  C   UNL     1      53.095   7.011  16.117  0.00  0.00    +0.000 A 
ATOM     26  S   UNL     1      53.736   5.748  17.067  0.00  0.00    +0.000 S 
ATOM     27  C   UNL     1      52.184   5.138  17.401  0.00  0.00    +0.000 A 
ATOM     28  N   UNL     1      52.021   4.025  18.166  0.00  0.00    +0.000 NA
ATOM     29  C   UNL     1      50.794   3.654  18.313  0.00  0.00    +0.000 A 
ATOM     30  N   UNL     1      49.713   4.297  17.769  0.00  0.00    +0.000 N 
ATOM     31  C   UNL     1      49.826   5.440  17.016  0.00  0.00    +0.000 A 
ATOM     32  O   UNL     1      48.835   6.019  16.576  0.00  0.00    +0.000 OA
ATOM     33  C   UNL     1      51.189   5.895  16.810  0.00  0.00    +0.000 A 
ATOM     34  H   UNL     1      48.776   3.961  17.931  0.00  0.00    +0.000 HD
ENDBRANCH  21  24
ENDBRANCH  19  20
ENDBRANCH   4  19
TORSDOF 6
ENDMDL
MODEL 9
REMARK VINA RESULT:    -6.546      4.841      7.634
REMARK INTER + INTRA:          -9.954
REMARK INTER:                  -8.991
REMARK INTRA:                  -0.963
REMARK UNBOUND:                -1.112
REMARK  Name = 
REMARK  6 active torsions:
REMARK  status: ('A' for Active; 'I' for Inactive)
REMARK    1  A    between atoms: C_2  and  C_25
REMARK    2  A    between atoms: N_3  and  C_4
REMARK    3  A    between atoms: C_4  and  C_5
REMARK    4  A    between atoms: C_8  and  C_9
REMARK    5  A    between atoms: C_9  and  N_10
REMARK    6  A    between atoms: C_11  and  C_13
REMARK                            x       y       z     vdW  Elec       q    Type
REMARK                         _______ _______ _______ _____ _____    ______ ____
ROOT
ATOM      1  C   UNL     1      50.508   8.862  11.494  0.00  0.00    +0.000 A 
ATOM      2  C   UNL     1      50.130   7.599  11.972  0.00  0.00    +0.000 A 
ATOM      3  C   UNL     1      48.829   7.373  12.423  0.00  0.00    +0.000 A 
ATOM      4  C   UNL     1      47.875   8.397  12.383  0.00  0.00    +0.000 A 
ATOM      5  C   UNL     1      48.254   9.659  11.906  0.00  0.00    +0.000 A 
ATOM      6  C   UNL     1      49.556   9.887  11.456  0.00  0.00    +0.000 A 
ENDROOT
BRANCH   1   7
ATOM      7  C   UNL     1      51.922   9.117  11.057  0.00  0.00    +0.000 C 
BRANCH   7  10
ATOM      8  O   UNL     1      53.997   7.326  11.075  0.00  0.00    +0.000 OA
ATOM      9  C   UNL     1      53.397   7.519  10.019  0.00  0.00    +0.000 C 
ATOM     10  N   UNL     1      52.306   8.335   9.909  0.00  0.00    +0.000 N 
ATOM     11  H   UNL     1      51.779   8.402   9.048  0.00  0.00    +0.000 HD
BRANCH   9  12
ATOM     12  C   UNL     1      53.872   6.833   8.772  0.00  0.00    +0.000 C 
ATOM     13  C   UNL     1      54.843   5.742   8.816  0.00  0.00    +0.000 C 
ATOM     14  C   UNL     1      54.675   4.668   8.017  0.00  0.00    +0.000 C 
ATOM     15  C   UNL     1      53.536   4.598   7.114  0.00  0.00    +0.000 C 
ATOM     16  C   UNL     1      52.753   5.682   6.980  0.00  0.00    +0.000 C 
ATOM     17  N   UNL     1      52.972   6.837   7.703  0.00  0.00    +0.000 N 
ATOM     18  H   UNL     1      52.136   7.389   7.905  0.00  0.00    +0.000 HD
ENDBRANCH   9  12
ENDBRANCH   7  10
ENDBRANCH   1   7
BRANCH   4  19
ATOM     19  C   UNL     1      46.477   8.170  12.895  0.00  0.00    +0.000 C 
BRANCH  19  20
ATOM     20  N   UNL     1      46.014   6.846  12.565  0.00  0.00    +0.000 N 
ATOM     21  C   UNL     1      44.988   6.652  11.676  0.00  0.00    +0.000 C 
ATOM     22  O   UNL     1      44.459   7.587  11.083  0.00  0.00    +0.000 OA
ATOM     23  H   UNL     1      46.280   6.095  13.195  0.00  0.00    +0.000 HD
BRANCH  21  24
ATOM     24  C   UNL     1      44.595   5.261  11.423  0.00  0.00    +0.000 A 
ATOM     25  C   UNL     1      43.852   4.575  12.373  0.00  0.00    +0.000 A 
ATOM     26  S   UNL     1      43.430   2.992  11.901  0.00  0.00    +0.000 S 
ATOM     27  C   UNL     1      44.271   3.148  10.431  0.00  0.00    +0.000 A 
ATOM     28  N   UNL     1      44.325   2.117   9.544  0.00  0.00    +0.000 NA
ATOM     29  C   UNL     1      45.022   2.361   8.486  0.00  0.00    +0.000 A 
ATOM     30  N   UNL     1      45.667   3.543   8.230  0.00  0.00    +0.000 N 
ATOM     31  C   UNL     1      45.616   4.620   9.080  0.00  0.00    +0.000 A 
ATOM     32  O   UNL     1      46.169   5.682   8.803  0.00  0.00    +0.000 OA
ATOM     33  C   UNL     1      44.852   4.396  10.294  0.00  0.00    +0.000 A 
ATOM     34  H   UNL     1      46.187   3.673   7.375  0.00  0.00    +0.000 HD
ENDBRANCH  21  24
ENDBRANCH  19  20
ENDBRANCH   4  19
TORSDOF 6
ENDMDL
