MODEL 1
REMARK VINA RESULT:    -7.310      0.000      0.000
REMARK INTER + INTRA:         -13.278
REMARK INTER:                 -11.369
REMARK INTRA:                  -1.909
REMARK UNBOUND:                -1.909
REMARK  Name = 
REMARK  10 active torsions:
REMARK  status: ('A' for Active; 'I' for Inactive)
REMARK    1  A    between atoms: C_2  and  C_4
REMARK    2  A    between atoms: C_4  and  C_5
REMARK    3  A    between atoms: C_5  and  N_6
REMARK    4  A    between atoms: N_6  and  C_7
REMARK    5  A    between atoms: C_7  and  C_8
REMARK    6  A    between atoms: C_7  and  C_20
REMARK    7  A    between atoms: C_8  and  C_10
REMARK    8  A    between atoms: C_23  and  C_24
REMARK    9  A    between atoms: C_24  and  N_25
REMARK   10  A    between atoms: C_28  and  N_29
REMARK                            x       y       z     vdW  Elec       q    Type
REMARK                         _______ _______ _______ _____ _____    ______ ____
ROOT
ATOM      1  C   UNL     1      47.169   5.575  14.733  0.00  0.00    +0.000 C 
ENDROOT
BRANCH   1   2
ATOM      2  C   UNL     1      46.257   5.278  13.551  0.00  0.00    +0.000 A 
ATOM      3  C   UNL     1      46.068   3.951  13.142  0.00  0.00    +0.000 A 
ATOM      4  C   UNL     1      45.231   3.650  12.066  0.00  0.00    +0.000 A 
ATOM      5  C   UNL     1      44.552   4.662  11.379  0.00  0.00    +0.000 A 
ATOM      6  C   UNL     1      44.757   5.993  11.770  0.00  0.00    +0.000 A 
ATOM      7  C   UNL     1      45.618   6.299  12.827  0.00  0.00    +0.000 A 
BRANCH   5   8
ATOM      8  C   UNL     1      43.625   4.334  10.223  0.00  0.00    +0.000 C 
BRANCH   8   9
ATOM      9  N   UNL     1      44.309   3.962   8.980  0.00  0.00    +0.000 NA
ATOM     10  C   UNL     1      44.550   2.522   8.846  0.00  0.00    +0.000 C 
ATOM     11  C   UNL     1      45.997   2.329   8.406  0.00  0.00    +0.000 C 
ATOM     12  C   UNL     1      46.523   3.715   8.067  0.00  0.00    +0.000 C 
ATOM     13  C   UNL     1      45.619   4.640   8.890  0.00  0.00    +0.000 C 
BRANCH  12  14
ATOM     14  N   UNL     1      46.446   3.988   6.630  0.00  0.00    +0.000 NA
ATOM     15  H   UNL     1      47.348   3.773   6.210  0.00  0.00    +0.000 HD
ATOM     16  H   UNL     1      46.282   4.981   6.479  0.00  0.00    +0.000 HD
ENDBRANCH  12  14
ENDBRANCH   8   9
ENDBRANCH   5   8
ENDBRANCH   1   2
BRANCH   1  17
ATOM     17  N   UNL     1      47.619   4.304  15.338  0.00  0.00    +0.000 NA
ATOM     18  H   UNL     1      47.278   3.528  14.768  0.00  0.00    +0.000 HD
BRANCH  17  19
ATOM     19  C   UNL     1      47.198   4.122  16.726  0.00  0.00    +0.000 C 
BRANCH  19  20
ATOM     20  C   UNL     1      47.635   2.751  17.241  0.00  0.00    +0.000 C 
BRANCH  20  22
ATOM     21  N   UNL     1      49.996   2.741  17.882  0.00  0.00    +0.000 N 
ATOM     22  C   UNL     1      49.076   2.417  16.928  0.00  0.00    +0.000 C 
ATOM     23  O   UNL     1      49.413   1.817  15.911  0.00  0.00    +0.000 OA
ATOM     24  H   UNL     1      50.959   2.624  17.592  0.00  0.00    +0.000 HD
ATOM     25  H   UNL     1      49.828   3.523  18.502  0.00  0.00    +0.000 HD
ENDBRANCH  20  22
ENDBRANCH  19  20
ENDBRANCH  17  19
ENDBRANCH   1  17
BRANCH   1  26
ATOM     26  C   UNL     1      48.350   6.501  14.314  0.00  0.00    +0.000 C 
ATOM     27  O   UNL     1      49.038   6.290  13.314  0.00  0.00    +0.000 OA
BRANCH  26  28
ATOM     28  C   UNL     1      48.680   7.635  15.195  0.00  0.00    +0.000 A 
ATOM     29  C   UNL     1      48.319   8.949  14.946  0.00  0.00    +0.000 A 
ATOM     30  S   UNL     1      48.663   9.995  16.256  0.00  0.00    +0.000 S 
ATOM     31  C   UNL     1      49.336   8.724  17.168  0.00  0.00    +0.000 A 
ATOM     32  N   UNL     1      49.776   8.917  18.439  0.00  0.00    +0.000 NA
ATOM     33  C   UNL     1      50.263   7.855  18.995  0.00  0.00    +0.000 A 
ATOM     34  N   UNL     1      50.382   6.632  18.384  0.00  0.00    +0.000 N 
ATOM     35  C   UNL     1      50.057   6.422  17.064  0.00  0.00    +0.000 A 
ATOM     36  O   UNL     1      50.412   5.410  16.470  0.00  0.00    +0.000 OA
ATOM     37  C   UNL     1      49.372   7.544  16.450  0.00  0.00    +0.000 A 
ATOM     38  H   UNL     1      50.867   5.873  18.840  0.00  0.00    +0.000 HD
ENDBRANCH  26  28
ENDBRANCH   1  26
TORSDOF 10
ENDMDL
MODEL 2
REMARK VINA RESULT:    -6.709      1.488      2.471
REMARK INTER + INTRA:         -12.344
REMARK INTER:                 -11.115
REMARK INTRA:                  -1.229
REMARK UNBOUND:                -1.909
REMARK  Name = 
REMARK  10 active torsions:
REMARK  status: ('A' for Active; 'I' for Inactive)
REMARK    1  A    between atoms: C_2  and  C_4
REMARK    2  A    between atoms: C_4  and  C_5
REMARK    3  A    between atoms: C_5  and  N_6
REMARK    4  A    between atoms: N_6  and  C_7
REMARK    5  A    between atoms: C_7  and  C_8
REMARK    6  A    between atoms: C_7  and  C_20
REMARK    7  A    between atoms: C_8  and  C_10
REMARK    8  A    between atoms: C_23  and  C_24
REMARK    9  A    between atoms: C_24  and  N_25
REMARK   10  A    between atoms: C_28  and  N_29
REMARK                            x       y       z     vdW  Elec       q    Type
REMARK                         _______ _______ _______ _____ _____    ______ ____
ROOT
ATOM      1  C   UNL     1      47.160   5.468  14.476  0.00  0.00    +0.000 C 
ENDROOT
BRANCH   1   2
ATOM      2  C   UNL     1      46.256   5.146  13.294  0.00  0.00    +0.000 A 
ATOM      3  C   UNL     1      45.695   6.191  12.549  0.00  0.00    +0.000 A 
ATOM      4  C   UNL     1      44.869   5.923  11.457  0.00  0.00    +0.000 A 
ATOM      5  C   UNL     1      44.590   4.608  11.072  0.00  0.00    +0.000 A 
ATOM      6  C   UNL     1      45.129   3.558  11.830  0.00  0.00    +0.000 A 
ATOM      7  C   UNL     1      45.931   3.824  12.942  0.00  0.00    +0.000 A 
BRANCH   5   8
ATOM      8  C   UNL     1      43.709   4.316   9.872  0.00  0.00    +0.000 C 
BRANCH   8   9
ATOM      9  N   UNL     1      44.441   3.975   8.647  0.00  0.00    +0.000 NA
ATOM     10  C   UNL     1      44.703   2.540   8.497  0.00  0.00    +0.000 C 
ATOM     11  C   UNL     1      46.167   2.371   8.106  0.00  0.00    +0.000 C 
ATOM     12  C   UNL     1      46.689   3.768   7.810  0.00  0.00    +0.000 C 
ATOM     13  C   UNL     1      45.745   4.669   8.616  0.00  0.00    +0.000 C 
BRANCH  12  14
ATOM     14  N   UNL     1      46.660   4.066   6.376  0.00  0.00    +0.000 NA
ATOM     15  H   UNL     1      46.437   5.053   6.255  0.00  0.00    +0.000 HD
ATOM     16  H   UNL     1      45.910   3.540   5.933  0.00  0.00    +0.000 HD
ENDBRANCH  12  14
ENDBRANCH   8   9
ENDBRANCH   5   8
ENDBRANCH   1   2
BRANCH   1  17
ATOM     17  N   UNL     1      47.595   4.210  15.118  0.00  0.00    +0.000 NA
ATOM     18  H   UNL     1      47.220   3.422  14.589  0.00  0.00    +0.000 HD
BRANCH  17  19
ATOM     19  C   UNL     1      47.211   4.093  16.523  0.00  0.00    +0.000 C 
BRANCH  19  20
ATOM     20  C   UNL     1      47.758   2.797  17.120  0.00  0.00    +0.000 C 
BRANCH  20  22
ATOM     21  N   UNL     1      50.095   3.413  17.502  0.00  0.00    +0.000 N 
ATOM     22  C   UNL     1      49.231   2.581  16.852  0.00  0.00    +0.000 C 
ATOM     23  O   UNL     1      49.650   1.663  16.154  0.00  0.00    +0.000 OA
ATOM     24  H   UNL     1      51.059   3.329  17.205  0.00  0.00    +0.000 HD
ATOM     25  H   UNL     1      49.804   4.350  17.752  0.00  0.00    +0.000 HD
ENDBRANCH  20  22
ENDBRANCH  19  20
ENDBRANCH  17  19
ENDBRANCH   1  17
BRANCH   1  26
ATOM     26  C   UNL     1      48.350   6.375  14.044  0.00  0.00    +0.000 C 
ATOM     27  O   UNL     1      48.957   6.216  12.984  0.00  0.00    +0.000 OA
BRANCH  26  28
ATOM     28  C   UNL     1      48.793   7.421  14.982  0.00  0.00    +0.000 A 
ATOM     29  C   UNL     1      49.378   7.170  16.212  0.00  0.00    +0.000 A 
ATOM     30  S   UNL     1      49.972   8.585  16.969  0.00  0.00    +0.000 S 
ATOM     31  C   UNL     1      49.428   9.567  15.689  0.00  0.00    +0.000 A 
ATOM     32  N   UNL     1      49.673  10.903  15.666  0.00  0.00    +0.000 NA
ATOM     33  C   UNL     1      49.191  11.509  14.629  0.00  0.00    +0.000 A 
ATOM     34  N   UNL     1      48.460  10.907  13.636  0.00  0.00    +0.000 N 
ATOM     35  C   UNL     1      48.091   9.583  13.679  0.00  0.00    +0.000 A 
ATOM     36  O   UNL     1      47.230   9.133  12.932  0.00  0.00    +0.000 OA
ATOM     37  C   UNL     1      48.733   8.836  14.745  0.00  0.00    +0.000 A 
ATOM     38  H   UNL     1      48.025  11.458  12.910  0.00  0.00    +0.000 HD
ENDBRANCH  26  28
ENDBRANCH   1  26
TORSDOF 10
ENDMDL
MODEL 3
REMARK VINA RESULT:    -6.594      2.186      3.933
REMARK INTER + INTRA:         -12.165
REMARK INTER:                 -10.279
REMARK INTRA:                  -1.886
REMARK UNBOUND:                -1.909
REMARK  Name = 
REMARK  10 active torsions:
REMARK  status: ('A' for Active; 'I' for Inactive)
REMARK    1  A    between atoms: C_2  and  C_4
REMARK    2  A    between atoms: C_4  and  C_5
REMARK    3  A    between atoms: C_5  and  N_6
REMARK    4  A    between atoms: N_6  and  C_7
REMARK    5  A    between atoms: C_7  and  C_8
REMARK    6  A    between atoms: C_7  and  C_20
REMARK    7  A    between atoms: C_8  and  C_10
REMARK    8  A    between atoms: C_23  and  C_24
REMARK    9  A    between atoms: C_24  and  N_25
REMARK   10  A    between atoms: C_28  and  N_29
REMARK                            x       y       z     vdW  Elec       q    Type
REMARK                         _______ _______ _______ _____ _____    ______ ____
ROOT
ATOM      1  C   UNL     1      47.741   4.997  14.772  0.00  0.00    +0.000 C 
ENDROOT
BRANCH   1   2
ATOM      2  C   UNL     1      46.658   4.746  13.733  0.00  0.00    +0.000 A 
ATOM      3  C   UNL     1      45.896   5.821  13.255  0.00  0.00    +0.000 A 
ATOM      4  C   UNL     1      44.902   5.619  12.297  0.00  0.00    +0.000 A 
ATOM      5  C   UNL     1      44.648   4.343  11.783  0.00  0.00    +0.000 A 
ATOM      6  C   UNL     1      45.390   3.261  12.276  0.00  0.00    +0.000 A 
ATOM      7  C   UNL     1      46.366   3.456  13.257  0.00  0.00    +0.000 A 
BRANCH   5   8
ATOM      8  C   UNL     1      43.581   4.126  10.726  0.00  0.00    +0.000 C 
BRANCH   8   9
ATOM      9  N   UNL     1      44.095   3.700   9.420  0.00  0.00    +0.000 NA
ATOM     10  C   UNL     1      44.368   2.262   9.334  0.00  0.00    +0.000 C 
ATOM     11  C   UNL     1      45.744   2.085   8.702  0.00  0.00    +0.000 C 
ATOM     12  C   UNL     1      46.164   3.462   8.213  0.00  0.00    +0.000 C 
ATOM     13  C   UNL     1      45.352   4.409   9.105  0.00  0.00    +0.000 C 
BRANCH  12  14
ATOM     14  N   UNL     1      45.873   3.644   6.789  0.00  0.00    +0.000 NA
ATOM     15  H   UNL     1      46.480   3.026   6.252  0.00  0.00    +0.000 HD
ATOM     16  H   UNL     1      46.105   4.595   6.512  0.00  0.00    +0.000 HD
ENDBRANCH  12  14
ENDBRANCH   8   9
ENDBRANCH   5   8
ENDBRANCH   1   2
BRANCH   1  17
ATOM     17  N   UNL     1      47.820   6.445  15.057  0.00  0.00    +0.000 NA
ATOM     18  H   UNL     1      47.044   6.917  14.593  0.00  0.00    +0.000 HD
BRANCH  17  19
ATOM     19  C   UNL     1      49.085   7.063  14.661  0.00  0.00    +0.000 C 
BRANCH  19  20
ATOM     20  C   UNL     1      49.009   8.581  14.819  0.00  0.00    +0.000 C 
BRANCH  20  22
ATOM     21  N   UNL     1      47.754   8.950  16.886  0.00  0.00    +0.000 N 
ATOM     22  C   UNL     1      48.963   9.039  16.259  0.00  0.00    +0.000 C 
ATOM     23  O   UNL     1      49.962   9.401  16.873  0.00  0.00    +0.000 OA
ATOM     24  H   UNL     1      47.725   9.382  17.802  0.00  0.00    +0.000 HD
ATOM     25  H   UNL     1      46.899   9.026  16.350  0.00  0.00    +0.000 HD
ENDBRANCH  20  22
ENDBRANCH  19  20
ENDBRANCH  17  19
ENDBRANCH   1  17
BRANCH   1  26
ATOM     26  C   UNL     1      47.508   4.136  16.049  0.00  0.00    +0.000 C 
ATOM     27  O   UNL     1      46.391   3.960  16.537  0.00  0.00    +0.000 OA
BRANCH  26  28
ATOM     28  C   UNL     1      48.690   3.570  16.722  0.00  0.00    +0.000 A 
ATOM     29  C   UNL     1      49.117   2.260  16.579  0.00  0.00    +0.000 A 
ATOM     30  S   UNL     1      50.634   1.969  17.316  0.00  0.00    +0.000 S 
ATOM     31  C   UNL     1      50.735   3.575  17.874  0.00  0.00    +0.000 A 
ATOM     32  N   UNL     1      51.830   4.029  18.538  0.00  0.00    +0.000 NA
ATOM     33  C   UNL     1      51.751   5.269  18.899  0.00  0.00    +0.000 A 
ATOM     34  N   UNL     1      50.666   6.081  18.688  0.00  0.00    +0.000 N 
ATOM     35  C   UNL     1      49.495   5.631  18.125  0.00  0.00    +0.000 A 
ATOM     36  O   UNL     1      48.461   6.287  18.185  0.00  0.00    +0.000 OA
ATOM     37  C   UNL     1      49.593   4.292  17.574  0.00  0.00    +0.000 A 
ATOM     38  H   UNL     1      50.629   7.008  19.088  0.00  0.00    +0.000 HD
ENDBRANCH  26  28
ENDBRANCH   1  26
TORSDOF 10
ENDMDL
MODEL 4
REMARK VINA RESULT:    -6.460      4.374      7.346
REMARK INTER + INTRA:         -11.956
REMARK INTER:                 -10.783
REMARK INTRA:                  -1.173
REMARK UNBOUND:                -1.909
REMARK  Name = 
REMARK  10 active torsions:
REMARK  status: ('A' for Active; 'I' for Inactive)
REMARK    1  A    between atoms: C_2  and  C_4
REMARK    2  A    between atoms: C_4  and  C_5
REMARK    3  A    between atoms: C_5  and  N_6
REMARK    4  A    between atoms: N_6  and  C_7
REMARK    5  A    between atoms: C_7  and  C_8
REMARK    6  A    between atoms: C_7  and  C_20
REMARK    7  A    between atoms: C_8  and  C_10
REMARK    8  A    between atoms: C_23  and  C_24
REMARK    9  A    between atoms: C_24  and  N_25
REMARK   10  A    between atoms: C_28  and  N_29
REMARK                            x       y       z     vdW  Elec       q    Type
REMARK                         _______ _______ _______ _____ _____    ______ ____
ROOT
ATOM      1  C   UNL     1      47.482   6.233  12.864  0.00  0.00    +0.000 C 
ENDROOT
BRANCH   1   2
ATOM      2  C   UNL     1      48.690   7.146  12.709  0.00  0.00    +0.000 A 
ATOM      3  C   UNL     1      49.529   7.374  13.809  0.00  0.00    +0.000 A 
ATOM      4  C   UNL     1      50.647   8.200  13.691  0.00  0.00    +0.000 A 
ATOM      5  C   UNL     1      50.965   8.811  12.474  0.00  0.00    +0.000 A 
ATOM      6  C   UNL     1      50.115   8.606  11.378  0.00  0.00    +0.000 A 
ATOM      7  C   UNL     1      48.978   7.804  11.500  0.00  0.00    +0.000 A 
BRANCH   5   8
ATOM      8  C   UNL     1      52.193   9.693  12.341  0.00  0.00    +0.000 C 
BRANCH   8   9
ATOM      9  N   UNL     1      53.187   9.211  11.377  0.00  0.00    +0.000 NA
ATOM     10  C   UNL     1      52.830   9.474   9.979  0.00  0.00    +0.000 C 
ATOM     11  C   UNL     1      53.059   8.191   9.189  0.00  0.00    +0.000 C 
ATOM     12  C   UNL     1      53.778   7.238  10.130  0.00  0.00    +0.000 C 
ATOM     13  C   UNL     1      53.377   7.752  11.518  0.00  0.00    +0.000 C 
BRANCH  12  14
ATOM     14  N   UNL     1      55.228   7.260   9.921  0.00  0.00    +0.000 NA
ATOM     15  H   UNL     1      55.422   6.971   8.964  0.00  0.00    +0.000 HD
ATOM     16  H   UNL     1      55.671   6.576  10.530  0.00  0.00    +0.000 HD
ENDBRANCH  12  14
ENDBRANCH   8   9
ENDBRANCH   5   8
ENDBRANCH   1   2
BRANCH   1  17
ATOM     17  N   UNL     1      47.131   6.122  14.295  0.00  0.00    +0.000 NA
ATOM     18  H   UNL     1      47.788   6.680  14.841  0.00  0.00    +0.000 HD
BRANCH  17  19
ATOM     19  C   UNL     1      47.107   4.750  14.798  0.00  0.00    +0.000 C 
BRANCH  19  20
ATOM     20  C   UNL     1      47.905   4.644  16.097  0.00  0.00    +0.000 C 
BRANCH  20  22
ATOM     21  N   UNL     1      46.876   5.116  18.266  0.00  0.00    +0.000 N 
ATOM     22  C   UNL     1      47.079   4.194  17.281  0.00  0.00    +0.000 C 
ATOM     23  O   UNL     1      46.547   3.089  17.337  0.00  0.00    +0.000 OA
ATOM     24  H   UNL     1      46.432   4.748  19.098  0.00  0.00    +0.000 HD
ATOM     25  H   UNL     1      47.564   5.840  18.431  0.00  0.00    +0.000 HD
ENDBRANCH  20  22
ENDBRANCH  19  20
ENDBRANCH  17  19
ENDBRANCH   1  17
BRANCH   1  26
ATOM     26  C   UNL     1      46.293   6.719  11.981  0.00  0.00    +0.000 C 
ATOM     27  O   UNL     1      45.822   7.854  12.064  0.00  0.00    +0.000 OA
BRANCH  26  28
ATOM     28  C   UNL     1      45.679   5.746  11.059  0.00  0.00    +0.000 A 
ATOM     29  C   UNL     1      45.947   5.680   9.702  0.00  0.00    +0.000 A 
ATOM     30  S   UNL     1      45.243   4.314   8.950  0.00  0.00    +0.000 S 
ATOM     31  C   UNL     1      44.535   3.802  10.411  0.00  0.00    +0.000 A 
ATOM     32  N   UNL     1      43.834   2.641  10.492  0.00  0.00    +0.000 NA
ATOM     33  C   UNL     1      43.356   2.396  11.669  0.00  0.00    +0.000 A 
ATOM     34  N   UNL     1      43.487   3.220  12.758  0.00  0.00    +0.000 N 
ATOM     35  C   UNL     1      44.088   4.455  12.691  0.00  0.00    +0.000 A 
ATOM     36  O   UNL     1      43.964   5.278  13.592  0.00  0.00    +0.000 OA
ATOM     37  C   UNL     1      44.764   4.704  11.432  0.00  0.00    +0.000 A 
ATOM     38  H   UNL     1      43.000   3.018  13.620  0.00  0.00    +0.000 HD
ENDBRANCH  26  28
ENDBRANCH   1  26
TORSDOF 10
ENDMDL
MODEL 5
REMARK VINA RESULT:    -6.290      2.970      5.521
REMARK INTER + INTRA:         -11.693
REMARK INTER:                 -10.224
REMARK INTRA:                  -1.469
REMARK UNBOUND:                -1.909
REMARK  Name = 
REMARK  10 active torsions:
REMARK  status: ('A' for Active; 'I' for Inactive)
REMARK    1  A    between atoms: C_2  and  C_4
REMARK    2  A    between atoms: C_4  and  C_5
REMARK    3  A    between atoms: C_5  and  N_6
REMARK    4  A    between atoms: N_6  and  C_7
REMARK    5  A    between atoms: C_7  and  C_8
REMARK    6  A    between atoms: C_7  and  C_20
REMARK    7  A    between atoms: C_8  and  C_10
REMARK    8  A    between atoms: C_23  and  C_24
REMARK    9  A    between atoms: C_24  and  N_25
REMARK   10  A    between atoms: C_28  and  N_29
REMARK                            x       y       z     vdW  Elec       q    Type
REMARK                         _______ _______ _______ _____ _____    ______ ____
ROOT
ATOM      1  C   UNL     1      49.170   5.941  17.565  0.00  0.00    +0.000 C 
ENDROOT
BRANCH   1   2
ATOM      2  C   UNL     1      48.429   5.674  16.263  0.00  0.00    +0.000 A 
ATOM      3  C   UNL     1      48.590   6.554  15.184  0.00  0.00    +0.000 A 
ATOM      4  C   UNL     1      47.928   6.328  13.977  0.00  0.00    +0.000 A 
ATOM      5  C   UNL     1      47.097   5.215  13.810  0.00  0.00    +0.000 A 
ATOM      6  C   UNL     1      46.913   4.346  14.894  0.00  0.00    +0.000 A 
ATOM      7  C   UNL     1      47.551   4.586  16.114  0.00  0.00    +0.000 A 
BRANCH   5   8
ATOM      8  C   UNL     1      46.394   4.958  12.490  0.00  0.00    +0.000 C 
BRANCH   8   9
ATOM      9  N   UNL     1      44.940   5.150  12.526  0.00  0.00    +0.000 NA
ATOM     10  C   UNL     1      44.178   3.900  12.450  0.00  0.00    +0.000 C 
ATOM     11  C   UNL     1      43.071   4.089  11.419  0.00  0.00    +0.000 C 
ATOM     12  C   UNL     1      43.074   5.567  11.063  0.00  0.00    +0.000 C 
ATOM     13  C   UNL     1      44.505   6.002  11.400  0.00  0.00    +0.000 C 
BRANCH  12  14
ATOM     14  N   UNL     1      42.068   6.310  11.826  0.00  0.00    +0.000 NA
ATOM     15  H   UNL     1      42.144   7.298  11.586  0.00  0.00    +0.000 HD
ATOM     16  H   UNL     1      42.267   6.234  12.820  0.00  0.00    +0.000 HD
ENDBRANCH  12  14
ENDBRANCH   8   9
ENDBRANCH   5   8
ENDBRANCH   1   2
BRANCH   1  17
ATOM     17  N   UNL     1      48.357   6.832  18.419  0.00  0.00    +0.000 NA
ATOM     18  H   UNL     1      47.686   7.330  17.833  0.00  0.00    +0.000 HD
BRANCH  17  19
ATOM     19  C   UNL     1      49.141   7.789  19.198  0.00  0.00    +0.000 C 
BRANCH  19  20
ATOM     20  C   UNL     1      48.727   9.220  18.857  0.00  0.00    +0.000 C 
BRANCH  20  22
ATOM     21  N   UNL     1      47.528   9.471  16.739  0.00  0.00    +0.000 N 
ATOM     22  C   UNL     1      48.735   9.516  17.374  0.00  0.00    +0.000 C 
ATOM     23  O   UNL     1      49.748   9.857  16.770  0.00  0.00    +0.000 OA
ATOM     24  H   UNL     1      47.582   9.546  15.731  0.00  0.00    +0.000 HD
ATOM     25  H   UNL     1      46.797   8.863  17.085  0.00  0.00    +0.000 HD
ENDBRANCH  20  22
ENDBRANCH  19  20
ENDBRANCH  17  19
ENDBRANCH   1  17
BRANCH   1  26
ATOM     26  C   UNL     1      49.561   4.609  18.274  0.00  0.00    +0.000 C 
ATOM     27  O   UNL     1      48.738   3.894  18.848  0.00  0.00    +0.000 OA
BRANCH  26  28
ATOM     28  C   UNL     1      50.987   4.238  18.301  0.00  0.00    +0.000 A 
ATOM     29  C   UNL     1      51.994   5.045  18.803  0.00  0.00    +0.000 A 
ATOM     30  S   UNL     1      53.506   4.249  18.889  0.00  0.00    +0.000 S 
ATOM     31  C   UNL     1      52.857   2.823  18.222  0.00  0.00    +0.000 A 
ATOM     32  N   UNL     1      53.609   1.700  18.077  0.00  0.00    +0.000 NA
ATOM     33  C   UNL     1      52.972   0.704  17.552  0.00  0.00    +0.000 A 
ATOM     34  N   UNL     1      51.668   0.740  17.129  0.00  0.00    +0.000 N 
ATOM     35  C   UNL     1      50.907   1.886  17.151  0.00  0.00    +0.000 A 
ATOM     36  O   UNL     1      49.850   1.965  16.535  0.00  0.00    +0.000 OA
ATOM     37  C   UNL     1      51.532   2.983  17.865  0.00  0.00    +0.000 A 
ATOM     38  H   UNL     1      51.265  -0.042  16.633  0.00  0.00    +0.000 HD
ENDBRANCH  26  28
ENDBRANCH   1  26
TORSDOF 10
ENDMDL
MODEL 6
REMARK VINA RESULT:    -6.162      3.595      7.891
REMARK INTER + INTRA:         -11.493
REMARK INTER:                  -9.942
REMARK INTRA:                  -1.551
REMARK UNBOUND:                -1.909
REMARK  Name = 
REMARK  10 active torsions:
REMARK  status: ('A' for Active; 'I' for Inactive)
REMARK    1  A    between atoms: C_2  and  C_4
REMARK    2  A    between atoms: C_4  and  C_5
REMARK    3  A    between atoms: C_5  and  N_6
REMARK    4  A    between atoms: N_6  and  C_7
REMARK    5  A    between atoms: C_7  and  C_8
REMARK    6  A    between atoms: C_7  and  C_20
REMARK    7  A    between atoms: C_8  and  C_10
REMARK    8  A    between atoms: C_23  and  C_24
REMARK    9  A    between atoms: C_24  and  N_25
REMARK   10  A    between atoms: C_28  and  N_29
REMARK                            x       y       z     vdW  Elec       q    Type
REMARK                         _______ _______ _______ _____ _____    ______ ____
ROOT
ATOM      1  C   UNL     1      47.339   6.322  12.772  0.00  0.00    +0.000 C 
ENDROOT
BRANCH   1   2
ATOM      2  C   UNL     1      48.479   7.331  12.794  0.00  0.00    +0.000 A 
ATOM      3  C   UNL     1      49.236   7.543  11.633  0.00  0.00    +0.000 A 
ATOM      4  C   UNL     1      50.281   8.468  11.625  0.00  0.00    +0.000 A 
ATOM      5  C   UNL     1      50.592   9.212  12.768  0.00  0.00    +0.000 A 
ATOM      6  C   UNL     1      49.853   8.985  13.938  0.00  0.00    +0.000 A 
ATOM      7  C   UNL     1      48.826   8.038  13.958  0.00  0.00    +0.000 A 
BRANCH   5   8
ATOM      8  C   UNL     1      51.714  10.233  12.753  0.00  0.00    +0.000 C 
BRANCH   8   9
ATOM      9  N   UNL     1      52.943   9.798  13.425  0.00  0.00    +0.000 NA
ATOM     10  C   UNL     1      53.176   8.352  13.352  0.00  0.00    +0.000 C 
ATOM     11  C   UNL     1      53.549   7.868  14.748  0.00  0.00    +0.000 C 
ATOM     12  C   UNL     1      53.747   9.118  15.590  0.00  0.00    +0.000 C 
ATOM     13  C   UNL     1      52.905  10.168  14.855  0.00  0.00    +0.000 C 
BRANCH  12  14
ATOM     14  N   UNL     1      55.160   9.494  15.679  0.00  0.00    +0.000 NA
ATOM     15  H   UNL     1      55.567   9.450  14.746  0.00  0.00    +0.000 HD
ATOM     16  H   UNL     1      55.660   8.815  16.248  0.00  0.00    +0.000 HD
ENDBRANCH  12  14
ENDBRANCH   8   9
ENDBRANCH   5   8
ENDBRANCH   1   2
BRANCH   1  17
ATOM     17  N   UNL     1      46.855   6.098  14.150  0.00  0.00    +0.000 NA
ATOM     18  H   UNL     1      47.312   6.765  14.773  0.00  0.00    +0.000 HD
BRANCH  17  19
ATOM     19  C   UNL     1      47.064   4.737  14.641  0.00  0.00    +0.000 C 
BRANCH  19  20
ATOM     20  C   UNL     1      47.856   4.756  15.947  0.00  0.00    +0.000 C 
BRANCH  20  22
ATOM     21  N   UNL     1      46.887   3.058  17.417  0.00  0.00    +0.000 N 
ATOM     22  C   UNL     1      47.941   3.406  16.625  0.00  0.00    +0.000 C 
ATOM     23  O   UNL     1      48.862   2.620  16.424  0.00  0.00    +0.000 OA
ATOM     24  H   UNL     1      47.030   2.212  17.955  0.00  0.00    +0.000 HD
ATOM     25  H   UNL     1      46.344   3.775  17.882  0.00  0.00    +0.000 HD
ENDBRANCH  20  22
ENDBRANCH  19  20
ENDBRANCH  17  19
ENDBRANCH   1  17
BRANCH   1  26
ATOM     26  C   UNL     1      46.210   6.769  11.795  0.00  0.00    +0.000 C 
ATOM     27  O   UNL     1      45.778   7.922  11.761  0.00  0.00    +0.000 OA
BRANCH  26  28
ATOM     28  C   UNL     1      45.605   5.742  10.929  0.00  0.00    +0.000 A 
ATOM     29  C   UNL     1      45.870   5.606   9.576  0.00  0.00    +0.000 A 
ATOM     30  S   UNL     1      45.179   4.194   8.900  0.00  0.00    +0.000 S 
ATOM     31  C   UNL     1      44.479   3.755  10.389  0.00  0.00    +0.000 A 
ATOM     32  N   UNL     1      43.789   2.593  10.534  0.00  0.00    +0.000 NA
ATOM     33  C   UNL     1      43.317   2.407  11.724  0.00  0.00    +0.000 A 
ATOM     34  N   UNL     1      43.441   3.290  12.767  0.00  0.00    +0.000 N 
ATOM     35  C   UNL     1      44.030   4.525  12.632  0.00  0.00    +0.000 A 
ATOM     36  O   UNL     1      43.899   5.394  13.487  0.00  0.00    +0.000 OA
ATOM     37  C   UNL     1      44.701   4.713  11.360  0.00  0.00    +0.000 A 
ATOM     38  H   UNL     1      42.958   3.129  13.639  0.00  0.00    +0.000 HD
ENDBRANCH  26  28
ENDBRANCH   1  26
TORSDOF 10
ENDMDL
MODEL 7
REMARK VINA RESULT:    -6.094      2.453      3.724
REMARK INTER + INTRA:         -11.388
REMARK INTER:                  -9.845
REMARK INTRA:                  -1.543
REMARK UNBOUND:                -1.909
REMARK  Name = 
REMARK  10 active torsions:
REMARK  status: ('A' for Active; 'I' for Inactive)
REMARK    1  A    between atoms: C_2  and  C_4
REMARK    2  A    between atoms: C_4  and  C_5
REMARK    3  A    between atoms: C_5  and  N_6
REMARK    4  A    between atoms: N_6  and  C_7
REMARK    5  A    between atoms: C_7  and  C_8
REMARK    6  A    between atoms: C_7  and  C_20
REMARK    7  A    between atoms: C_8  and  C_10
REMARK    8  A    between atoms: C_23  and  C_24
REMARK    9  A    between atoms: C_24  and  N_25
REMARK   10  A    between atoms: C_28  and  N_29
REMARK                            x       y       z     vdW  Elec       q    Type
REMARK                         _______ _______ _______ _____ _____    ______ ____
ROOT
ATOM      1  C   UNL     1      49.095   5.282  17.274  0.00  0.00    +0.000 C 
ENDROOT
BRANCH   1   2
ATOM      2  C   UNL     1      48.345   5.474  15.963  0.00  0.00    +0.000 A 
ATOM      3  C   UNL     1      47.384   4.531  15.573  0.00  0.00    +0.000 A 
ATOM      4  C   UNL     1      46.677   4.687  14.380  0.00  0.00    +0.000 A 
ATOM      5  C   UNL     1      46.903   5.790  13.550  0.00  0.00    +0.000 A 
ATOM      6  C   UNL     1      47.880   6.723  13.924  0.00  0.00    +0.000 A 
ATOM      7  C   UNL     1      48.611   6.553  15.103  0.00  0.00    +0.000 A 
BRANCH   5   8
ATOM      8  C   UNL     1      46.119   5.971  12.263  0.00  0.00    +0.000 C 
BRANCH   8   9
ATOM      9  N   UNL     1      45.349   4.794  11.848  0.00  0.00    +0.000 NA
ATOM     10  C   UNL     1      45.279   4.618  10.394  0.00  0.00    +0.000 C 
ATOM     11  C   UNL     1      43.827   4.330  10.028  0.00  0.00    +0.000 C 
ATOM     12  C   UNL     1      43.094   4.119  11.343  0.00  0.00    +0.000 C 
ATOM     13  C   UNL     1      43.963   4.882  12.350  0.00  0.00    +0.000 C 
BRANCH  12  14
ATOM     14  N   UNL     1      42.970   2.697  11.673  0.00  0.00    +0.000 NA
ATOM     15  H   UNL     1      42.425   2.609  12.529  0.00  0.00    +0.000 HD
ATOM     16  H   UNL     1      43.890   2.311  11.870  0.00  0.00    +0.000 HD
ENDBRANCH  12  14
ENDBRANCH   8   9
ENDBRANCH   5   8
ENDBRANCH   1   2
BRANCH   1  17
ATOM     17  N   UNL     1      50.547   5.410  17.032  0.00  0.00    +0.000 NA
ATOM     18  H   UNL     1      50.702   5.590  16.039  0.00  0.00    +0.000 HD
BRANCH  17  19
ATOM     19  C   UNL     1      51.326   4.246  17.452  0.00  0.00    +0.000 C 
BRANCH  19  20
ATOM     20  C   UNL     1      50.400   3.131  17.935  0.00  0.00    +0.000 C 
BRANCH  20  22
ATOM     21  N   UNL     1      51.264   0.875  17.545  0.00  0.00    +0.000 N 
ATOM     22  C   UNL     1      50.463   1.880  17.087  0.00  0.00    +0.000 C 
ATOM     23  O   UNL     1      49.779   1.727  16.079  0.00  0.00    +0.000 OA
ATOM     24  H   UNL     1      51.385   0.108  16.895  0.00  0.00    +0.000 HD
ATOM     25  H   UNL     1      52.076   1.092  18.108  0.00  0.00    +0.000 HD
ENDBRANCH  20  22
ENDBRANCH  19  20
ENDBRANCH  17  19
ENDBRANCH   1  17
BRANCH   1  26
ATOM     26  C   UNL     1      48.571   6.259  18.369  0.00  0.00    +0.000 C 
ATOM     27  O   UNL     1      47.387   6.310  18.704  0.00  0.00    +0.000 OA
BRANCH  26  28
ATOM     28  C   UNL     1      49.536   7.195  18.973  0.00  0.00    +0.000 A 
ATOM     29  C   UNL     1      50.383   6.875  20.021  0.00  0.00    +0.000 A 
ATOM     30  S   UNL     1      51.527   8.104  20.353  0.00  0.00    +0.000 S 
ATOM     31  C   UNL     1      50.892   9.104  19.131  0.00  0.00    +0.000 A 
ATOM     32  N   UNL     1      51.456  10.303  18.830  0.00  0.00    +0.000 NA
ATOM     33  C   UNL     1      50.855  10.945  17.880  0.00  0.00    +0.000 A 
ATOM     34  N   UNL     1      49.724  10.513  17.233  0.00  0.00    +0.000 N 
ATOM     35  C   UNL     1      49.056   9.363  17.584  0.00  0.00    +0.000 A 
ATOM     36  O   UNL     1      47.921   9.133  17.181  0.00  0.00    +0.000 OA
ATOM     37  C   UNL     1      49.776   8.543  18.540  0.00  0.00    +0.000 A 
ATOM     38  H   UNL     1      49.247  11.111  16.574  0.00  0.00    +0.000 HD
ENDBRANCH  26  28
ENDBRANCH   1  26
TORSDOF 10
ENDMDL
MODEL 8
REMARK VINA RESULT:    -5.881      3.228      8.402
REMARK INTER + INTRA:         -11.057
REMARK INTER:                  -8.784
REMARK INTRA:                  -2.273
REMARK UNBOUND:                -1.909
REMARK  Name = 
REMARK  10 active torsions:
REMARK  status: ('A' for Active; 'I' for Inactive)
REMARK    1  A    between atoms: C_2  and  C_4
REMARK    2  A    between atoms: C_4  and  C_5
REMARK    3  A    between atoms: C_5  and  N_6
REMARK    4  A    between atoms: N_6  and  C_7
REMARK    5  A    between atoms: C_7  and  C_8
REMARK    6  A    between atoms: C_7  and  C_20
REMARK    7  A    between atoms: C_8  and  C_10
REMARK    8  A    between atoms: C_23  and  C_24
REMARK    9  A    between atoms: C_24  and  N_25
REMARK   10  A    between atoms: C_28  and  N_29
REMARK                            x       y       z     vdW  Elec       q    Type
REMARK                         _______ _______ _______ _____ _____    ______ ____
ROOT
ATOM      1  C   UNL     1      48.357   7.519  14.473  0.00  0.00    +0.000 C 
ENDROOT
BRANCH   1   2
ATOM      2  C   UNL     1      49.026   6.718  15.581  0.00  0.00    +0.000 A 
ATOM      3  C   UNL     1      50.395   6.891  15.828  0.00  0.00    +0.000 A 
ATOM      4  C   UNL     1      51.031   6.175  16.842  0.00  0.00    +0.000 A 
ATOM      5  C   UNL     1      50.319   5.277  17.644  0.00  0.00    +0.000 A 
ATOM      6  C   UNL     1      48.955   5.082  17.385  0.00  0.00    +0.000 A 
ATOM      7  C   UNL     1      48.322   5.775  16.350  0.00  0.00    +0.000 A 
BRANCH   5   8
ATOM      8  C   UNL     1      51.006   4.514  18.761  0.00  0.00    +0.000 C 
BRANCH   8   9
ATOM      9  N   UNL     1      52.317   3.961  18.405  0.00  0.00    +0.000 NA
ATOM     10  C   UNL     1      52.244   2.694  17.671  0.00  0.00    +0.000 C 
ATOM     11  C   UNL     1      53.236   1.727  18.308  0.00  0.00    +0.000 C 
ATOM     12  C   UNL     1      54.053   2.548  19.293  0.00  0.00    +0.000 C 
ATOM     13  C   UNL     1      53.123   3.722  19.621  0.00  0.00    +0.000 C 
BRANCH  12  14
ATOM     14  N   UNL     1      55.324   2.986  18.712  0.00  0.00    +0.000 NA
ATOM     15  H   UNL     1      55.512   2.424  17.883  0.00  0.00    +0.000 HD
ATOM     16  H   UNL     1      56.081   2.802  19.367  0.00  0.00    +0.000 HD
ENDBRANCH  12  14
ENDBRANCH   8   9
ENDBRANCH   5   8
ENDBRANCH   1   2
BRANCH   1  17
ATOM     17  N   UNL     1      49.151   8.734  14.198  0.00  0.00    +0.000 NA
ATOM     18  H   UNL     1      49.136   9.333  15.024  0.00  0.00    +0.000 HD
BRANCH  17  19
ATOM     19  C   UNL     1      48.701   9.489  13.029  0.00  0.00    +0.000 C 
BRANCH  19  20
ATOM     20  C   UNL     1      49.864   9.732  12.070  0.00  0.00    +0.000 C 
BRANCH  20  22
ATOM     21  N   UNL     1      51.403   7.831  11.979  0.00  0.00    +0.000 N 
ATOM     22  C   UNL     1      51.154   9.068  12.500  0.00  0.00    +0.000 C 
ATOM     23  O   UNL     1      51.981   9.626  13.214  0.00  0.00    +0.000 OA
ATOM     24  H   UNL     1      52.204   7.362  12.383  0.00  0.00    +0.000 HD
ATOM     25  H   UNL     1      50.633   7.225  11.725  0.00  0.00    +0.000 HD
ENDBRANCH  20  22
ENDBRANCH  19  20
ENDBRANCH  17  19
ENDBRANCH   1  17
BRANCH   1  26
ATOM     26  C   UNL     1      48.126   6.642  13.205  0.00  0.00    +0.000 C 
ATOM     27  O   UNL     1      49.052   6.158  12.553  0.00  0.00    +0.000 OA
BRANCH  26  28
ATOM     28  C   UNL     1      46.738   6.447  12.748  0.00  0.00    +0.000 A 
ATOM     29  C   UNL     1      45.923   7.461  12.273  0.00  0.00    +0.000 A 
ATOM     30  S   UNL     1      44.450   6.883  11.623  0.00  0.00    +0.000 S 
ATOM     31  C   UNL     1      44.851   5.271  11.997  0.00  0.00    +0.000 A 
ATOM     32  N   UNL     1      44.042   4.238  11.647  0.00  0.00    +0.000 NA
ATOM     33  C   UNL     1      44.485   3.076  12.006  0.00  0.00    +0.000 A 
ATOM     34  N   UNL     1      45.642   2.860  12.711  0.00  0.00    +0.000 N 
ATOM     35  C   UNL     1      46.430   3.883  13.184  0.00  0.00    +0.000 A 
ATOM     36  O   UNL     1      47.301   3.685  14.024  0.00  0.00    +0.000 OA
ATOM     37  C   UNL     1      46.050   5.189  12.680  0.00  0.00    +0.000 A 
ATOM     38  H   UNL     1      45.875   1.937  13.049  0.00  0.00    +0.000 HD
ENDBRANCH  26  28
ENDBRANCH   1  26
TORSDOF 10
ENDMDL
MODEL 9
REMARK VINA RESULT:    -5.869      3.042      3.578
REMARK INTER + INTRA:         -11.038
REMARK INTER:                  -9.122
REMARK INTRA:                  -1.916
REMARK UNBOUND:                -1.909
REMARK  Name = 
REMARK  10 active torsions:
REMARK  status: ('A' for Active; 'I' for Inactive)
REMARK    1  A    between atoms: C_2  and  C_4
REMARK    2  A    between atoms: C_4  and  C_5
REMARK    3  A    between atoms: C_5  and  N_6
REMARK    4  A    between atoms: N_6  and  C_7
REMARK    5  A    between atoms: C_7  and  C_8
REMARK    6  A    between atoms: C_7  and  C_20
REMARK    7  A    between atoms: C_8  and  C_10
REMARK    8  A    between atoms: C_23  and  C_24
REMARK    9  A    between atoms: C_24  and  N_25
REMARK   10  A    between atoms: C_28  and  N_29
REMARK                            x       y       z     vdW  Elec       q    Type
REMARK                         _______ _______ _______ _____ _____    ______ ____
ROOT
ATOM      1  C   UNL     1      48.580   7.380  14.962  0.00  0.00    +0.000 C 
ENDROOT
BRANCH   1   2
ATOM      2  C   UNL     1      47.575   6.808  13.972  0.00  0.00    +0.000 A 
ATOM      3  C   UNL     1      46.755   7.677  13.240  0.00  0.00    +0.000 A 
ATOM      4  C   UNL     1      45.831   7.179  12.321  0.00  0.00    +0.000 A 
ATOM      5  C   UNL     1      45.709   5.803  12.098  0.00  0.00    +0.000 A 
ATOM      6  C   UNL     1      46.511   4.929  12.845  0.00  0.00    +0.000 A 
ATOM      7  C   UNL     1      47.414   5.424  13.789  0.00  0.00    +0.000 A 
BRANCH   5   8
ATOM      8  C   UNL     1      44.720   5.263  11.083  0.00  0.00    +0.000 C 
BRANCH   8   9
ATOM      9  N   UNL     1      45.245   4.189  10.232  0.00  0.00    +0.000 NA
ATOM     10  C   UNL     1      45.482   4.599   8.844  0.00  0.00    +0.000 C 
ATOM     11  C   UNL     1      44.886   3.531   7.933  0.00  0.00    +0.000 C 
ATOM     12  C   UNL     1      44.496   2.374   8.839  0.00  0.00    +0.000 C 
ATOM     13  C   UNL     1      44.305   3.049  10.203  0.00  0.00    +0.000 C 
BRANCH  12  14
ATOM     14  N   UNL     1      45.528   1.335   8.868  0.00  0.00    +0.000 NA
ATOM     15  H   UNL     1      45.122   0.485   9.254  0.00  0.00    +0.000 HD
ATOM     16  H   UNL     1      46.277   1.615   9.498  0.00  0.00    +0.000 HD
ENDBRANCH  12  14
ENDBRANCH   8   9
ENDBRANCH   5   8
ENDBRANCH   1   2
BRANCH   1  17
ATOM     17  N   UNL     1      49.536   6.325  15.356  0.00  0.00    +0.000 NA
ATOM     18  H   UNL     1      49.288   5.458  14.877  0.00  0.00    +0.000 HD
BRANCH  17  19
ATOM     19  C   UNL     1      49.607   6.092  16.798  0.00  0.00    +0.000 C 
BRANCH  19  20
ATOM     20  C   UNL     1      48.297   5.492  17.306  0.00  0.00    +0.000 C 
BRANCH  20  22
ATOM     21  N   UNL     1      47.491   3.336  18.138  0.00  0.00    +0.000 N 
ATOM     22  C   UNL     1      48.239   3.984  17.198  0.00  0.00    +0.000 C 
ATOM     23  O   UNL     1      48.764   3.364  16.278  0.00  0.00    +0.000 OA
ATOM     24  H   UNL     1      47.575   2.327  18.116  0.00  0.00    +0.000 HD
ATOM     25  H   UNL     1      47.378   3.738  19.060  0.00  0.00    +0.000 HD
ENDBRANCH  20  22
ENDBRANCH  19  20
ENDBRANCH  17  19
ENDBRANCH   1  17
BRANCH   1  26
ATOM     26  C   UNL     1      49.277   8.650  14.388  0.00  0.00    +0.000 C 
ATOM     27  O   UNL     1      48.946   9.793  14.708  0.00  0.00    +0.000 OA
BRANCH  26  28
ATOM     28  C   UNL     1      50.329   8.458  13.374  0.00  0.00    +0.000 A 
ATOM     29  C   UNL     1      50.086   8.243  12.028  0.00  0.00    +0.000 A 
ATOM     30  S   UNL     1      51.511   8.270  11.081  0.00  0.00    +0.000 S 
ATOM     31  C   UNL     1      52.486   8.530  12.453  0.00  0.00    +0.000 A 
ATOM     32  N   UNL     1      53.827   8.716  12.346  0.00  0.00    +0.000 NA
ATOM     33  C   UNL     1      54.426   8.897  13.478  0.00  0.00    +0.000 A 
ATOM     34  N   UNL     1      53.812   8.873  14.705  0.00  0.00    +0.000 N 
ATOM     35  C   UNL     1      52.479   8.575  14.866  0.00  0.00    +0.000 A 
ATOM     36  O   UNL     1      52.012   8.302  15.966  0.00  0.00    +0.000 OA
ATOM     37  C   UNL     1      51.743   8.512  13.618  0.00  0.00    +0.000 A 
ATOM     38  H   UNL     1      54.355   8.918  15.555  0.00  0.00    +0.000 HD
ENDBRANCH  26  28
ENDBRANCH   1  26
TORSDOF 10
ENDMDL
