MODEL 1
REMARK VINA RESULT:    -8.391      0.000      0.000
REMARK INTER + INTRA:         -12.322
REMARK INTER:                 -11.334
REMARK INTRA:                  -0.988
REMARK UNBOUND:                -0.988
REMARK  Name = 
REMARK  6 active torsions:
REMARK  status: ('A' for Active; 'I' for Inactive)
REMARK    1  A    between atoms: C_2  and  C_20
REMARK    2  A    between atoms: N_3  and  C_4
REMARK    3  A    between atoms: C_4  and  C_5
REMARK    4  A    between atoms: C_8  and  C_9
REMARK    5  A    between atoms: C_9  and  C_10
REMARK    6  A    between atoms: C_10  and  N_11
REMARK                            x       y       z     vdW  Elec       q    Type
REMARK                         _______ _______ _______ _____ _____    ______ ____
ROOT
ATOM      1  C   UNL     1      47.202   7.309  13.223  0.00  0.00    +0.000 C 
ENDROOT
BRANCH   1   2
ATOM      2  C   UNL     1      46.410   6.186  12.608  0.00  0.00    +0.000 A 
ATOM      3  C   UNL     1      46.027   5.094  13.392  0.00  0.00    +0.000 A 
ATOM      4  C   UNL     1      45.250   4.068  12.852  0.00  0.00    +0.000 A 
ATOM      5  C   UNL     1      44.842   4.097  11.510  0.00  0.00    +0.000 A 
ATOM      6  C   UNL     1      45.260   5.176  10.717  0.00  0.00    +0.000 A 
ATOM      7  C   UNL     1      46.042   6.206  11.258  0.00  0.00    +0.000 A 
BRANCH   5   8
ATOM      8  C   UNL     1      43.967   3.023  10.885  0.00  0.00    +0.000 C 
BRANCH   8   9
ATOM      9  C   UNL     1      44.228   2.769   9.396  0.00  0.00    +0.000 C 
BRANCH   9  10
ATOM     10  N   UNL     1      45.194   1.688   9.178  0.00  0.00    +0.000 N 
ATOM     11  C   UNL     1      46.022   1.951   8.060  0.00  0.00    +0.000 A 
ATOM     12  C   UNL     1      47.006   1.033   7.683  0.00  0.00    +0.000 A 
ATOM     13  N   UNL     1      47.837   1.207   6.622  0.00  0.00    +0.000 NA
ATOM     14  C   UNL     1      47.660   2.360   5.944  0.00  0.00    +0.000 A 
ATOM     15  C   UNL     1      46.701   3.286   6.307  0.00  0.00    +0.000 A 
ATOM     16  N   UNL     1      45.875   3.100   7.361  0.00  0.00    +0.000 NA
ATOM     17  H   UNL     1      44.742   0.788   9.039  0.00  0.00    +0.000 HD
ENDBRANCH   9  10
ENDBRANCH   8   9
ENDBRANCH   5   8
ENDBRANCH   1   2
BRANCH   1  20
ATOM     18  O   UNL     1      49.857   7.052  14.123  0.00  0.00    +0.000 OA
ATOM     19  C   UNL     1      48.941   6.925  14.932  0.00  0.00    +0.000 C 
ATOM     20  N   UNL     1      47.623   6.995  14.565  0.00  0.00    +0.000 N 
ATOM     21  H   UNL     1      46.904   7.034  15.279  0.00  0.00    +0.000 HD
BRANCH  19  22
ATOM     22  C   UNL     1      49.212   6.642  16.348  0.00  0.00    +0.000 A 
ATOM     23  C   UNL     1      49.833   7.603  17.135  0.00  0.00    +0.000 A 
ATOM     24  S   UNL     1      50.042   7.127  18.759  0.00  0.00    +0.000 S 
ATOM     25  C   UNL     1      49.273   5.635  18.476  0.00  0.00    +0.000 A 
ATOM     26  N   UNL     1      49.070   4.750  19.489  0.00  0.00    +0.000 NA
ATOM     27  C   UNL     1      48.435   3.681  19.144  0.00  0.00    +0.000 A 
ATOM     28  N   UNL     1      48.007   3.405  17.873  0.00  0.00    +0.000 N 
ATOM     29  C   UNL     1      48.273   4.224  16.803  0.00  0.00    +0.000 A 
ATOM     30  O   UNL     1      48.026   3.870  15.654  0.00  0.00    +0.000 OA
ATOM     31  C   UNL     1      48.912   5.479  17.150  0.00  0.00    +0.000 A 
ATOM     32  H   UNL     1      47.557   2.528  17.658  0.00  0.00    +0.000 HD
ENDBRANCH  19  22
ENDBRANCH   1  20
TORSDOF 6
ENDMDL
MODEL 2
REMARK VINA RESULT:    -7.837      2.055      2.805
REMARK INTER + INTRA:         -11.573
REMARK INTER:                 -10.630
REMARK INTRA:                  -0.943
REMARK UNBOUND:                -0.988
REMARK  Name = 
REMARK  6 active torsions:
REMARK  status: ('A' for Active; 'I' for Inactive)
REMARK    1  A    between atoms: C_2  and  C_20
REMARK    2  A    between atoms: N_3  and  C_4
REMARK    3  A    between atoms: C_4  and  C_5
REMARK    4  A    between atoms: C_8  and  C_9
REMARK    5  A    between atoms: C_9  and  C_10
REMARK    6  A    between atoms: C_10  and  N_11
REMARK                            x       y       z     vdW  Elec       q    Type
REMARK                         _______ _______ _______ _____ _____    ______ ____
ROOT
ATOM      1  C   UNL     1      48.198   6.608  13.963  0.00  0.00    +0.000 C 
ENDROOT
BRANCH   1   2
ATOM      2  C   UNL     1      47.102   5.839  13.273  0.00  0.00    +0.000 A 
ATOM      3  C   UNL     1      46.531   6.341  12.100  0.00  0.00    +0.000 A 
ATOM      4  C   UNL     1      45.550   5.618  11.420  0.00  0.00    +0.000 A 
ATOM      5  C   UNL     1      45.101   4.378  11.899  0.00  0.00    +0.000 A 
ATOM      6  C   UNL     1      45.649   3.896  13.096  0.00  0.00    +0.000 A 
ATOM      7  C   UNL     1      46.633   4.621  13.780  0.00  0.00    +0.000 A 
BRANCH   5   8
ATOM      8  C   UNL     1      44.060   3.538  11.177  0.00  0.00    +0.000 C 
BRANCH   8   9
ATOM      9  C   UNL     1      44.334   3.317   9.686  0.00  0.00    +0.000 C 
BRANCH   9  10
ATOM     10  N   UNL     1      45.007   2.040   9.427  0.00  0.00    +0.000 N 
ATOM     11  C   UNL     1      45.866   2.125   8.305  0.00  0.00    +0.000 A 
ATOM     12  C   UNL     1      46.595   1.007   7.892  0.00  0.00    +0.000 A 
ATOM     13  N   UNL     1      47.436   1.003   6.825  0.00  0.00    +0.000 NA
ATOM     14  C   UNL     1      47.539   2.182   6.177  0.00  0.00    +0.000 A 
ATOM     15  C   UNL     1      46.837   3.302   6.577  0.00  0.00    +0.000 A 
ATOM     16  N   UNL     1      45.998   3.294   7.636  0.00  0.00    +0.000 NA
ATOM     17  H   UNL     1      44.349   1.281   9.273  0.00  0.00    +0.000 HD
ENDBRANCH   9  10
ENDBRANCH   8   9
ENDBRANCH   5   8
ENDBRANCH   1   2
BRANCH   1  20
ATOM     18  O   UNL     1      50.043   5.973  15.991  0.00  0.00    +0.000 OA
ATOM     19  C   UNL     1      48.940   6.410  16.308  0.00  0.00    +0.000 C 
ATOM     20  N   UNL     1      47.973   6.702  15.383  0.00  0.00    +0.000 N 
ATOM     21  H   UNL     1      47.136   7.198  15.671  0.00  0.00    +0.000 HD
BRANCH  19  22
ATOM     22  C   UNL     1      48.576   6.601  17.718  0.00  0.00    +0.000 A 
ATOM     23  C   UNL     1      48.672   5.536  18.605  0.00  0.00    +0.000 A 
ATOM     24  S   UNL     1      48.245   5.938  20.206  0.00  0.00    +0.000 S 
ATOM     25  C   UNL     1      47.955   7.560  19.778  0.00  0.00    +0.000 A 
ATOM     26  N   UNL     1      47.599   8.478  20.717  0.00  0.00    +0.000 NA
ATOM     27  C   UNL     1      47.456   9.677  20.263  0.00  0.00    +0.000 A 
ATOM     28  N   UNL     1      47.610  10.037  18.951  0.00  0.00    +0.000 N 
ATOM     29  C   UNL     1      47.874   9.129  17.955  0.00  0.00    +0.000 A 
ATOM     30  O   UNL     1      47.839   9.454  16.772  0.00  0.00    +0.000 OA
ATOM     31  C   UNL     1      48.127   7.779  18.424  0.00  0.00    +0.000 A 
ATOM     32  H   UNL     1      47.437  10.984  18.651  0.00  0.00    +0.000 HD
ENDBRANCH  19  22
ENDBRANCH   1  20
TORSDOF 6
ENDMDL
MODEL 3
REMARK VINA RESULT:    -7.310      4.763      9.270
REMARK INTER + INTRA:         -10.863
REMARK INTER:                 -10.141
REMARK INTRA:                  -0.722
REMARK UNBOUND:                -0.988
REMARK  Name = 
REMARK  6 active torsions:
REMARK  status: ('A' for Active; 'I' for Inactive)
REMARK    1  A    between atoms: C_2  and  C_20
REMARK    2  A    between atoms: N_3  and  C_4
REMARK    3  A    between atoms: C_4  and  C_5
REMARK    4  A    between atoms: C_8  and  C_9
REMARK    5  A    between atoms: C_9  and  C_10
REMARK    6  A    between atoms: C_10  and  N_11
REMARK                            x       y       z     vdW  Elec       q    Type
REMARK                         _______ _______ _______ _____ _____    ______ ____
ROOT
ATOM      1  C   UNL     1      47.206   3.421  16.828  0.00  0.00    +0.000 C 
ENDROOT
BRANCH   1   2
ATOM      2  C   UNL     1      48.690   3.466  17.077  0.00  0.00    +0.000 A 
ATOM      3  C   UNL     1      49.314   4.688  17.345  0.00  0.00    +0.000 A 
ATOM      4  C   UNL     1      50.680   4.743  17.627  0.00  0.00    +0.000 A 
ATOM      5  C   UNL     1      51.465   3.581  17.639  0.00  0.00    +0.000 A 
ATOM      6  C   UNL     1      50.842   2.362  17.333  0.00  0.00    +0.000 A 
ATOM      7  C   UNL     1      49.472   2.306  17.048  0.00  0.00    +0.000 A 
BRANCH   5   8
ATOM      8  C   UNL     1      52.947   3.584  17.974  0.00  0.00    +0.000 C 
BRANCH   8   9
ATOM      9  C   UNL     1      53.515   2.222  18.391  0.00  0.00    +0.000 C 
BRANCH   9  10
ATOM     10  N   UNL     1      54.163   1.526  17.275  0.00  0.00    +0.000 N 
ATOM     11  C   UNL     1      54.329   0.148  17.551  0.00  0.00    +0.000 A 
ATOM     12  C   UNL     1      54.936  -0.690  16.611  0.00  0.00    +0.000 A 
ATOM     13  N   UNL     1      55.137  -2.020  16.799  0.00  0.00    +0.000 NA
ATOM     14  C   UNL     1      54.690  -2.501  17.978  0.00  0.00    +0.000 A 
ATOM     15  C   UNL     1      54.077  -1.694  18.916  0.00  0.00    +0.000 A 
ATOM     16  N   UNL     1      53.887  -0.370  18.721  0.00  0.00    +0.000 NA
ATOM     17  H   UNL     1      55.072   1.921  17.049  0.00  0.00    +0.000 HD
ENDBRANCH   9  10
ENDBRANCH   8   9
ENDBRANCH   5   8
ENDBRANCH   1   2
BRANCH   1  20
ATOM     18  O   UNL     1      47.229   3.097  14.032  0.00  0.00    +0.000 OA
ATOM     19  C   UNL     1      46.803   4.148  14.505  0.00  0.00    +0.000 C 
ATOM     20  N   UNL     1      46.797   4.398  15.852  0.00  0.00    +0.000 N 
ATOM     21  H   UNL     1      46.304   5.209  16.210  0.00  0.00    +0.000 HD
BRANCH  19  22
ATOM     22  C   UNL     1      46.312   5.226  13.637  0.00  0.00    +0.000 A 
ATOM     23  C   UNL     1      47.127   6.317  13.365  0.00  0.00    +0.000 A 
ATOM     24  S   UNL     1      46.417   7.459  12.315  0.00  0.00    +0.000 S 
ATOM     25  C   UNL     1      45.010   6.514  12.154  0.00  0.00    +0.000 A 
ATOM     26  N   UNL     1      43.998   6.902  11.332  0.00  0.00    +0.000 NA
ATOM     27  C   UNL     1      43.013   6.070  11.271  0.00  0.00    +0.000 A 
ATOM     28  N   UNL     1      42.936   4.899  11.975  0.00  0.00    +0.000 N 
ATOM     29  C   UNL     1      43.889   4.515  12.887  0.00  0.00    +0.000 A 
ATOM     30  O   UNL     1      43.711   3.548  13.623  0.00  0.00    +0.000 OA
ATOM     31  C   UNL     1      45.058   5.372  12.933  0.00  0.00    +0.000 A 
ATOM     32  H   UNL     1      42.117   4.314  11.919  0.00  0.00    +0.000 HD
ENDBRANCH  19  22
ENDBRANCH   1  20
TORSDOF 6
ENDMDL
MODEL 4
REMARK VINA RESULT:    -7.255      3.009      8.583
REMARK INTER + INTRA:         -10.787
REMARK INTER:                  -9.485
REMARK INTRA:                  -1.302
REMARK UNBOUND:                -0.988
REMARK  Name = 
REMARK  6 active torsions:
REMARK  status: ('A' for Active; 'I' for Inactive)
REMARK    1  A    between atoms: C_2  and  C_20
REMARK    2  A    between atoms: N_3  and  C_4
REMARK    3  A    between atoms: C_4  and  C_5
REMARK    4  A    between atoms: C_8  and  C_9
REMARK    5  A    between atoms: C_9  and  C_10
REMARK    6  A    between atoms: C_10  and  N_11
REMARK                            x       y       z     vdW  Elec       q    Type
REMARK                         _______ _______ _______ _____ _____    ______ ____
ROOT
ATOM      1  C   UNL     1      47.663   7.928  11.872  0.00  0.00    +0.000 C 
ENDROOT
BRANCH   1   2
ATOM      2  C   UNL     1      48.290   8.065  13.234  0.00  0.00    +0.000 A 
ATOM      3  C   UNL     1      47.771   8.984  14.150  0.00  0.00    +0.000 A 
ATOM      4  C   UNL     1      48.308   9.089  15.434  0.00  0.00    +0.000 A 
ATOM      5  C   UNL     1      49.385   8.286  15.838  0.00  0.00    +0.000 A 
ATOM      6  C   UNL     1      49.926   7.392  14.903  0.00  0.00    +0.000 A 
ATOM      7  C   UNL     1      49.390   7.287  13.613  0.00  0.00    +0.000 A 
BRANCH   5   8
ATOM      8  C   UNL     1      49.981   8.339  17.234  0.00  0.00    +0.000 C 
BRANCH   8   9
ATOM      9  C   UNL     1      49.785   7.066  18.065  0.00  0.00    +0.000 C 
BRANCH   9  10
ATOM     10  N   UNL     1      48.391   6.608  18.060  0.00  0.00    +0.000 N 
ATOM     11  C   UNL     1      48.297   5.237  17.723  0.00  0.00    +0.000 A 
ATOM     12  C   UNL     1      47.049   4.613  17.659  0.00  0.00    +0.000 A 
ATOM     13  N   UNL     1      46.871   3.305  17.339  0.00  0.00    +0.000 NA
ATOM     14  C   UNL     1      48.008   2.620  17.095  0.00  0.00    +0.000 A 
ATOM     15  C   UNL     1      49.252   3.214  17.165  0.00  0.00    +0.000 A 
ATOM     16  N   UNL     1      49.418   4.518  17.478  0.00  0.00    +0.000 NA
ATOM     17  H   UNL     1      47.813   7.140  17.414  0.00  0.00    +0.000 HD
ENDBRANCH   9  10
ENDBRANCH   8   9
ENDBRANCH   5   8
ENDBRANCH   1   2
BRANCH   1  20
ATOM     18  O   UNL     1      44.879   7.542  12.037  0.00  0.00    +0.000 OA
ATOM     19  C   UNL     1      45.599   6.578  11.785  0.00  0.00    +0.000 C 
ATOM     20  N   UNL     1      46.964   6.676  11.728  0.00  0.00    +0.000 N 
ATOM     21  H   UNL     1      47.508   5.898  11.372  0.00  0.00    +0.000 HD
BRANCH  19  22
ATOM     22  C   UNL     1      45.029   5.241  11.571  0.00  0.00    +0.000 A 
ATOM     23  C   UNL     1      44.360   4.605  12.609  0.00  0.00    +0.000 A 
ATOM     24  S   UNL     1      43.732   3.077  12.183  0.00  0.00    +0.000 S 
ATOM     25  C   UNL     1      44.298   3.231  10.585  0.00  0.00    +0.000 A 
ATOM     26  N   UNL     1      44.044   2.268   9.657  0.00  0.00    +0.000 NA
ATOM     27  C   UNL     1      44.491   2.535   8.476  0.00  0.00    +0.000 A 
ATOM     28  N   UNL     1      45.191   3.664   8.144  0.00  0.00    +0.000 N 
ATOM     29  C   UNL     1      45.552   4.615   9.067  0.00  0.00    +0.000 A 
ATOM     30  O   UNL     1      46.321   5.526   8.774  0.00  0.00    +0.000 OA
ATOM     31  C   UNL     1      45.003   4.405  10.393  0.00  0.00    +0.000 A 
ATOM     32  H   UNL     1      45.555   3.791   7.212  0.00  0.00    +0.000 HD
ENDBRANCH  19  22
ENDBRANCH   1  20
TORSDOF 6
ENDMDL
MODEL 5
REMARK VINA RESULT:    -7.020      3.754      8.241
REMARK INTER + INTRA:         -10.471
REMARK INTER:                  -9.252
REMARK INTRA:                  -1.219
REMARK UNBOUND:                -0.988
REMARK  Name = 
REMARK  6 active torsions:
REMARK  status: ('A' for Active; 'I' for Inactive)
REMARK    1  A    between atoms: C_2  and  C_20
REMARK    2  A    between atoms: N_3  and  C_4
REMARK    3  A    between atoms: C_4  and  C_5
REMARK    4  A    between atoms: C_8  and  C_9
REMARK    5  A    between atoms: C_9  and  C_10
REMARK    6  A    between atoms: C_10  and  N_11
REMARK                            x       y       z     vdW  Elec       q    Type
REMARK                         _______ _______ _______ _____ _____    ______ ____
ROOT
ATOM      1  C   UNL     1      48.484   8.448  14.598  0.00  0.00    +0.000 C 
ENDROOT
BRANCH   1   2
ATOM      2  C   UNL     1      49.215   7.910  15.799  0.00  0.00    +0.000 A 
ATOM      3  C   UNL     1      48.632   7.999  17.066  0.00  0.00    +0.000 A 
ATOM      4  C   UNL     1      49.273   7.461  18.184  0.00  0.00    +0.000 A 
ATOM      5  C   UNL     1      50.520   6.829  18.070  0.00  0.00    +0.000 A 
ATOM      6  C   UNL     1      51.118   6.775  16.803  0.00  0.00    +0.000 A 
ATOM      7  C   UNL     1      50.477   7.316  15.681  0.00  0.00    +0.000 A 
BRANCH   5   8
ATOM      8  C   UNL     1      51.240   6.198  19.250  0.00  0.00    +0.000 C 
BRANCH   8   9
ATOM      9  C   UNL     1      50.718   4.815  19.657  0.00  0.00    +0.000 C 
BRANCH   9  10
ATOM     10  N   UNL     1      51.210   3.753  18.773  0.00  0.00    +0.000 N 
ATOM     11  C   UNL     1      50.184   3.266  17.929  0.00  0.00    +0.000 A 
ATOM     12  C   UNL     1      50.452   2.243  17.016  0.00  0.00    +0.000 A 
ATOM     13  N   UNL     1      49.525   1.716  16.173  0.00  0.00    +0.000 NA
ATOM     14  C   UNL     1      48.296   2.267  16.265  0.00  0.00    +0.000 A 
ATOM     15  C   UNL     1      48.013   3.287  17.152  0.00  0.00    +0.000 A 
ATOM     16  N   UNL     1      48.942   3.800  17.990  0.00  0.00    +0.000 NA
ATOM     17  H   UNL     1      51.600   2.970  19.291  0.00  0.00    +0.000 HD
ENDBRANCH   9  10
ENDBRANCH   8   9
ENDBRANCH   5   8
ENDBRANCH   1   2
BRANCH   1  20
ATOM     18  O   UNL     1      48.910   6.262  12.877  0.00  0.00    +0.000 OA
ATOM     19  C   UNL     1      47.780   6.461  13.315  0.00  0.00    +0.000 C 
ATOM     20  N   UNL     1      47.484   7.526  14.124  0.00  0.00    +0.000 N 
ATOM     21  H   UNL     1      46.580   7.572  14.583  0.00  0.00    +0.000 HD
BRANCH  19  22
ATOM     22  C   UNL     1      46.661   5.581  12.955  0.00  0.00    +0.000 A 
ATOM     23  C   UNL     1      46.716   4.230  13.274  0.00  0.00    +0.000 A 
ATOM     24  S   UNL     1      45.322   3.360  12.815  0.00  0.00    +0.000 S 
ATOM     25  C   UNL     1      44.579   4.767  12.211  0.00  0.00    +0.000 A 
ATOM     26  N   UNL     1      43.315   4.729  11.708  0.00  0.00    +0.000 NA
ATOM     27  C   UNL     1      42.859   5.875  11.328  0.00  0.00    +0.000 A 
ATOM     28  N   UNL     1      43.559   7.050  11.379  0.00  0.00    +0.000 N 
ATOM     29  C   UNL     1      44.868   7.118  11.789  0.00  0.00    +0.000 A 
ATOM     30  O   UNL     1      45.520   8.152  11.664  0.00  0.00    +0.000 OA
ATOM     31  C   UNL     1      45.403   5.874  12.306  0.00  0.00    +0.000 A 
ATOM     32  H   UNL     1      43.162   7.905  11.021  0.00  0.00    +0.000 HD
ENDBRANCH  19  22
ENDBRANCH   1  20
TORSDOF 6
ENDMDL
MODEL 6
REMARK VINA RESULT:    -6.904      3.658      8.012
REMARK INTER + INTRA:         -10.314
REMARK INTER:                  -8.854
REMARK INTRA:                  -1.460
REMARK UNBOUND:                -0.988
REMARK  Name = 
REMARK  6 active torsions:
REMARK  status: ('A' for Active; 'I' for Inactive)
REMARK    1  A    between atoms: C_2  and  C_20
REMARK    2  A    between atoms: N_3  and  C_4
REMARK    3  A    between atoms: C_4  and  C_5
REMARK    4  A    between atoms: C_8  and  C_9
REMARK    5  A    between atoms: C_9  and  C_10
REMARK    6  A    between atoms: C_10  and  N_11
REMARK                            x       y       z     vdW  Elec       q    Type
REMARK                         _______ _______ _______ _____ _____    ______ ____
ROOT
ATOM      1  C   UNL     1      48.237   9.117  15.021  0.00  0.00    +0.000 C 
ENDROOT
BRANCH   1   2
ATOM      2  C   UNL     1      48.924   8.360  16.126  0.00  0.00    +0.000 A 
ATOM      3  C   UNL     1      49.937   7.447  15.820  0.00  0.00    +0.000 A 
ATOM      4  C   UNL     1      50.619   6.773  16.834  0.00  0.00    +0.000 A 
ATOM      5  C   UNL     1      50.301   6.982  18.184  0.00  0.00    +0.000 A 
ATOM      6  C   UNL     1      49.258   7.871  18.485  0.00  0.00    +0.000 A 
ATOM      7  C   UNL     1      48.572   8.546  17.468  0.00  0.00    +0.000 A 
BRANCH   5   8
ATOM      8  C   UNL     1      51.036   6.299  19.325  0.00  0.00    +0.000 C 
BRANCH   8   9
ATOM      9  C   UNL     1      50.510   4.906  19.685  0.00  0.00    +0.000 C 
BRANCH   9  10
ATOM     10  N   UNL     1      51.081   3.858  18.831  0.00  0.00    +0.000 N 
ATOM     11  C   UNL     1      50.109   3.318  17.955  0.00  0.00    +0.000 A 
ATOM     12  C   UNL     1      50.456   2.300  17.063  0.00  0.00    +0.000 A 
ATOM     13  N   UNL     1      49.584   1.725  16.194  0.00  0.00    +0.000 NA
ATOM     14  C   UNL     1      48.330   2.221  16.235  0.00  0.00    +0.000 A 
ATOM     15  C   UNL     1      47.969   3.235  17.100  0.00  0.00    +0.000 A 
ATOM     16  N   UNL     1      48.843   3.796  17.966  0.00  0.00    +0.000 NA
ATOM     17  H   UNL     1      51.486   3.099  19.371  0.00  0.00    +0.000 HD
ENDBRANCH   9  10
ENDBRANCH   8   9
ENDBRANCH   5   8
ENDBRANCH   1   2
BRANCH   1  20
ATOM     18  O   UNL     1      47.914   8.689  12.258  0.00  0.00    +0.000 OA
ATOM     19  C   UNL     1      47.141   8.139  13.038  0.00  0.00    +0.000 C 
ATOM     20  N   UNL     1      47.206   8.330  14.393  0.00  0.00    +0.000 N 
ATOM     21  H   UNL     1      46.651   7.746  15.009  0.00  0.00    +0.000 HD
BRANCH  19  22
ATOM     22  C   UNL     1      46.061   7.270  12.551  0.00  0.00    +0.000 A 
ATOM     23  C   UNL     1      45.039   7.809  11.780  0.00  0.00    +0.000 A 
ATOM     24  S   UNL     1      43.887   6.659  11.270  0.00  0.00    +0.000 S 
ATOM     25  C   UNL     1      44.738   5.393  12.027  0.00  0.00    +0.000 A 
ATOM     26  N   UNL     1      44.308   4.106  11.929  0.00  0.00    +0.000 NA
ATOM     27  C   UNL     1      45.072   3.244  12.511  0.00  0.00    +0.000 A 
ATOM     28  N   UNL     1      46.211   3.554  13.205  0.00  0.00    +0.000 N 
ATOM     29  C   UNL     1      46.629   4.846  13.410  0.00  0.00    +0.000 A 
ATOM     30  O   UNL     1      47.555   5.100  14.174  0.00  0.00    +0.000 OA
ATOM     31  C   UNL     1      45.853   5.849  12.706  0.00  0.00    +0.000 A 
ATOM     32  H   UNL     1      46.739   2.837  13.678  0.00  0.00    +0.000 HD
ENDBRANCH  19  22
ENDBRANCH   1  20
TORSDOF 6
ENDMDL
MODEL 7
REMARK VINA RESULT:    -6.582      3.342      8.989
REMARK INTER + INTRA:          -9.878
REMARK INTER:                  -9.125
REMARK INTRA:                  -0.753
REMARK UNBOUND:                -0.988
REMARK  Name = 
REMARK  6 active torsions:
REMARK  status: ('A' for Active; 'I' for Inactive)
REMARK    1  A    between atoms: C_2  and  C_20
REMARK    2  A    between atoms: N_3  and  C_4
REMARK    3  A    between atoms: C_4  and  C_5
REMARK    4  A    between atoms: C_8  and  C_9
REMARK    5  A    between atoms: C_9  and  C_10
REMARK    6  A    between atoms: C_10  and  N_11
REMARK                            x       y       z     vdW  Elec       q    Type
REMARK                         _______ _______ _______ _____ _____    ______ ____
ROOT
ATOM      1  C   UNL     1      47.727   7.703  12.446  0.00  0.00    +0.000 C 
ENDROOT
BRANCH   1   2
ATOM      2  C   UNL     1      48.694   7.545  13.589  0.00  0.00    +0.000 A 
ATOM      3  C   UNL     1      48.317   6.825  14.726  0.00  0.00    +0.000 A 
ATOM      4  C   UNL     1      49.217   6.625  15.774  0.00  0.00    +0.000 A 
ATOM      5  C   UNL     1      50.517   7.149  15.723  0.00  0.00    +0.000 A 
ATOM      6  C   UNL     1      50.879   7.904  14.597  0.00  0.00    +0.000 A 
ATOM      7  C   UNL     1      49.976   8.106  13.545  0.00  0.00    +0.000 A 
BRANCH   5   8
ATOM      8  C   UNL     1      51.543   6.931  16.821  0.00  0.00    +0.000 C 
BRANCH   8   9
ATOM      9  C   UNL     1      51.117   5.942  17.911  0.00  0.00    +0.000 C 
BRANCH   9  10
ATOM     10  N   UNL     1      52.226   5.089  18.352  0.00  0.00    +0.000 N 
ATOM     11  C   UNL     1      51.981   3.727  18.058  0.00  0.00    +0.000 A 
ATOM     12  C   UNL     1      52.919   2.752  18.407  0.00  0.00    +0.000 A 
ATOM     13  N   UNL     1      52.759   1.425  18.165  0.00  0.00    +0.000 NA
ATOM     14  C   UNL     1      51.611   1.096  17.536  0.00  0.00    +0.000 A 
ATOM     15  C   UNL     1      50.676   2.045  17.172  0.00  0.00    +0.000 A 
ATOM     16  N   UNL     1      50.843   3.362  17.422  0.00  0.00    +0.000 NA
ATOM     17  H   UNL     1      52.407   5.176  19.349  0.00  0.00    +0.000 HD
ENDBRANCH   9  10
ENDBRANCH   8   9
ENDBRANCH   5   8
ENDBRANCH   1   2
BRANCH   1  20
ATOM     18  O   UNL     1      45.043   7.530  11.616  0.00  0.00    +0.000 OA
ATOM     19  C   UNL     1      45.688   6.494  11.762  0.00  0.00    +0.000 C 
ATOM     20  N   UNL     1      46.985   6.493  12.202  0.00  0.00    +0.000 N 
ATOM     21  H   UNL     1      47.526   5.636  12.167  0.00  0.00    +0.000 HD
BRANCH  19  22
ATOM     22  C   UNL     1      45.080   5.180  11.512  0.00  0.00    +0.000 A 
ATOM     23  C   UNL     1      44.399   4.532  12.534  0.00  0.00    +0.000 A 
ATOM     24  S   UNL     1      43.726   3.035  12.066  0.00  0.00    +0.000 S 
ATOM     25  C   UNL     1      44.288   3.222  10.470  0.00  0.00    +0.000 A 
ATOM     26  N   UNL     1      44.002   2.295   9.516  0.00  0.00    +0.000 NA
ATOM     27  C   UNL     1      44.451   2.585   8.341  0.00  0.00    +0.000 A 
ATOM     28  N   UNL     1      45.181   3.703   8.038  0.00  0.00    +0.000 N 
ATOM     29  C   UNL     1      45.573   4.615   8.987  0.00  0.00    +0.000 A 
ATOM     30  O   UNL     1      46.365   5.513   8.717  0.00  0.00    +0.000 OA
ATOM     31  C   UNL     1      45.025   4.381  10.310  0.00  0.00    +0.000 A 
ATOM     32  H   UNL     1      45.543   3.848   7.109  0.00  0.00    +0.000 HD
ENDBRANCH  19  22
ENDBRANCH   1  20
TORSDOF 6
ENDMDL
MODEL 8
REMARK VINA RESULT:    -6.207      3.605      8.777
REMARK INTER + INTRA:          -9.373
REMARK INTER:                  -8.648
REMARK INTRA:                  -0.725
REMARK UNBOUND:                -0.988
REMARK  Name = 
REMARK  6 active torsions:
REMARK  status: ('A' for Active; 'I' for Inactive)
REMARK    1  A    between atoms: C_2  and  C_20
REMARK    2  A    between atoms: N_3  and  C_4
REMARK    3  A    between atoms: C_4  and  C_5
REMARK    4  A    between atoms: C_8  and  C_9
REMARK    5  A    between atoms: C_9  and  C_10
REMARK    6  A    between atoms: C_10  and  N_11
REMARK                            x       y       z     vdW  Elec       q    Type
REMARK                         _______ _______ _______ _____ _____    ______ ____
ROOT
ATOM      1  C   UNL     1      47.696   8.284  12.636  0.00  0.00    +0.000 C 
ENDROOT
BRANCH   1   2
ATOM      2  C   UNL     1      48.545   7.891  13.816  0.00  0.00    +0.000 A 
ATOM      3  C   UNL     1      49.660   8.660  14.159  0.00  0.00    +0.000 A 
ATOM      4  C   UNL     1      50.429   8.340  15.279  0.00  0.00    +0.000 A 
ATOM      5  C   UNL     1      50.114   7.235  16.083  0.00  0.00    +0.000 A 
ATOM      6  C   UNL     1      49.017   6.443  15.713  0.00  0.00    +0.000 A 
ATOM      7  C   UNL     1      48.245   6.762  14.589  0.00  0.00    +0.000 A 
BRANCH   5   8
ATOM      8  C   UNL     1      50.899   6.865  17.330  0.00  0.00    +0.000 C 
BRANCH   8   9
ATOM      9  C   UNL     1      50.707   5.420  17.805  0.00  0.00    +0.000 C 
BRANCH   9  10
ATOM     10  N   UNL     1      51.929   4.862  18.394  0.00  0.00    +0.000 N 
ATOM     11  C   UNL     1      52.020   3.467  18.175  0.00  0.00    +0.000 A 
ATOM     12  C   UNL     1      53.112   2.748  18.666  0.00  0.00    +0.000 A 
ATOM     13  N   UNL     1      53.273   1.408  18.503  0.00  0.00    +0.000 NA
ATOM     14  C   UNL     1      52.292   0.799  17.805  0.00  0.00    +0.000 A 
ATOM     15  C   UNL     1      51.210   1.493  17.300  0.00  0.00    +0.000 A 
ATOM     16  N   UNL     1      51.057   2.825  17.473  0.00  0.00    +0.000 NA
ATOM     17  H   UNL     1      51.990   5.036  19.394  0.00  0.00    +0.000 HD
ENDBRANCH   9  10
ENDBRANCH   8   9
ENDBRANCH   5   8
ENDBRANCH   1   2
BRANCH   1  20
ATOM     18  O   UNL     1      45.058   8.061  11.681  0.00  0.00    +0.000 OA
ATOM     19  C   UNL     1      45.831   7.120  11.516  0.00  0.00    +0.000 C 
ATOM     20  N   UNL     1      47.117   7.135  11.988  0.00  0.00    +0.000 N 
ATOM     21  H   UNL     1      47.764   6.408  11.704  0.00  0.00    +0.000 HD
BRANCH  19  22
ATOM     22  C   UNL     1      45.398   5.893  10.835  0.00  0.00    +0.000 A 
ATOM     23  C   UNL     1      45.761   5.675   9.512  0.00  0.00    +0.000 A 
ATOM     24  S   UNL     1      45.205   4.189   8.885  0.00  0.00    +0.000 S 
ATOM     25  C   UNL     1      44.495   3.767  10.373  0.00  0.00    +0.000 A 
ATOM     26  N   UNL     1      43.883   2.563  10.538  0.00  0.00    +0.000 NA
ATOM     27  C   UNL     1      43.429   2.355  11.728  0.00  0.00    +0.000 A 
ATOM     28  N   UNL     1      43.508   3.251  12.761  0.00  0.00    +0.000 N 
ATOM     29  C   UNL     1      44.031   4.512  12.613  0.00  0.00    +0.000 A 
ATOM     30  O   UNL     1      43.934   5.349  13.507  0.00  0.00    +0.000 OA
ATOM     31  C   UNL     1      44.631   4.768  11.318  0.00  0.00    +0.000 A 
ATOM     32  H   UNL     1      43.090   3.047  13.656  0.00  0.00    +0.000 HD
ENDBRANCH  19  22
ENDBRANCH   1  20
TORSDOF 6
ENDMDL
MODEL 9
REMARK VINA RESULT:    -6.129      3.677      5.512
REMARK INTER + INTRA:          -9.267
REMARK INTER:                  -8.456
REMARK INTRA:                  -0.811
REMARK UNBOUND:                -0.988
REMARK  Name = 
REMARK  6 active torsions:
REMARK  status: ('A' for Active; 'I' for Inactive)
REMARK    1  A    between atoms: C_2  and  C_20
REMARK    2  A    between atoms: N_3  and  C_4
REMARK    3  A    between atoms: C_4  and  C_5
REMARK    4  A    between atoms: C_8  and  C_9
REMARK    5  A    between atoms: C_9  and  C_10
REMARK    6  A    between atoms: C_10  and  N_11
REMARK                            x       y       z     vdW  Elec       q    Type
REMARK                         _______ _______ _______ _____ _____    ______ ____
ROOT
ATOM      1  C   UNL     1      48.674   4.277  17.485  0.00  0.00    +0.000 C 
ENDROOT
BRANCH   1   2
ATOM      2  C   UNL     1      48.329   5.108  16.277  0.00  0.00    +0.000 A 
ATOM      3  C   UNL     1      48.914   6.366  16.107  0.00  0.00    +0.000 A 
ATOM      4  C   UNL     1      48.645   7.128  14.969  0.00  0.00    +0.000 A 
ATOM      5  C   UNL     1      47.775   6.661  13.973  0.00  0.00    +0.000 A 
ATOM      6  C   UNL     1      47.161   5.415  14.166  0.00  0.00    +0.000 A 
ATOM      7  C   UNL     1      47.429   4.650  15.308  0.00  0.00    +0.000 A 
BRANCH   5   8
ATOM      8  C   UNL     1      47.476   7.437  12.702  0.00  0.00    +0.000 C 
BRANCH   8   9
ATOM      9  C   UNL     1      46.851   6.608  11.575  0.00  0.00    +0.000 C 
BRANCH   9  10
ATOM     10  N   UNL     1      45.400   6.799  11.484  0.00  0.00    +0.000 N 
ATOM     11  C   UNL     1      44.714   5.561  11.482  0.00  0.00    +0.000 A 
ATOM     12  C   UNL     1      43.319   5.530  11.394  0.00  0.00    +0.000 A 
ATOM     13  N   UNL     1      42.586   4.387  11.382  0.00  0.00    +0.000 NA
ATOM     14  C   UNL     1      43.305   3.249  11.476  0.00  0.00    +0.000 A 
ATOM     15  C   UNL     1      44.683   3.257  11.575  0.00  0.00    +0.000 A 
ATOM     16  N   UNL     1      45.403   4.401  11.581  0.00  0.00    +0.000 NA
ATOM     17  H   UNL     1      45.130   7.318  10.652  0.00  0.00    +0.000 HD
ENDBRANCH   9  10
ENDBRANCH   8   9
ENDBRANCH   5   8
ENDBRANCH   1   2
BRANCH   1  20
ATOM     18  O   UNL     1      50.515   4.771  19.557  0.00  0.00    +0.000 OA
ATOM     19  C   UNL     1      50.890   4.150  18.565  0.00  0.00    +0.000 C 
ATOM     20  N   UNL     1      50.066   3.905  17.498  0.00  0.00    +0.000 N 
ATOM     21  H   UNL     1      50.365   3.265  16.770  0.00  0.00    +0.000 HD
BRANCH  19  22
ATOM     22  C   UNL     1      52.272   3.668  18.450  0.00  0.00    +0.000 A 
ATOM     23  C   UNL     1      53.325   4.505  18.795  0.00  0.00    +0.000 A 
ATOM     24  S   UNL     1      54.859   3.779  18.635  0.00  0.00    +0.000 S 
ATOM     25  C   UNL     1      54.168   2.305  18.136  0.00  0.00    +0.000 A 
ATOM     26  N   UNL     1      54.947   1.219  17.882  0.00  0.00    +0.000 NA
ATOM     27  C   UNL     1      54.289   0.157  17.558  0.00  0.00    +0.000 A 
ATOM     28  N   UNL     1      52.927   0.088  17.439  0.00  0.00    +0.000 N 
ATOM     29  C   UNL     1      52.111   1.182  17.593  0.00  0.00    +0.000 A 
ATOM     30  O   UNL     1      50.916   1.128  17.316  0.00  0.00    +0.000 OA
ATOM     31  C   UNL     1      52.791   2.383  18.040  0.00  0.00    +0.000 A 
ATOM     32  H   UNL     1      52.476  -0.761  17.135  0.00  0.00    +0.000 HD
ENDBRANCH  19  22
ENDBRANCH   1  20
TORSDOF 6
ENDMDL
