MODEL 1
REMARK VINA RESULT:    -8.159      0.000      0.000
REMARK INTER + INTRA:         -11.950
REMARK INTER:                 -11.737
REMARK INTRA:                  -0.214
REMARK UNBOUND:                -0.214
REMARK  Name = 
REMARK  9 active torsions:
REMARK  status: ('A' for Active; 'I' for Inactive)
REMARK    1  A    between atoms: C_1  and  N_2
REMARK    2  A    between atoms: C_6  and  C_7
REMARK    3  A    between atoms: N_9  and  C_10
REMARK    4  A    between atoms: C_10  and  C_11
REMARK    5  A    between atoms: C_10  and  C_13
REMARK    6  A    between atoms: C_11  and  N_12
REMARK    7  A    between atoms: C_16  and  C_17
REMARK    8  A    between atoms: C_17  and  N_18
REMARK    9  A    between atoms: C_19  and  C_21
REMARK                            x       y       z     vdW  Elec       q    Type
REMARK                         _______ _______ _______ _____ _____    ______ ____
ROOT
ATOM      1  C   UNL     1      45.463   4.637  12.104  0.00  0.00    +0.000 A 
ATOM      2  C   UNL     1      45.674   5.875  11.447  0.00  0.00    +0.000 A 
ATOM      3  C   UNL     1      46.605   6.822  11.906  0.00  0.00    +0.000 A 
ATOM      4  C   UNL     1      47.350   6.574  13.059  0.00  0.00    +0.000 A 
ATOM      5  C   UNL     1      47.140   5.361  13.732  0.00  0.00    +0.000 A 
ATOM      6  C   UNL     1      46.211   4.411  13.265  0.00  0.00    +0.000 A 
ENDROOT
BRANCH   1   7
ATOM      7  C   UNL     1      44.397   3.636  11.595  0.00  0.00    +0.000 C 
BRANCH   7  10
ATOM      8  C   UNL     1      45.018   3.060   9.199  0.00  0.00    +0.000 C 
ATOM      9  O   UNL     1      44.521   4.094   8.758  0.00  0.00    +0.000 OA
ATOM     10  N   UNL     1      44.877   2.699  10.544  0.00  0.00    +0.000 N 
ATOM     11  H   UNL     1      45.398   1.907  10.881  0.00  0.00    +0.000 HD
BRANCH   8  17
ATOM     12  C   UNL     1      47.196   3.806   6.925  0.00  0.00    +0.000 C 
ATOM     13  N   UNL     1      46.803   2.513   7.444  0.00  0.00    +0.000 N 
ATOM     14  N   UNL     1      47.466   1.451   6.930  0.00  0.00    +0.000 NA
ATOM     15  C   UNL     1      46.868   0.397   7.469  0.00  0.00    +0.000 A 
ATOM     16  C   UNL     1      45.840   0.771   8.346  0.00  0.00    +0.000 A 
ATOM     17  C   UNL     1      45.827   2.163   8.373  0.00  0.00    +0.000 A 
ENDBRANCH   8  17
ENDBRANCH   7  10
BRANCH   7  18
ATOM     18  C   UNL     1      43.120   4.370  11.057  0.00  0.00    +0.000 C 
BRANCH  18  19
ATOM     19  N   UNL     1      42.279   4.956  12.112  0.00  0.00    +0.000 NA
ATOM     20  H   UNL     1      42.728   5.766  12.529  0.00  0.00    +0.000 HD
ATOM     21  H   UNL     1      41.380   5.249  11.736  0.00  0.00    +0.000 HD
ENDBRANCH  18  19
ENDBRANCH   7  18
ENDBRANCH   1   7
BRANCH   4  22
ATOM     22  C   UNL     1      48.228   7.644  13.666  0.00  0.00    +0.000 C 
BRANCH  22  23
ATOM     23  N   UNL     1      48.187   7.515  15.101  0.00  0.00    +0.000 N 
ATOM     24  C   UNL     1      49.240   7.092  15.862  0.00  0.00    +0.000 C 
ATOM     25  O   UNL     1      50.332   6.808  15.377  0.00  0.00    +0.000 OA
ATOM     26  H   UNL     1      47.259   7.523  15.511  0.00  0.00    +0.000 HD
BRANCH  24  27
ATOM     27  C   UNL     1      49.003   7.072  17.312  0.00  0.00    +0.000 A 
ATOM     28  C   UNL     1      48.732   8.254  17.987  0.00  0.00    +0.000 A 
ATOM     29  S   UNL     1      48.384   8.031  19.642  0.00  0.00    +0.000 S 
ATOM     30  C   UNL     1      48.643   6.354  19.527  0.00  0.00    +0.000 A 
ATOM     31  N   UNL     1      48.512   5.554  20.615  0.00  0.00    +0.000 NA
ATOM     32  C   UNL     1      48.745   4.300  20.401  0.00  0.00    +0.000 A 
ATOM     33  N   UNL     1      49.107   3.780  19.180  0.00  0.00    +0.000 N 
ATOM     34  C   UNL     1      49.246   4.553  18.047  0.00  0.00    +0.000 A 
ATOM     35  O   UNL     1      49.563   4.051  16.974  0.00  0.00    +0.000 OA
ATOM     36  C   UNL     1      48.981   5.965  18.244  0.00  0.00    +0.000 A 
ATOM     37  H   UNL     1      49.280   2.792  19.062  0.00  0.00    +0.000 HD
ENDBRANCH  24  27
ENDBRANCH  22  23
ENDBRANCH   4  22
TORSDOF 8
ENDMDL
MODEL 2
REMARK VINA RESULT:    -7.586      3.552      9.096
REMARK INTER + INTRA:         -11.125
REMARK INTER:                 -10.113
REMARK INTRA:                  -1.012
REMARK UNBOUND:                -0.214
REMARK  Name = 
REMARK  9 active torsions:
REMARK  status: ('A' for Active; 'I' for Inactive)
REMARK    1  A    between atoms: C_1  and  N_2
REMARK    2  A    between atoms: C_6  and  C_7
REMARK    3  A    between atoms: N_9  and  C_10
REMARK    4  A    between atoms: C_10  and  C_11
REMARK    5  A    between atoms: C_10  and  C_13
REMARK    6  A    between atoms: C_11  and  N_12
REMARK    7  A    between atoms: C_16  and  C_17
REMARK    8  A    between atoms: C_17  and  N_18
REMARK    9  A    between atoms: C_19  and  C_21
REMARK                            x       y       z     vdW  Elec       q    Type
REMARK                         _______ _______ _______ _____ _____    ______ ____
ROOT
ATOM      1  C   UNL     1      49.188   5.678  16.847  0.00  0.00    +0.000 A 
ATOM      2  C   UNL     1      49.900   6.801  16.356  0.00  0.00    +0.000 A 
ATOM      3  C   UNL     1      49.580   7.421  15.137  0.00  0.00    +0.000 A 
ATOM      4  C   UNL     1      48.543   6.927  14.347  0.00  0.00    +0.000 A 
ATOM      5  C   UNL     1      47.840   5.803  14.808  0.00  0.00    +0.000 A 
ATOM      6  C   UNL     1      48.158   5.188  16.035  0.00  0.00    +0.000 A 
ENDROOT
BRANCH   1   7
ATOM      7  C   UNL     1      49.595   4.991  18.173  0.00  0.00    +0.000 C 
BRANCH   7  10
ATOM      8  C   UNL     1      51.775   3.745  17.779  0.00  0.00    +0.000 C 
ATOM      9  O   UNL     1      52.371   4.769  17.452  0.00  0.00    +0.000 OA
ATOM     10  N   UNL     1      50.394   3.747  18.009  0.00  0.00    +0.000 N 
ATOM     11  H   UNL     1      49.974   2.915  18.387  0.00  0.00    +0.000 HD
BRANCH   8  17
ATOM     12  C   UNL     1      54.320   3.113  19.675  0.00  0.00    +0.000 C 
ATOM     13  N   UNL     1      53.518   2.217  18.869  0.00  0.00    +0.000 N 
ATOM     14  N   UNL     1      53.856   0.908  18.941  0.00  0.00    +0.000 NA
ATOM     15  C   UNL     1      53.067   0.316  18.053  0.00  0.00    +0.000 A 
ATOM     16  C   UNL     1      52.205   1.228  17.429  0.00  0.00    +0.000 A 
ATOM     17  C   UNL     1      52.462   2.472  17.999  0.00  0.00    +0.000 A 
ENDBRANCH   8  17
ENDBRANCH   7  10
BRANCH   7  18
ATOM     18  C   UNL     1      48.347   4.663  19.064  0.00  0.00    +0.000 C 
BRANCH  18  19
ATOM     19  N   UNL     1      48.586   3.612  20.065  0.00  0.00    +0.000 NA
ATOM     20  H   UNL     1      48.220   2.718  19.749  0.00  0.00    +0.000 HD
ATOM     21  H   UNL     1      49.581   3.502  20.243  0.00  0.00    +0.000 HD
ENDBRANCH  18  19
ENDBRANCH   7  18
ENDBRANCH   1   7
BRANCH   4  22
ATOM     22  C   UNL     1      48.293   7.469  12.958  0.00  0.00    +0.000 C 
BRANCH  22  23
ATOM     23  N   UNL     1      47.489   6.519  12.230  0.00  0.00    +0.000 N 
ATOM     24  C   UNL     1      46.290   6.821  11.648  0.00  0.00    +0.000 C 
ATOM     25  O   UNL     1      45.807   7.950  11.678  0.00  0.00    +0.000 OA
ATOM     26  H   UNL     1      47.734   5.545  12.370  0.00  0.00    +0.000 HD
BRANCH  24  27
ATOM     27  C   UNL     1      45.649   5.719  10.917  0.00  0.00    +0.000 A 
ATOM     28  C   UNL     1      45.822   5.604   9.545  0.00  0.00    +0.000 A 
ATOM     29  S   UNL     1      45.092   4.214   8.878  0.00  0.00    +0.000 S 
ATOM     30  C   UNL     1      44.468   3.750  10.390  0.00  0.00    +0.000 A 
ATOM     31  N   UNL     1      43.722   2.623  10.519  0.00  0.00    +0.000 NA
ATOM     32  C   UNL     1      43.298   2.384  11.716  0.00  0.00    +0.000 A 
ATOM     33  N   UNL     1      43.555   3.189  12.801  0.00  0.00    +0.000 N 
ATOM     34  C   UNL     1      44.312   4.339  12.720  0.00  0.00    +0.000 A 
ATOM     35  O   UNL     1      44.526   5.027  13.712  0.00  0.00    +0.000 OA
ATOM     36  C   UNL     1      44.817   4.635  11.393  0.00  0.00    +0.000 A 
ATOM     37  H   UNL     1      43.200   2.961  13.719  0.00  0.00    +0.000 HD
ENDBRANCH  24  27
ENDBRANCH  22  23
ENDBRANCH   4  22
TORSDOF 8
ENDMDL
MODEL 3
REMARK VINA RESULT:    -7.475      4.938      9.945
REMARK INTER + INTRA:         -10.966
REMARK INTER:                 -10.176
REMARK INTRA:                  -0.791
REMARK UNBOUND:                -0.214
REMARK  Name = 
REMARK  9 active torsions:
REMARK  status: ('A' for Active; 'I' for Inactive)
REMARK    1  A    between atoms: C_1  and  N_2
REMARK    2  A    between atoms: C_6  and  C_7
REMARK    3  A    between atoms: N_9  and  C_10
REMARK    4  A    between atoms: C_10  and  C_11
REMARK    5  A    between atoms: C_10  and  C_13
REMARK    6  A    between atoms: C_11  and  N_12
REMARK    7  A    between atoms: C_16  and  C_17
REMARK    8  A    between atoms: C_17  and  N_18
REMARK    9  A    between atoms: C_19  and  C_21
REMARK                            x       y       z     vdW  Elec       q    Type
REMARK                         _______ _______ _______ _____ _____    ______ ____
ROOT
ATOM      1  C   UNL     1      51.408   2.993  17.757  0.00  0.00    +0.000 A 
ATOM      2  C   UNL     1      50.639   1.983  17.128  0.00  0.00    +0.000 A 
ATOM      3  C   UNL     1      49.278   2.153  16.822  0.00  0.00    +0.000 A 
ATOM      4  C   UNL     1      48.625   3.339  17.156  0.00  0.00    +0.000 A 
ATOM      5  C   UNL     1      49.367   4.343  17.797  0.00  0.00    +0.000 A 
ATOM      6  C   UNL     1      50.733   4.173  18.095  0.00  0.00    +0.000 A 
ENDROOT
BRANCH   1   7
ATOM      7  C   UNL     1      52.894   2.756  18.119  0.00  0.00    +0.000 C 
BRANCH   7  10
ATOM      8  C   UNL     1      54.365   0.745  17.618  0.00  0.00    +0.000 C 
ATOM      9  O   UNL     1      54.925   1.312  16.681  0.00  0.00    +0.000 OA
ATOM     10  N   UNL     1      53.275   1.326  18.276  0.00  0.00    +0.000 N 
ATOM     11  H   UNL     1      52.928   0.879  19.107  0.00  0.00    +0.000 HD
BRANCH   8  17
ATOM     12  C   UNL     1      54.991  -1.994  16.011  0.00  0.00    +0.000 C 
ATOM     13  N   UNL     1      55.141  -1.689  17.418  0.00  0.00    +0.000 N 
ATOM     14  N   UNL     1      55.654  -2.683  18.179  0.00  0.00    +0.000 NA
ATOM     15  C   UNL     1      55.596  -2.213  19.419  0.00  0.00    +0.000 A 
ATOM     16  C   UNL     1      55.073  -0.913  19.460  0.00  0.00    +0.000 A 
ATOM     17  C   UNL     1      54.820  -0.543  18.141  0.00  0.00    +0.000 A 
ENDBRANCH   8  17
ENDBRANCH   7  10
BRANCH   7  18
ATOM     18  C   UNL     1      53.303   3.522  19.425  0.00  0.00    +0.000 C 
BRANCH  18  19
ATOM     19  N   UNL     1      54.556   3.045  20.031  0.00  0.00    +0.000 NA
ATOM     20  H   UNL     1      54.370   2.456  20.838  0.00  0.00    +0.000 HD
ATOM     21  H   UNL     1      55.098   2.504  19.362  0.00  0.00    +0.000 HD
ENDBRANCH  18  19
ENDBRANCH   7  18
ENDBRANCH   1   7
BRANCH   4  22
ATOM     22  C   UNL     1      47.129   3.479  16.993  0.00  0.00    +0.000 C 
BRANCH  22  23
ATOM     23  N   UNL     1      46.866   4.423  15.936  0.00  0.00    +0.000 N 
ATOM     24  C   UNL     1      46.974   4.131  14.606  0.00  0.00    +0.000 C 
ATOM     25  O   UNL     1      47.284   3.015  14.198  0.00  0.00    +0.000 OA
ATOM     26  H   UNL     1      46.828   5.396  16.222  0.00  0.00    +0.000 HD
BRANCH  24  27
ATOM     27  C   UNL     1      46.620   5.225  13.690  0.00  0.00    +0.000 A 
ATOM     28  C   UNL     1      47.545   6.221  13.410  0.00  0.00    +0.000 A 
ATOM     29  S   UNL     1      47.003   7.351  12.253  0.00  0.00    +0.000 S 
ATOM     30  C   UNL     1      45.491   6.583  12.132  0.00  0.00    +0.000 A 
ATOM     31  N   UNL     1      44.532   7.063  11.298  0.00  0.00    +0.000 NA
ATOM     32  C   UNL     1      43.424   6.398  11.303  0.00  0.00    +0.000 A 
ATOM     33  N   UNL     1      43.192   5.289  12.084  0.00  0.00    +0.000 N 
ATOM     34  C   UNL     1      44.137   4.763  12.939  0.00  0.00    +0.000 A 
ATOM     35  O   UNL     1      43.896   3.768  13.614  0.00  0.00    +0.000 OA
ATOM     36  C   UNL     1      45.400   5.475  12.953  0.00  0.00    +0.000 A 
ATOM     37  H   UNL     1      42.308   4.803  12.053  0.00  0.00    +0.000 HD
ENDBRANCH  24  27
ENDBRANCH  22  23
ENDBRANCH   4  22
TORSDOF 8
ENDMDL
MODEL 4
REMARK VINA RESULT:    -7.436      1.148      1.744
REMARK INTER + INTRA:         -10.910
REMARK INTER:                  -9.983
REMARK INTRA:                  -0.927
REMARK UNBOUND:                -0.214
REMARK  Name = 
REMARK  9 active torsions:
REMARK  status: ('A' for Active; 'I' for Inactive)
REMARK    1  A    between atoms: C_1  and  N_2
REMARK    2  A    between atoms: C_6  and  C_7
REMARK    3  A    between atoms: N_9  and  C_10
REMARK    4  A    between atoms: C_10  and  C_11
REMARK    5  A    between atoms: C_10  and  C_13
REMARK    6  A    between atoms: C_11  and  N_12
REMARK    7  A    between atoms: C_16  and  C_17
REMARK    8  A    between atoms: C_17  and  N_18
REMARK    9  A    between atoms: C_19  and  C_21
REMARK                            x       y       z     vdW  Elec       q    Type
REMARK                         _______ _______ _______ _____ _____    ______ ____
ROOT
ATOM      1  C   UNL     1      45.546   5.473  11.787  0.00  0.00    +0.000 A 
ATOM      2  C   UNL     1      46.579   5.194  12.717  0.00  0.00    +0.000 A 
ATOM      3  C   UNL     1      47.209   6.200  13.468  0.00  0.00    +0.000 A 
ATOM      4  C   UNL     1      46.844   7.535  13.301  0.00  0.00    +0.000 A 
ATOM      5  C   UNL     1      45.836   7.832  12.370  0.00  0.00    +0.000 A 
ATOM      6  C   UNL     1      45.201   6.820  11.625  0.00  0.00    +0.000 A 
ENDROOT
BRANCH   1   7
ATOM      7  C   UNL     1      44.904   4.345  10.945  0.00  0.00    +0.000 C 
BRANCH   7  10
ATOM      8  C   UNL     1      45.428   2.731   9.053  0.00  0.00    +0.000 C 
ATOM      9  O   UNL     1      44.597   1.911   9.441  0.00  0.00    +0.000 OA
ATOM     10  N   UNL     1      45.733   3.871   9.804  0.00  0.00    +0.000 N 
ATOM     11  H   UNL     1      46.330   4.567   9.391  0.00  0.00    +0.000 HD
BRANCH   8  17
ATOM     12  C   UNL     1      46.804   0.114   7.737  0.00  0.00    +0.000 C 
ATOM     13  N   UNL     1      46.645   1.449   7.198  0.00  0.00    +0.000 N 
ATOM     14  N   UNL     1      47.109   1.629   5.940  0.00  0.00    +0.000 NA
ATOM     15  C   UNL     1      46.952   2.927   5.715  0.00  0.00    +0.000 A 
ATOM     16  C   UNL     1      46.367   3.581   6.808  0.00  0.00    +0.000 A 
ATOM     17  C   UNL     1      46.115   2.604   7.768  0.00  0.00    +0.000 A 
ENDBRANCH   8  17
ENDBRANCH   7  10
BRANCH   7  18
ATOM     18  C   UNL     1      43.496   4.762  10.392  0.00  0.00    +0.000 C 
BRANCH  18  19
ATOM     19  N   UNL     1      42.388   4.505  11.324  0.00  0.00    +0.000 NA
ATOM     20  H   UNL     1      42.618   4.822  12.261  0.00  0.00    +0.000 HD
ATOM     21  H   UNL     1      41.544   4.986  11.024  0.00  0.00    +0.000 HD
ENDBRANCH  18  19
ENDBRANCH   7  18
ENDBRANCH   1   7
BRANCH   4  22
ATOM     22  C   UNL     1      47.621   8.647  13.967  0.00  0.00    +0.000 C 
BRANCH  22  23
ATOM     23  N   UNL     1      47.819   8.304  15.354  0.00  0.00    +0.000 N 
ATOM     24  C   UNL     1      48.945   8.612  16.064  0.00  0.00    +0.000 C 
ATOM     25  O   UNL     1      49.882   9.237  15.576  0.00  0.00    +0.000 OA
ATOM     26  H   UNL     1      47.182   7.608  15.724  0.00  0.00    +0.000 HD
BRANCH  24  27
ATOM     27  C   UNL     1      48.928   8.209  17.478  0.00  0.00    +0.000 A 
ATOM     28  C   UNL     1      48.970   9.174  18.474  0.00  0.00    +0.000 A 
ATOM     29  S   UNL     1      48.842   8.534  20.050  0.00  0.00    +0.000 S 
ATOM     30  C   UNL     1      48.789   6.941  19.458  0.00  0.00    +0.000 A 
ATOM     31  N   UNL     1      48.687   5.886  20.307  0.00  0.00    +0.000 NA
ATOM     32  C   UNL     1      48.665   4.727  19.735  0.00  0.00    +0.000 A 
ATOM     33  N   UNL     1      48.745   4.535  18.375  0.00  0.00    +0.000 N 
ATOM     34  C   UNL     1      48.843   5.576  17.475  0.00  0.00    +0.000 A 
ATOM     35  O   UNL     1      48.903   5.365  16.269  0.00  0.00    +0.000 OA
ATOM     36  C   UNL     1      48.858   6.894  18.078  0.00  0.00    +0.000 A 
ATOM     37  H   UNL     1      48.725   3.608  17.975  0.00  0.00    +0.000 HD
ENDBRANCH  24  27
ENDBRANCH  22  23
ENDBRANCH   4  22
TORSDOF 8
ENDMDL
MODEL 5
REMARK VINA RESULT:    -7.210      5.033      9.698
REMARK INTER + INTRA:         -10.584
REMARK INTER:                  -9.228
REMARK INTRA:                  -1.357
REMARK UNBOUND:                -0.214
REMARK  Name = 
REMARK  9 active torsions:
REMARK  status: ('A' for Active; 'I' for Inactive)
REMARK    1  A    between atoms: C_1  and  N_2
REMARK    2  A    between atoms: C_6  and  C_7
REMARK    3  A    between atoms: N_9  and  C_10
REMARK    4  A    between atoms: C_10  and  C_11
REMARK    5  A    between atoms: C_10  and  C_13
REMARK    6  A    between atoms: C_11  and  N_12
REMARK    7  A    between atoms: C_16  and  C_17
REMARK    8  A    between atoms: C_17  and  N_18
REMARK    9  A    between atoms: C_19  and  C_21
REMARK                            x       y       z     vdW  Elec       q    Type
REMARK                         _______ _______ _______ _____ _____    ______ ____
ROOT
ATOM      1  C   UNL     1      51.516   2.781  17.613  0.00  0.00    +0.000 A 
ATOM      2  C   UNL     1      50.589   1.839  17.101  0.00  0.00    +0.000 A 
ATOM      3  C   UNL     1      49.251   2.170  16.827  0.00  0.00    +0.000 A 
ATOM      4  C   UNL     1      48.781   3.458  17.077  0.00  0.00    +0.000 A 
ATOM      5  C   UNL     1      49.680   4.399  17.603  0.00  0.00    +0.000 A 
ATOM      6  C   UNL     1      51.022   4.066  17.868  0.00  0.00    +0.000 A 
ENDROOT
BRANCH   1   7
ATOM      7  C   UNL     1      52.971   2.371  17.944  0.00  0.00    +0.000 C 
BRANCH   7  10
ATOM      8  C   UNL     1      54.491   0.343  17.757  0.00  0.00    +0.000 C 
ATOM      9  O   UNL     1      55.440   1.015  17.357  0.00  0.00    +0.000 OA
ATOM     10  N   UNL     1      53.221   0.904  17.931  0.00  0.00    +0.000 N 
ATOM     11  H   UNL     1      52.510   0.344  18.370  0.00  0.00    +0.000 HD
BRANCH   8  17
ATOM     12  C   UNL     1      55.094  -2.203  15.852  0.00  0.00    +0.000 C 
ATOM     13  N   UNL     1      54.949  -2.135  17.291  0.00  0.00    +0.000 N 
ATOM     14  N   UNL     1      55.125  -3.303  17.951  0.00  0.00    +0.000 NA
ATOM     15  C   UNL     1      54.841  -3.012  19.214  0.00  0.00    +0.000 A 
ATOM     16  C   UNL     1      54.509  -1.661  19.378  0.00  0.00    +0.000 A 
ATOM     17  C   UNL     1      54.628  -1.067  18.124  0.00  0.00    +0.000 A 
ENDBRANCH   8  17
ENDBRANCH   7  10
BRANCH   7  18
ATOM     18  C   UNL     1      53.433   2.939  19.331  0.00  0.00    +0.000 C 
BRANCH  18  19
ATOM     19  N   UNL     1      54.780   3.532  19.315  0.00  0.00    +0.000 NA
ATOM     20  H   UNL     1      55.461   2.900  19.727  0.00  0.00    +0.000 HD
ATOM     21  H   UNL     1      55.072   3.739  18.363  0.00  0.00    +0.000 HD
ENDBRANCH  18  19
ENDBRANCH   7  18
ENDBRANCH   1   7
BRANCH   4  22
ATOM     22  C   UNL     1      47.311   3.790  16.954  0.00  0.00    +0.000 C 
BRANCH  22  23
ATOM     23  N   UNL     1      47.136   4.707  15.855  0.00  0.00    +0.000 N 
ATOM     24  C   UNL     1      47.107   4.330  14.542  0.00  0.00    +0.000 C 
ATOM     25  O   UNL     1      47.205   3.158  14.190  0.00  0.00    +0.000 OA
ATOM     26  H   UNL     1      47.275   5.686  16.080  0.00  0.00    +0.000 HD
BRANCH  24  27
ATOM     27  C   UNL     1      46.877   5.416  13.579  0.00  0.00    +0.000 A 
ATOM     28  C   UNL     1      45.785   5.365  12.724  0.00  0.00    +0.000 A 
ATOM     29  S   UNL     1      45.616   6.752  11.746  0.00  0.00    +0.000 S 
ATOM     30  C   UNL     1      47.031   7.443  12.389  0.00  0.00    +0.000 A 
ATOM     31  N   UNL     1      47.467   8.657  11.964  0.00  0.00    +0.000 NA
ATOM     32  C   UNL     1      48.558   9.069  12.521  0.00  0.00    +0.000 A 
ATOM     33  N   UNL     1      49.258   8.358  13.469  0.00  0.00    +0.000 N 
ATOM     34  C   UNL     1      48.850   7.126  13.934  0.00  0.00    +0.000 A 
ATOM     35  O   UNL     1      49.496   6.526  14.786  0.00  0.00    +0.000 OA
ATOM     36  C   UNL     1      47.621   6.634  13.342  0.00  0.00    +0.000 A 
ATOM     37  H   UNL     1      50.107   8.722  13.875  0.00  0.00    +0.000 HD
ENDBRANCH  24  27
ENDBRANCH  22  23
ENDBRANCH   4  22
TORSDOF 8
ENDMDL
MODEL 6
REMARK VINA RESULT:    -7.000      3.337      9.524
REMARK INTER + INTRA:         -10.282
REMARK INTER:                  -9.417
REMARK INTRA:                  -0.866
REMARK UNBOUND:                -0.214
REMARK  Name = 
REMARK  9 active torsions:
REMARK  status: ('A' for Active; 'I' for Inactive)
REMARK    1  A    between atoms: C_1  and  N_2
REMARK    2  A    between atoms: C_6  and  C_7
REMARK    3  A    between atoms: N_9  and  C_10
REMARK    4  A    between atoms: C_10  and  C_11
REMARK    5  A    between atoms: C_10  and  C_13
REMARK    6  A    between atoms: C_11  and  N_12
REMARK    7  A    between atoms: C_16  and  C_17
REMARK    8  A    between atoms: C_17  and  N_18
REMARK    9  A    between atoms: C_19  and  C_21
REMARK                            x       y       z     vdW  Elec       q    Type
REMARK                         _______ _______ _______ _____ _____    ______ ____
ROOT
ATOM      1  C   UNL     1      49.225   5.673  17.480  0.00  0.00    +0.000 A 
ATOM      2  C   UNL     1      49.592   6.925  16.926  0.00  0.00    +0.000 A 
ATOM      3  C   UNL     1      49.113   7.368  15.682  0.00  0.00    +0.000 A 
ATOM      4  C   UNL     1      48.259   6.563  14.930  0.00  0.00    +0.000 A 
ATOM      5  C   UNL     1      47.900   5.312  15.455  0.00  0.00    +0.000 A 
ATOM      6  C   UNL     1      48.376   4.874  16.706  0.00  0.00    +0.000 A 
ENDROOT
BRANCH   1   7
ATOM      7  C   UNL     1      49.807   5.197  18.833  0.00  0.00    +0.000 C 
BRANCH   7  10
ATOM      8  C   UNL     1      52.054   4.126  18.322  0.00  0.00    +0.000 C 
ATOM      9  O   UNL     1      52.481   5.140  17.773  0.00  0.00    +0.000 OA
ATOM     10  N   UNL     1      50.722   4.027  18.738  0.00  0.00    +0.000 N 
ATOM     11  H   UNL     1      50.453   3.228  19.285  0.00  0.00    +0.000 HD
BRANCH   8  17
ATOM     12  C   UNL     1      51.704   1.039  17.415  0.00  0.00    +0.000 C 
ATOM     13  N   UNL     1      52.768   1.670  18.168  0.00  0.00    +0.000 N 
ATOM     14  N   UNL     1      53.793   0.860  18.520  0.00  0.00    +0.000 NA
ATOM     15  C   UNL     1      54.571   1.623  19.277  0.00  0.00    +0.000 A 
ATOM     16  C   UNL     1      54.069   2.927  19.394  0.00  0.00    +0.000 A 
ATOM     17  C   UNL     1      52.910   2.978  18.624  0.00  0.00    +0.000 A 
ENDBRANCH   8  17
ENDBRANCH   7  10
BRANCH   7  18
ATOM     18  C   UNL     1      48.675   4.857  19.864  0.00  0.00    +0.000 C 
BRANCH  18  19
ATOM     19  N   UNL     1      48.338   3.427  19.932  0.00  0.00    +0.000 NA
ATOM     20  H   UNL     1      48.642   3.022  20.814  0.00  0.00    +0.000 HD
ATOM     21  H   UNL     1      47.334   3.288  19.847  0.00  0.00    +0.000 HD
ENDBRANCH  18  19
ENDBRANCH   7  18
ENDBRANCH   1   7
BRANCH   4  22
ATOM     22  C   UNL     1      47.868   6.942  13.520  0.00  0.00    +0.000 C 
BRANCH  22  23
ATOM     23  N   UNL     1      47.043   5.894  12.972  0.00  0.00    +0.000 N 
ATOM     24  C   UNL     1      45.717   6.041  12.679  0.00  0.00    +0.000 C 
ATOM     25  O   UNL     1      45.119   7.101  12.838  0.00  0.00    +0.000 OA
ATOM     26  H   UNL     1      47.430   4.959  13.035  0.00  0.00    +0.000 HD
BRANCH  24  27
ATOM     27  C   UNL     1      45.068   4.861  12.088  0.00  0.00    +0.000 A 
ATOM     28  C   UNL     1      44.341   3.994  12.893  0.00  0.00    +0.000 A 
ATOM     29  S   UNL     1      43.576   2.739  12.027  0.00  0.00    +0.000 S 
ATOM     30  C   UNL     1      44.239   3.276  10.556  0.00  0.00    +0.000 A 
ATOM     31  N   UNL     1      43.978   2.621   9.396  0.00  0.00    +0.000 NA
ATOM     32  C   UNL     1      44.548   3.120   8.348  0.00  0.00    +0.000 A 
ATOM     33  N   UNL     1      45.369   4.224   8.368  0.00  0.00    +0.000 N 
ATOM     34  C   UNL     1      45.657   4.923   9.521  0.00  0.00    +0.000 A 
ATOM     35  O   UNL     1      46.388   5.907   9.497  0.00  0.00    +0.000 OA
ATOM     36  C   UNL     1      45.026   4.401  10.717  0.00  0.00    +0.000 A 
ATOM     37  H   UNL     1      45.793   4.576   7.522  0.00  0.00    +0.000 HD
ENDBRANCH  24  27
ENDBRANCH  22  23
ENDBRANCH   4  22
TORSDOF 8
ENDMDL
MODEL 7
REMARK VINA RESULT:    -6.995      5.005      8.563
REMARK INTER + INTRA:         -10.275
REMARK INTER:                  -9.154
REMARK INTRA:                  -1.121
REMARK UNBOUND:                -0.214
REMARK  Name = 
REMARK  9 active torsions:
REMARK  status: ('A' for Active; 'I' for Inactive)
REMARK    1  A    between atoms: C_1  and  N_2
REMARK    2  A    between atoms: C_6  and  C_7
REMARK    3  A    between atoms: N_9  and  C_10
REMARK    4  A    between atoms: C_10  and  C_11
REMARK    5  A    between atoms: C_10  and  C_13
REMARK    6  A    between atoms: C_11  and  N_12
REMARK    7  A    between atoms: C_16  and  C_17
REMARK    8  A    between atoms: C_17  and  N_18
REMARK    9  A    between atoms: C_19  and  C_21
REMARK                            x       y       z     vdW  Elec       q    Type
REMARK                         _______ _______ _______ _____ _____    ______ ____
ROOT
ATOM      1  C   UNL     1      50.301   8.818  11.377  0.00  0.00    +0.000 A 
ATOM      2  C   UNL     1      49.689   7.548  11.523  0.00  0.00    +0.000 A 
ATOM      3  C   UNL     1      48.379   7.393  12.006  0.00  0.00    +0.000 A 
ATOM      4  C   UNL     1      47.633   8.508  12.384  0.00  0.00    +0.000 A 
ATOM      5  C   UNL     1      48.230   9.773  12.265  0.00  0.00    +0.000 A 
ATOM      6  C   UNL     1      49.540   9.925  11.772  0.00  0.00    +0.000 A 
ENDROOT
BRANCH   1   7
ATOM      7  C   UNL     1      51.762   8.949  10.883  0.00  0.00    +0.000 C 
BRANCH   7  10
ATOM      8  C   UNL     1      53.249   7.953   9.079  0.00  0.00    +0.000 C 
ATOM      9  O   UNL     1      53.642   9.057   8.708  0.00  0.00    +0.000 OA
ATOM     10  N   UNL     1      52.234   7.822  10.033  0.00  0.00    +0.000 N 
ATOM     11  H   UNL     1      52.030   6.904  10.388  0.00  0.00    +0.000 HD
BRANCH   8  17
ATOM     12  C   UNL     1      55.774   6.307  10.256  0.00  0.00    +0.000 C 
ATOM     13  N   UNL     1      54.889   5.986   9.156  0.00  0.00    +0.000 N 
ATOM     14  N   UNL     1      55.125   4.803   8.543  0.00  0.00    +0.000 NA
ATOM     15  C   UNL     1      54.275   4.785   7.524  0.00  0.00    +0.000 A 
ATOM     16  C   UNL     1      53.475   5.935   7.491  0.00  0.00    +0.000 A 
ATOM     17  C   UNL     1      53.839   6.706   8.592  0.00  0.00    +0.000 A 
ENDBRANCH   8  17
ENDBRANCH   7  10
BRANCH   7  18
ATOM     18  C   UNL     1      52.765   9.121  12.076  0.00  0.00    +0.000 C 
BRANCH  18  19
ATOM     19  N   UNL     1      53.136   7.858  12.733  0.00  0.00    +0.000 NA
ATOM     20  H   UNL     1      52.789   7.828  13.688  0.00  0.00    +0.000 HD
ATOM     21  H   UNL     1      52.751   7.063  12.230  0.00  0.00    +0.000 HD
ENDBRANCH  18  19
ENDBRANCH   7  18
ENDBRANCH   1   7
BRANCH   4  22
ATOM     22  C   UNL     1      46.292   8.356  13.064  0.00  0.00    +0.000 C 
BRANCH  22  23
ATOM     23  N   UNL     1      45.771   7.045  12.770  0.00  0.00    +0.000 N 
ATOM     24  C   UNL     1      44.834   6.793  11.808  0.00  0.00    +0.000 C 
ATOM     25  O   UNL     1      44.373   7.674  11.089  0.00  0.00    +0.000 OA
ATOM     26  H   UNL     1      45.953   6.338  13.474  0.00  0.00    +0.000 HD
BRANCH  24  27
ATOM     27  C   UNL     1      44.468   5.379  11.639  0.00  0.00    +0.000 A 
ATOM     28  C   UNL     1      43.752   4.725  12.632  0.00  0.00    +0.000 A 
ATOM     29  S   UNL     1      43.329   3.123  12.227  0.00  0.00    +0.000 S 
ATOM     30  C   UNL     1      44.140   3.228  10.736  0.00  0.00    +0.000 A 
ATOM     31  N   UNL     1      44.170   2.171   9.885  0.00  0.00    +0.000 NA
ATOM     32  C   UNL     1      44.826   2.372   8.789  0.00  0.00    +0.000 A 
ATOM     33  N   UNL     1      45.465   3.550   8.478  0.00  0.00    +0.000 N 
ATOM     34  C   UNL     1      45.456   4.651   9.308  0.00  0.00    +0.000 A 
ATOM     35  O   UNL     1      46.031   5.686   8.991  0.00  0.00    +0.000 OA
ATOM     36  C   UNL     1      44.719   4.469  10.543  0.00  0.00    +0.000 A 
ATOM     37  H   UNL     1      45.966   3.659   7.608  0.00  0.00    +0.000 HD
ENDBRANCH  24  27
ENDBRANCH  22  23
ENDBRANCH   4  22
TORSDOF 8
ENDMDL
MODEL 8
REMARK VINA RESULT:    -6.703      4.012      9.552
REMARK INTER + INTRA:          -9.856
REMARK INTER:                  -8.909
REMARK INTRA:                  -0.947
REMARK UNBOUND:                -0.214
REMARK  Name = 
REMARK  9 active torsions:
REMARK  status: ('A' for Active; 'I' for Inactive)
REMARK    1  A    between atoms: C_1  and  N_2
REMARK    2  A    between atoms: C_6  and  C_7
REMARK    3  A    between atoms: N_9  and  C_10
REMARK    4  A    between atoms: C_10  and  C_11
REMARK    5  A    between atoms: C_10  and  C_13
REMARK    6  A    between atoms: C_11  and  N_12
REMARK    7  A    between atoms: C_16  and  C_17
REMARK    8  A    between atoms: C_17  and  N_18
REMARK    9  A    between atoms: C_19  and  C_21
REMARK                            x       y       z     vdW  Elec       q    Type
REMARK                         _______ _______ _______ _____ _____    ______ ____
ROOT
ATOM      1  C   UNL     1      51.347   4.616  17.586  0.00  0.00    +0.000 A 
ATOM      2  C   UNL     1      50.337   5.574  17.321  0.00  0.00    +0.000 A 
ATOM      3  C   UNL     1      48.997   5.215  17.100  0.00  0.00    +0.000 A 
ATOM      4  C   UNL     1      48.617   3.873  17.115  0.00  0.00    +0.000 A 
ATOM      5  C   UNL     1      49.608   2.910  17.357  0.00  0.00    +0.000 A 
ATOM      6  C   UNL     1      50.949   3.274  17.587  0.00  0.00    +0.000 A 
ENDROOT
BRANCH   1   7
ATOM      7  C   UNL     1      52.822   5.044  17.781  0.00  0.00    +0.000 C 
BRANCH   7  10
ATOM      8  C   UNL     1      53.265   7.407  16.956  0.00  0.00    +0.000 C 
ATOM      9  O   UNL     1      52.573   7.910  17.839  0.00  0.00    +0.000 OA
ATOM     10  N   UNL     1      53.324   6.020  16.777  0.00  0.00    +0.000 N 
ATOM     11  H   UNL     1      53.992   5.654  16.120  0.00  0.00    +0.000 HD
BRANCH   8  17
ATOM     12  C   UNL     1      52.442   8.988  14.254  0.00  0.00    +0.000 C 
ATOM     13  N   UNL     1      53.714   8.928  14.943  0.00  0.00    +0.000 N 
ATOM     14  N   UNL     1      54.706   9.671  14.402  0.00  0.00    +0.000 NA
ATOM     15  C   UNL     1      55.775   9.374  15.130  0.00  0.00    +0.000 A 
ATOM     16  C   UNL     1      55.474   8.464  16.153  0.00  0.00    +0.000 A 
ATOM     17  C   UNL     1      54.108   8.207  16.067  0.00  0.00    +0.000 A 
ENDBRANCH   8  17
ENDBRANCH   7  10
BRANCH   7  18
ATOM     18  C   UNL     1      53.788   3.809  17.796  0.00  0.00    +0.000 C 
BRANCH  18  19
ATOM     19  N   UNL     1      54.472   3.600  19.082  0.00  0.00    +0.000 NA
ATOM     20  H   UNL     1      55.030   2.751  19.064  0.00  0.00    +0.000 HD
ATOM     21  H   UNL     1      55.087   4.381  19.295  0.00  0.00    +0.000 HD
ENDBRANCH  18  19
ENDBRANCH   7  18
ENDBRANCH   1   7
BRANCH   4  22
ATOM     22  C   UNL     1      47.223   3.452  16.713  0.00  0.00    +0.000 C 
BRANCH  22  23
ATOM     23  N   UNL     1      46.730   4.375  15.721  0.00  0.00    +0.000 N 
ATOM     24  C   UNL     1      46.747   4.133  14.376  0.00  0.00    +0.000 C 
ATOM     25  O   UNL     1      47.167   3.081  13.900  0.00  0.00    +0.000 OA
ATOM     26  H   UNL     1      46.586   5.325  16.045  0.00  0.00    +0.000 HD
BRANCH  24  27
ATOM     27  C   UNL     1      46.158   5.187  13.538  0.00  0.00    +0.000 A 
ATOM     28  C   UNL     1      46.868   6.354  13.291  0.00  0.00    +0.000 A 
ATOM     29  S   UNL     1      46.078   7.421  12.221  0.00  0.00    +0.000 S 
ATOM     30  C   UNL     1      44.732   6.388  12.098  0.00  0.00    +0.000 A 
ATOM     31  N   UNL     1      43.668   6.722  11.324  0.00  0.00    +0.000 NA
ATOM     32  C   UNL     1      42.705   5.859  11.321  0.00  0.00    +0.000 A 
ATOM     33  N   UNL     1      42.716   4.687  12.041  0.00  0.00    +0.000 N 
ATOM     34  C   UNL     1      43.777   4.305  12.835  0.00  0.00    +0.000 A 
ATOM     35  O   UNL     1      43.754   3.247  13.455  0.00  0.00    +0.000 OA
ATOM     36  C   UNL     1      44.884   5.241  12.854  0.00  0.00    +0.000 A 
ATOM     37  H   UNL     1      41.938   4.045  12.007  0.00  0.00    +0.000 HD
ENDBRANCH  24  27
ENDBRANCH  22  23
ENDBRANCH   4  22
TORSDOF 8
ENDMDL
MODEL 9
REMARK VINA RESULT:    -6.610      1.666      2.057
REMARK INTER + INTRA:          -9.721
REMARK INTER:                  -9.186
REMARK INTRA:                  -0.535
REMARK UNBOUND:                -0.214
REMARK  Name = 
REMARK  9 active torsions:
REMARK  status: ('A' for Active; 'I' for Inactive)
REMARK    1  A    between atoms: C_1  and  N_2
REMARK    2  A    between atoms: C_6  and  C_7
REMARK    3  A    between atoms: N_9  and  C_10
REMARK    4  A    between atoms: C_10  and  C_11
REMARK    5  A    between atoms: C_10  and  C_13
REMARK    6  A    between atoms: C_11  and  N_12
REMARK    7  A    between atoms: C_16  and  C_17
REMARK    8  A    between atoms: C_17  and  N_18
REMARK    9  A    between atoms: C_19  and  C_21
REMARK                            x       y       z     vdW  Elec       q    Type
REMARK                         _______ _______ _______ _____ _____    ______ ____
ROOT
ATOM      1  C   UNL     1      46.035   6.827  12.344  0.00  0.00    +0.000 A 
ATOM      2  C   UNL     1      46.863   7.931  12.021  0.00  0.00    +0.000 A 
ATOM      3  C   UNL     1      48.141   8.102  12.578  0.00  0.00    +0.000 A 
ATOM      4  C   UNL     1      48.635   7.182  13.501  0.00  0.00    +0.000 A 
ATOM      5  C   UNL     1      47.821   6.093  13.847  0.00  0.00    +0.000 A 
ATOM      6  C   UNL     1      46.543   5.919  13.281  0.00  0.00    +0.000 A 
ENDROOT
BRANCH   1   7
ATOM      7  C   UNL     1      44.614   6.693  11.745  0.00  0.00    +0.000 C 
BRANCH   7  10
ATOM      8  C   UNL     1      45.291   5.165   9.830  0.00  0.00    +0.000 C 
ATOM      9  O   UNL     1      46.133   5.959   9.415  0.00  0.00    +0.000 OA
ATOM     10  N   UNL     1      44.418   5.505  10.871  0.00  0.00    +0.000 N 
ATOM     11  H   UNL     1      43.829   4.785  11.251  0.00  0.00    +0.000 HD
BRANCH   8  17
ATOM     12  C   UNL     1      46.759   3.834   7.272  0.00  0.00    +0.000 C 
ATOM     13  N   UNL     1      45.862   3.239   8.240  0.00  0.00    +0.000 N 
ATOM     14  N   UNL     1      45.623   1.917   8.079  0.00  0.00    +0.000 NA
ATOM     15  C   UNL     1      44.710   1.633   8.999  0.00  0.00    +0.000 A 
ATOM     16  C   UNL     1      44.378   2.756   9.769  0.00  0.00    +0.000 A 
ATOM     17  C   UNL     1      45.170   3.804   9.309  0.00  0.00    +0.000 A 
ENDBRANCH   8  17
ENDBRANCH   7  10
BRANCH   7  18
ATOM     18  C   UNL     1      44.199   7.973  10.940  0.00  0.00    +0.000 C 
BRANCH  18  19
ATOM     19  N   UNL     1      42.759   8.268  10.985  0.00  0.00    +0.000 NA
ATOM     20  H   UNL     1      42.224   7.543  10.514  0.00  0.00    +0.000 HD
ATOM     21  H   UNL     1      42.432   8.330  11.946  0.00  0.00    +0.000 HD
ENDBRANCH  18  19
ENDBRANCH   7  18
ENDBRANCH   1   7
BRANCH   4  22
ATOM     22  C   UNL     1      49.930   7.434  14.239  0.00  0.00    +0.000 C 
BRANCH  22  23
ATOM     23  N   UNL     1      49.748   7.078  15.624  0.00  0.00    +0.000 N 
ATOM     24  C   UNL     1      50.769   6.738  16.466  0.00  0.00    +0.000 C 
ATOM     25  O   UNL     1      51.945   6.734  16.110  0.00  0.00    +0.000 OA
ATOM     26  H   UNL     1      48.797   6.854  15.894  0.00  0.00    +0.000 HD
BRANCH  24  27
ATOM     27  C   UNL     1      50.374   6.449  17.852  0.00  0.00    +0.000 A 
ATOM     28  C   UNL     1      50.692   7.343  18.865  0.00  0.00    +0.000 A 
ATOM     29  S   UNL     1      50.070   6.897  20.389  0.00  0.00    +0.000 S 
ATOM     30  C   UNL     1      49.408   5.463  19.760  0.00  0.00    +0.000 A 
ATOM     31  N   UNL     1      48.732   4.599  20.561  0.00  0.00    +0.000 NA
ATOM     32  C   UNL     1      48.285   3.541  19.967  0.00  0.00    +0.000 A 
ATOM     33  N   UNL     1      48.468   3.271  18.630  0.00  0.00    +0.000 N 
ATOM     34  C   UNL     1      49.141   4.121  17.779  0.00  0.00    +0.000 A 
ATOM     35  O   UNL     1      49.276   3.850  16.591  0.00  0.00    +0.000 OA
ATOM     36  C   UNL     1      49.647   5.327  18.406  0.00  0.00    +0.000 A 
ATOM     37  H   UNL     1      48.100   2.429  18.212  0.00  0.00    +0.000 HD
ENDBRANCH  24  27
ENDBRANCH  22  23
ENDBRANCH   4  22
TORSDOF 8
ENDMDL
