MODEL 1
REMARK VINA RESULT:    -8.647      0.000      0.000
REMARK INTER + INTRA:         -12.629
REMARK INTER:                 -11.681
REMARK INTRA:                  -0.948
REMARK UNBOUND:                -0.948
REMARK  Name = 
REMARK  6 active torsions:
REMARK  status: ('A' for Active; 'I' for Inactive)
REMARK    1  A    between atoms: C_2  and  C_3
REMARK    2  A    between atoms: N_7  and  C_8
REMARK    3  A    between atoms: C_8  and  C_9
REMARK    4  A    between atoms: C_9  and  C_12
REMARK    5  A    between atoms: C_16  and  O_17
REMARK    6  A    between atoms: O_17  and  C_18
REMARK                            x       y       z     vdW  Elec       q    Type
REMARK                         _______ _______ _______ _____ _____    ______ ____
ROOT
ATOM      1  C   UNL     1      43.727   4.644  12.417  0.00  0.00    +0.000 C 
ATOM      2  F   UNL     1      42.792   5.514  12.896  0.00  0.00    +0.000 F 
ATOM      3  F   UNL     1      43.541   3.488  13.122  0.00  0.00    +0.000 F 
ENDROOT
BRANCH   1   4
ATOM      4  C   UNL     1      45.141   5.180  12.561  0.00  0.00    +0.000 A 
ATOM      5  C   UNL     1      45.653   6.105  11.642  0.00  0.00    +0.000 A 
ATOM      6  C   UNL     1      46.925   6.651  11.824  0.00  0.00    +0.000 A 
ATOM      7  C   UNL     1      47.707   6.279  12.923  0.00  0.00    +0.000 A 
ATOM      8  C   UNL     1      47.214   5.352  13.835  0.00  0.00    +0.000 A 
ATOM      9  C   UNL     1      45.938   4.808  13.656  0.00  0.00    +0.000 A 
BRANCH   8  10
ATOM     10  O   UNL     1      47.862   4.938  14.971  0.00  0.00    +0.000 OA
BRANCH  10  11
ATOM     11  C   UNL     1      47.154   4.140  15.947  0.00  0.00    +0.000 C 
ATOM     12  C   UNL     1      47.154   4.619  17.416  0.00  0.00    +0.000 C 
ATOM     13  N   UNL     1      47.510   3.256  17.860  0.00  0.00    +0.000 NA
ATOM     14  C   UNL     1      47.959   2.937  16.491  0.00  0.00    +0.000 C 
ATOM     15  H   UNL     1      46.716   2.698  18.170  0.00  0.00    +0.000 HD
ENDBRANCH  10  11
ENDBRANCH   8  10
ENDBRANCH   1   4
BRANCH   1  16
ATOM     16  C   UNL     1      43.430   4.366  10.921  0.00  0.00    +0.000 C 
BRANCH  16  21
ATOM     17  C   UNL     1      46.637   2.426   7.400  0.00  0.00    +0.000 A 
ATOM     18  C   UNL     1      46.253   3.731   7.671  0.00  0.00    +0.000 A 
ATOM     19  C   UNL     1      45.336   3.973   8.698  0.00  0.00    +0.000 A 
ATOM     20  C   UNL     1      44.819   2.912   9.433  0.00  0.00    +0.000 A 
ATOM     21  N   UNL     1      43.901   3.072  10.437  0.00  0.00    +0.000 N 
ATOM     22  N   UNL     1      45.193   1.644   9.179  0.00  0.00    +0.000 NA
ATOM     23  C   UNL     1      46.086   1.423   8.178  0.00  0.00    +0.000 A 
ATOM     24  H   UNL     1      43.618   2.217  10.907  0.00  0.00    +0.000 HD
BRANCH  17  26
ATOM     25  N   UNL     1      48.316   1.866   5.512  0.00  0.00    +0.000 NA
ATOM     26  C   UNL     1      47.563   2.125   6.357  0.00  0.00    +0.000 C 
ENDBRANCH  17  26
ENDBRANCH  16  21
ENDBRANCH   1  16
TORSDOF 6
ENDMDL
MODEL 2
REMARK VINA RESULT:    -7.860      2.456      3.811
REMARK INTER + INTRA:         -11.565
REMARK INTER:                 -10.746
REMARK INTRA:                  -0.819
REMARK UNBOUND:                -0.948
REMARK  Name = 
REMARK  6 active torsions:
REMARK  status: ('A' for Active; 'I' for Inactive)
REMARK    1  A    between atoms: C_2  and  C_3
REMARK    2  A    between atoms: N_7  and  C_8
REMARK    3  A    between atoms: C_8  and  C_9
REMARK    4  A    between atoms: C_9  and  C_12
REMARK    5  A    between atoms: C_16  and  O_17
REMARK    6  A    between atoms: O_17  and  C_18
REMARK                            x       y       z     vdW  Elec       q    Type
REMARK                         _______ _______ _______ _____ _____    ______ ____
ROOT
ATOM      1  C   UNL     1      43.573   4.463  12.490  0.00  0.00    +0.000 C 
ATOM      2  F   UNL     1      42.499   5.148  12.979  0.00  0.00    +0.000 F 
ATOM      3  F   UNL     1      43.529   3.240  13.097  0.00  0.00    +0.000 F 
ENDROOT
BRANCH   1   4
ATOM      4  C   UNL     1      44.885   5.184  12.751  0.00  0.00    +0.000 A 
ATOM      5  C   UNL     1      45.919   4.554  13.457  0.00  0.00    +0.000 A 
ATOM      6  C   UNL     1      47.148   5.193  13.627  0.00  0.00    +0.000 A 
ATOM      7  C   UNL     1      47.363   6.471  13.099  0.00  0.00    +0.000 A 
ATOM      8  C   UNL     1      46.339   7.111  12.409  0.00  0.00    +0.000 A 
ATOM      9  C   UNL     1      45.108   6.469  12.234  0.00  0.00    +0.000 A 
BRANCH   8  10
ATOM     10  O   UNL     1      46.436   8.341  11.810  0.00  0.00    +0.000 OA
BRANCH  10  11
ATOM     11  C   UNL     1      45.878   9.503  12.466  0.00  0.00    +0.000 C 
ATOM     12  C   UNL     1      44.566  10.094  11.905  0.00  0.00    +0.000 C 
ATOM     13  N   UNL     1      45.157  11.446  11.949  0.00  0.00    +0.000 NA
ATOM     14  C   UNL     1      46.503  10.846  12.024  0.00  0.00    +0.000 C 
ATOM     15  H   UNL     1      44.903  11.986  12.775  0.00  0.00    +0.000 HD
ENDBRANCH  10  11
ENDBRANCH   8  10
ENDBRANCH   1   4
BRANCH   1  16
ATOM     16  C   UNL     1      43.386   4.266  10.964  0.00  0.00    +0.000 C 
BRANCH  16  21
ATOM     17  C   UNL     1      46.659   2.415   7.456  0.00  0.00    +0.000 A 
ATOM     18  C   UNL     1      46.275   3.714   7.756  0.00  0.00    +0.000 A 
ATOM     19  C   UNL     1      45.337   3.930   8.771  0.00  0.00    +0.000 A 
ATOM     20  C   UNL     1      44.800   2.850   9.464  0.00  0.00    +0.000 A 
ATOM     21  N   UNL     1      43.863   2.985  10.452  0.00  0.00    +0.000 N 
ATOM     22  N   UNL     1      45.175   1.589   9.180  0.00  0.00    +0.000 NA
ATOM     23  C   UNL     1      46.088   1.392   8.192  0.00  0.00    +0.000 A 
ATOM     24  H   UNL     1      43.566   2.118  10.890  0.00  0.00    +0.000 HD
BRANCH  17  26
ATOM     25  N   UNL     1      48.370   1.924   5.577  0.00  0.00    +0.000 NA
ATOM     26  C   UNL     1      47.606   2.140   6.424  0.00  0.00    +0.000 C 
ENDBRANCH  17  26
ENDBRANCH  16  21
ENDBRANCH   1  16
TORSDOF 6
ENDMDL
MODEL 3
REMARK VINA RESULT:    -7.620      1.896      2.244
REMARK INTER + INTRA:         -11.241
REMARK INTER:                 -10.878
REMARK INTRA:                  -0.363
REMARK UNBOUND:                -0.948
REMARK  Name = 
REMARK  6 active torsions:
REMARK  status: ('A' for Active; 'I' for Inactive)
REMARK    1  A    between atoms: C_2  and  C_3
REMARK    2  A    between atoms: N_7  and  C_8
REMARK    3  A    between atoms: C_8  and  C_9
REMARK    4  A    between atoms: C_9  and  C_12
REMARK    5  A    between atoms: C_16  and  O_17
REMARK    6  A    between atoms: O_17  and  C_18
REMARK                            x       y       z     vdW  Elec       q    Type
REMARK                         _______ _______ _______ _____ _____    ______ ____
ROOT
ATOM      1  C   UNL     1      44.017   4.151  12.423  0.00  0.00    +0.000 C 
ATOM      2  F   UNL     1      43.022   4.110  13.356  0.00  0.00    +0.000 F 
ATOM      3  F   UNL     1      44.662   2.951  12.528  0.00  0.00    +0.000 F 
ENDROOT
BRANCH   1   4
ATOM      4  C   UNL     1      44.958   5.325  12.636  0.00  0.00    +0.000 A 
ATOM      5  C   UNL     1      44.571   6.625  12.282  0.00  0.00    +0.000 A 
ATOM      6  C   UNL     1      45.410   7.708  12.551  0.00  0.00    +0.000 A 
ATOM      7  C   UNL     1      46.648   7.511  13.171  0.00  0.00    +0.000 A 
ATOM      8  C   UNL     1      47.048   6.223  13.514  0.00  0.00    +0.000 A 
ATOM      9  C   UNL     1      46.206   5.138  13.250  0.00  0.00    +0.000 A 
BRANCH   8  10
ATOM     10  O   UNL     1      48.214   5.903  14.162  0.00  0.00    +0.000 OA
BRANCH  10  11
ATOM     11  C   UNL     1      48.797   6.843  15.092  0.00  0.00    +0.000 C 
ATOM     12  C   UNL     1      50.196   7.413  14.769  0.00  0.00    +0.000 C 
ATOM     13  N   UNL     1      50.632   7.125  16.151  0.00  0.00    +0.000 NA
ATOM     14  C   UNL     1      49.502   6.188  16.303  0.00  0.00    +0.000 C 
ATOM     15  H   UNL     1      50.585   7.927  16.778  0.00  0.00    +0.000 HD
ENDBRANCH  10  11
ENDBRANCH   8  10
ENDBRANCH   1   4
BRANCH   1  16
ATOM     16  C   UNL     1      43.377   4.250  11.015  0.00  0.00    +0.000 C 
BRANCH  16  21
ATOM     17  C   UNL     1      46.705   2.704   7.412  0.00  0.00    +0.000 A 
ATOM     18  C   UNL     1      46.002   1.996   8.376  0.00  0.00    +0.000 A 
ATOM     19  C   UNL     1      45.160   2.687   9.252  0.00  0.00    +0.000 A 
ATOM     20  C   UNL     1      45.036   4.070   9.152  0.00  0.00    +0.000 A 
ATOM     21  N   UNL     1      44.248   4.814   9.988  0.00  0.00    +0.000 N 
ATOM     22  N   UNL     1      45.710   4.760   8.213  0.00  0.00    +0.000 NA
ATOM     23  C   UNL     1      46.525   4.075   7.368  0.00  0.00    +0.000 A 
ATOM     24  H   UNL     1      44.232   5.811   9.796  0.00  0.00    +0.000 HD
BRANCH  17  26
ATOM     25  N   UNL     1      48.306   1.520   5.759  0.00  0.00    +0.000 NA
ATOM     26  C   UNL     1      47.583   2.046   6.500  0.00  0.00    +0.000 C 
ENDBRANCH  17  26
ENDBRANCH  16  21
ENDBRANCH   1  16
TORSDOF 6
ENDMDL
MODEL 4
REMARK VINA RESULT:    -7.539      2.379      2.795
REMARK INTER + INTRA:         -11.131
REMARK INTER:                 -10.239
REMARK INTRA:                  -0.892
REMARK UNBOUND:                -0.948
REMARK  Name = 
REMARK  6 active torsions:
REMARK  status: ('A' for Active; 'I' for Inactive)
REMARK    1  A    between atoms: C_2  and  C_3
REMARK    2  A    between atoms: N_7  and  C_8
REMARK    3  A    between atoms: C_8  and  C_9
REMARK    4  A    between atoms: C_9  and  C_12
REMARK    5  A    between atoms: C_16  and  O_17
REMARK    6  A    between atoms: O_17  and  C_18
REMARK                            x       y       z     vdW  Elec       q    Type
REMARK                         _______ _______ _______ _____ _____    ______ ____
ROOT
ATOM      1  C   UNL     1      44.244   4.167  12.355  0.00  0.00    +0.000 C 
ATOM      2  F   UNL     1      43.322   4.043  13.354  0.00  0.00    +0.000 F 
ATOM      3  F   UNL     1      45.206   3.237  12.633  0.00  0.00    +0.000 F 
ENDROOT
BRANCH   1   4
ATOM      4  C   UNL     1      44.816   5.572  12.270  0.00  0.00    +0.000 A 
ATOM      5  C   UNL     1      44.215   6.541  11.455  0.00  0.00    +0.000 A 
ATOM      6  C   UNL     1      44.699   7.850  11.439  0.00  0.00    +0.000 A 
ATOM      7  C   UNL     1      45.793   8.212  12.234  0.00  0.00    +0.000 A 
ATOM      8  C   UNL     1      46.405   7.255  13.037  0.00  0.00    +0.000 A 
ATOM      9  C   UNL     1      45.917   5.944  13.057  0.00  0.00    +0.000 A 
BRANCH   8  10
ATOM     10  O   UNL     1      47.453   7.491  13.890  0.00  0.00    +0.000 OA
BRANCH  10  11
ATOM     11  C   UNL     1      48.660   8.108  13.387  0.00  0.00    +0.000 C 
ATOM     12  C   UNL     1      49.502   7.326  12.356  0.00  0.00    +0.000 C 
ATOM     13  N   UNL     1      50.724   7.622  13.130  0.00  0.00    +0.000 NA
ATOM     14  C   UNL     1      49.893   7.940  14.306  0.00  0.00    +0.000 C 
ATOM     15  H   UNL     1      51.258   8.416  12.779  0.00  0.00    +0.000 HD
ENDBRANCH  10  11
ENDBRANCH   8  10
ENDBRANCH   1   4
BRANCH   1  16
ATOM     16  C   UNL     1      43.573   3.799  11.007  0.00  0.00    +0.000 C 
BRANCH  16  21
ATOM     17  C   UNL     1      46.759   2.391   7.225  0.00  0.00    +0.000 A 
ATOM     18  C   UNL     1      46.323   3.641   7.639  0.00  0.00    +0.000 A 
ATOM     19  C   UNL     1      45.427   3.731   8.709  0.00  0.00    +0.000 A 
ATOM     20  C   UNL     1      44.982   2.575   9.343  0.00  0.00    +0.000 A 
ATOM     21  N   UNL     1      44.090   2.587  10.381  0.00  0.00    +0.000 N 
ATOM     22  N   UNL     1      45.408   1.361   8.950  0.00  0.00    +0.000 NA
ATOM     23  C   UNL     1      46.280   1.287   7.909  0.00  0.00    +0.000 A 
ATOM     24  H   UNL     1      43.862   1.676  10.766  0.00  0.00    +0.000 HD
BRANCH  17  26
ATOM     25  N   UNL     1      48.407   2.111   5.249  0.00  0.00    +0.000 NA
ATOM     26  C   UNL     1      47.667   2.244   6.134  0.00  0.00    +0.000 C 
ENDBRANCH  17  26
ENDBRANCH  16  21
ENDBRANCH   1  16
TORSDOF 6
ENDMDL
MODEL 5
REMARK VINA RESULT:    -7.317      2.485      7.845
REMARK INTER + INTRA:         -10.832
REMARK INTER:                 -10.365
REMARK INTRA:                  -0.467
REMARK UNBOUND:                -0.948
REMARK  Name = 
REMARK  6 active torsions:
REMARK  status: ('A' for Active; 'I' for Inactive)
REMARK    1  A    between atoms: C_2  and  C_3
REMARK    2  A    between atoms: N_7  and  C_8
REMARK    3  A    between atoms: C_8  and  C_9
REMARK    4  A    between atoms: C_9  and  C_12
REMARK    5  A    between atoms: C_16  and  O_17
REMARK    6  A    between atoms: O_17  and  C_18
REMARK                            x       y       z     vdW  Elec       q    Type
REMARK                         _______ _______ _______ _____ _____    ______ ____
ROOT
ATOM      1  C   UNL     1      45.249   6.114  11.381  0.00  0.00    +0.000 C 
ATOM      2  F   UNL     1      44.196   6.290  12.230  0.00  0.00    +0.000 F 
ATOM      3  F   UNL     1      45.320   7.265  10.649  0.00  0.00    +0.000 F 
ENDROOT
BRANCH   1   4
ATOM      4  C   UNL     1      45.082   4.887  10.501  0.00  0.00    +0.000 A 
ATOM      5  C   UNL     1      44.297   3.806  10.923  0.00  0.00    +0.000 A 
ATOM      6  C   UNL     1      44.085   2.715  10.078  0.00  0.00    +0.000 A 
ATOM      7  C   UNL     1      44.656   2.684   8.801  0.00  0.00    +0.000 A 
ATOM      8  C   UNL     1      45.448   3.746   8.377  0.00  0.00    +0.000 A 
ATOM      9  C   UNL     1      45.657   4.842   9.221  0.00  0.00    +0.000 A 
BRANCH   8  10
ATOM     10  O   UNL     1      46.027   3.856   7.138  0.00  0.00    +0.000 OA
BRANCH  10  11
ATOM     11  C   UNL     1      46.504   2.670   6.463  0.00  0.00    +0.000 C 
ATOM     12  C   UNL     1      47.726   1.936   7.058  0.00  0.00    +0.000 C 
ATOM     13  N   UNL     1      48.343   1.877   5.718  0.00  0.00    +0.000 NA
ATOM     14  C   UNL     1      47.439   2.951   5.264  0.00  0.00    +0.000 C 
ATOM     15  H   UNL     1      48.203   0.992   5.233  0.00  0.00    +0.000 HD
ENDBRANCH  10  11
ENDBRANCH   8  10
ENDBRANCH   1   4
BRANCH   1  16
ATOM     16  C   UNL     1      46.548   5.977  12.217  0.00  0.00    +0.000 C 
BRANCH  16  21
ATOM     17  C   UNL     1      48.417   4.902  16.885  0.00  0.00    +0.000 A 
ATOM     18  C   UNL     1      48.616   5.988  16.046  0.00  0.00    +0.000 A 
ATOM     19  C   UNL     1      47.980   6.013  14.801  0.00  0.00    +0.000 A 
ATOM     20  C   UNL     1      47.160   4.956  14.417  0.00  0.00    +0.000 A 
ATOM     21  N   UNL     1      46.525   4.903  13.205  0.00  0.00    +0.000 N 
ATOM     22  N   UNL     1      46.958   3.904  15.231  0.00  0.00    +0.000 NA
ATOM     23  C   UNL     1      47.582   3.893  16.439  0.00  0.00    +0.000 A 
ATOM     24  H   UNL     1      45.941   4.085  13.057  0.00  0.00    +0.000 HD
BRANCH  17  26
ATOM     25  N   UNL     1      49.574   4.760  19.196  0.00  0.00    +0.000 NA
ATOM     26  C   UNL     1      49.048   4.824  18.163  0.00  0.00    +0.000 C 
ENDBRANCH  17  26
ENDBRANCH  16  21
ENDBRANCH   1  16
TORSDOF 6
ENDMDL
MODEL 6
REMARK VINA RESULT:    -6.754      3.498      5.259
REMARK INTER + INTRA:         -10.071
REMARK INTER:                  -9.302
REMARK INTRA:                  -0.769
REMARK UNBOUND:                -0.948
REMARK  Name = 
REMARK  6 active torsions:
REMARK  status: ('A' for Active; 'I' for Inactive)
REMARK    1  A    between atoms: C_2  and  C_3
REMARK    2  A    between atoms: N_7  and  C_8
REMARK    3  A    between atoms: C_8  and  C_9
REMARK    4  A    between atoms: C_9  and  C_12
REMARK    5  A    between atoms: C_16  and  O_17
REMARK    6  A    between atoms: O_17  and  C_18
REMARK                            x       y       z     vdW  Elec       q    Type
REMARK                         _______ _______ _______ _____ _____    ______ ____
ROOT
ATOM      1  C   UNL     1      44.686   5.932  12.199  0.00  0.00    +0.000 C 
ATOM      2  F   UNL     1      43.737   5.792  13.170  0.00  0.00    +0.000 F 
ATOM      3  F   UNL     1      45.637   4.994  12.485  0.00  0.00    +0.000 F 
ENDROOT
BRANCH   1   4
ATOM      4  C   UNL     1      45.262   7.336  12.155  0.00  0.00    +0.000 A 
ATOM      5  C   UNL     1      46.601   7.571  12.495  0.00  0.00    +0.000 A 
ATOM      6  C   UNL     1      47.145   8.852  12.379  0.00  0.00    +0.000 A 
ATOM      7  C   UNL     1      46.361   9.918  11.924  0.00  0.00    +0.000 A 
ATOM      8  C   UNL     1      45.027   9.698  11.596  0.00  0.00    +0.000 A 
ATOM      9  C   UNL     1      44.482   8.415  11.708  0.00  0.00    +0.000 A 
BRANCH   8  10
ATOM     10  O   UNL     1      44.167  10.646  11.101  0.00  0.00    +0.000 OA
BRANCH  10  11
ATOM     11  C   UNL     1      42.877  10.244  10.587  0.00  0.00    +0.000 C 
ATOM     12  C   UNL     1      42.332  10.972   9.339  0.00  0.00    +0.000 C 
ATOM     13  N   UNL     1      41.028  11.144  10.010  0.00  0.00    +0.000 NA
ATOM     14  C   UNL     1      41.673  10.889  11.311  0.00  0.00    +0.000 C 
ATOM     15  H   UNL     1      40.332  10.445   9.754  0.00  0.00    +0.000 HD
ENDBRANCH  10  11
ENDBRANCH   8  10
ENDBRANCH   1   4
BRANCH   1  16
ATOM     16  C   UNL     1      44.050   5.590  10.827  0.00  0.00    +0.000 C 
BRANCH  16  21
ATOM     17  C   UNL     1      46.677   2.664   7.515  0.00  0.00    +0.000 A 
ATOM     18  C   UNL     1      46.647   4.038   7.700  0.00  0.00    +0.000 A 
ATOM     19  C   UNL     1      45.813   4.575   8.685  0.00  0.00    +0.000 A 
ATOM     20  C   UNL     1      45.026   3.734   9.465  0.00  0.00    +0.000 A 
ATOM     21  N   UNL     1      44.171   4.191  10.431  0.00  0.00    +0.000 N 
ATOM     22  N   UNL     1      45.057   2.399   9.294  0.00  0.00    +0.000 NA
ATOM     23  C   UNL     1      45.873   1.890   8.333  0.00  0.00    +0.000 A 
ATOM     24  H   UNL     1      43.667   3.471  10.941  0.00  0.00    +0.000 HD
BRANCH  17  26
ATOM     25  N   UNL     1      48.169   1.571   5.704  0.00  0.00    +0.000 NA
ATOM     26  C   UNL     1      47.505   2.066   6.518  0.00  0.00    +0.000 C 
ENDBRANCH  17  26
ENDBRANCH  16  21
ENDBRANCH   1  16
TORSDOF 6
ENDMDL
MODEL 7
REMARK VINA RESULT:    -6.691      3.092      7.998
REMARK INTER + INTRA:          -9.986
REMARK INTER:                  -9.398
REMARK INTRA:                  -0.588
REMARK UNBOUND:                -0.948
REMARK  Name = 
REMARK  6 active torsions:
REMARK  status: ('A' for Active; 'I' for Inactive)
REMARK    1  A    between atoms: C_2  and  C_3
REMARK    2  A    between atoms: N_7  and  C_8
REMARK    3  A    between atoms: C_8  and  C_9
REMARK    4  A    between atoms: C_9  and  C_12
REMARK    5  A    between atoms: C_16  and  O_17
REMARK    6  A    between atoms: O_17  and  C_18
REMARK                            x       y       z     vdW  Elec       q    Type
REMARK                         _______ _______ _______ _____ _____    ______ ____
ROOT
ATOM      1  C   UNL     1      45.360   6.393  11.498  0.00  0.00    +0.000 C 
ATOM      2  F   UNL     1      44.804   6.383  12.745  0.00  0.00    +0.000 F 
ATOM      3  F   UNL     1      44.840   7.494  10.878  0.00  0.00    +0.000 F 
ENDROOT
BRANCH   1   4
ATOM      4  C   UNL     1      45.072   5.114  10.729  0.00  0.00    +0.000 A 
ATOM      5  C   UNL     1      44.299   4.095  11.300  0.00  0.00    +0.000 A 
ATOM      6  C   UNL     1      43.975   2.957  10.559  0.00  0.00    +0.000 A 
ATOM      7  C   UNL     1      44.421   2.817   9.240  0.00  0.00    +0.000 A 
ATOM      8  C   UNL     1      45.201   3.817   8.669  0.00  0.00    +0.000 A 
ATOM      9  C   UNL     1      45.521   4.960   9.408  0.00  0.00    +0.000 A 
BRANCH   8  10
ATOM     10  O   UNL     1      45.662   3.819   7.377  0.00  0.00    +0.000 OA
BRANCH  10  11
ATOM     11  C   UNL     1      46.980   3.300   7.087  0.00  0.00    +0.000 C 
ATOM     12  C   UNL     1      47.283   2.851   5.641  0.00  0.00    +0.000 C 
ATOM     13  N   UNL     1      47.863   1.593   6.153  0.00  0.00    +0.000 NA
ATOM     14  C   UNL     1      47.168   1.805   7.437  0.00  0.00    +0.000 C 
ATOM     15  H   UNL     1      48.879   1.604   6.231  0.00  0.00    +0.000 HD
ENDBRANCH  10  11
ENDBRANCH   8  10
ENDBRANCH   1   4
BRANCH   1  16
ATOM     16  C   UNL     1      46.893   6.578  11.637  0.00  0.00    +0.000 C 
BRANCH  16  21
ATOM     17  C   UNL     1      48.915   7.812  16.201  0.00  0.00    +0.000 A 
ATOM     18  C   UNL     1      48.458   8.603  15.157  0.00  0.00    +0.000 A 
ATOM     19  C   UNL     1      47.961   7.988  14.003  0.00  0.00    +0.000 A 
ATOM     20  C   UNL     1      47.932   6.600  13.912  0.00  0.00    +0.000 A 
ATOM     21  N   UNL     1      47.482   5.932  12.805  0.00  0.00    +0.000 N 
ATOM     22  N   UNL     1      48.368   5.829  14.925  0.00  0.00    +0.000 NA
ATOM     23  C   UNL     1      48.847   6.439  16.041  0.00  0.00    +0.000 A 
ATOM     24  H   UNL     1      47.497   4.919  12.875  0.00  0.00    +0.000 HD
BRANCH  17  26
ATOM     25  N   UNL     1      49.853   8.869  18.369  0.00  0.00    +0.000 NA
ATOM     26  C   UNL     1      49.438   8.390  17.397  0.00  0.00    +0.000 C 
ENDBRANCH  17  26
ENDBRANCH  16  21
ENDBRANCH   1  16
TORSDOF 6
ENDMDL
MODEL 8
REMARK VINA RESULT:    -6.277      3.659      7.710
REMARK INTER + INTRA:          -9.427
REMARK INTER:                  -8.833
REMARK INTRA:                  -0.594
REMARK UNBOUND:                -0.948
REMARK  Name = 
REMARK  6 active torsions:
REMARK  status: ('A' for Active; 'I' for Inactive)
REMARK    1  A    between atoms: C_2  and  C_3
REMARK    2  A    between atoms: N_7  and  C_8
REMARK    3  A    between atoms: C_8  and  C_9
REMARK    4  A    between atoms: C_9  and  C_12
REMARK    5  A    between atoms: C_16  and  O_17
REMARK    6  A    between atoms: O_17  and  C_18
REMARK                            x       y       z     vdW  Elec       q    Type
REMARK                         _______ _______ _______ _____ _____    ______ ____
ROOT
ATOM      1  C   UNL     1      45.061   5.719  11.733  0.00  0.00    +0.000 C 
ATOM      2  F   UNL     1      45.177   5.281  13.020  0.00  0.00    +0.000 F 
ATOM      3  F   UNL     1      43.949   6.512  11.719  0.00  0.00    +0.000 F 
ENDROOT
BRANCH   1   4
ATOM      4  C   UNL     1      44.959   4.574  10.740  0.00  0.00    +0.000 A 
ATOM      5  C   UNL     1      44.182   3.444  11.029  0.00  0.00    +0.000 A 
ATOM      6  C   UNL     1      44.030   2.430  10.082  0.00  0.00    +0.000 A 
ATOM      7  C   UNL     1      44.655   2.525   8.834  0.00  0.00    +0.000 A 
ATOM      8  C   UNL     1      45.440   3.636   8.541  0.00  0.00    +0.000 A 
ATOM      9  C   UNL     1      45.588   4.655   9.488  0.00  0.00    +0.000 A 
BRANCH   8  10
ATOM     10  O   UNL     1      46.069   3.868   7.344  0.00  0.00    +0.000 OA
BRANCH  10  11
ATOM     11  C   UNL     1      46.559   2.753   6.565  0.00  0.00    +0.000 C 
ATOM     12  C   UNL     1      47.920   2.137   6.954  0.00  0.00    +0.000 C 
ATOM     13  N   UNL     1      48.339   2.172   5.538  0.00  0.00    +0.000 NA
ATOM     14  C   UNL     1      47.277   3.156   5.257  0.00  0.00    +0.000 C 
ATOM     15  H   UNL     1      48.219   1.288   5.045  0.00  0.00    +0.000 HD
ENDBRANCH  10  11
ENDBRANCH   8  10
ENDBRANCH   1   4
BRANCH   1  16
ATOM     16  C   UNL     1      46.296   6.591  11.389  0.00  0.00    +0.000 C 
BRANCH  16  21
ATOM     17  C   UNL     1      50.422   9.149  13.086  0.00  0.00    +0.000 A 
ATOM     18  C   UNL     1      49.447   9.492  12.161  0.00  0.00    +0.000 A 
ATOM     19  C   UNL     1      48.426   8.580  11.876  0.00  0.00    +0.000 A 
ATOM     20  C   UNL     1      48.399   7.344  12.515  0.00  0.00    +0.000 A 
ATOM     21  N   UNL     1      47.444   6.395  12.269  0.00  0.00    +0.000 N 
ATOM     22  N   UNL     1      49.338   7.010  13.419  0.00  0.00    +0.000 NA
ATOM     23  C   UNL     1      50.324   7.907  13.688  0.00  0.00    +0.000 A 
ATOM     24  H   UNL     1      47.528   5.543  12.816  0.00  0.00    +0.000 HD
BRANCH  17  26
ATOM     25  N   UNL     1      52.365  10.757  13.667  0.00  0.00    +0.000 NA
ATOM     26  C   UNL     1      51.488  10.041  13.407  0.00  0.00    +0.000 C 
ENDBRANCH  17  26
ENDBRANCH  16  21
ENDBRANCH   1  16
TORSDOF 6
ENDMDL
MODEL 9
REMARK VINA RESULT:    -6.257      2.437      7.868
REMARK INTER + INTRA:          -9.399
REMARK INTER:                  -8.944
REMARK INTRA:                  -0.455
REMARK UNBOUND:                -0.948
REMARK  Name = 
REMARK  6 active torsions:
REMARK  status: ('A' for Active; 'I' for Inactive)
REMARK    1  A    between atoms: C_2  and  C_3
REMARK    2  A    between atoms: N_7  and  C_8
REMARK    3  A    between atoms: C_8  and  C_9
REMARK    4  A    between atoms: C_9  and  C_12
REMARK    5  A    between atoms: C_16  and  O_17
REMARK    6  A    between atoms: O_17  and  C_18
REMARK                            x       y       z     vdW  Elec       q    Type
REMARK                         _______ _______ _______ _____ _____    ______ ____
ROOT
ATOM      1  C   UNL     1      46.161   6.553  12.408  0.00  0.00    +0.000 C 
ATOM      2  F   UNL     1      45.574   7.436  13.267  0.00  0.00    +0.000 F 
ATOM      3  F   UNL     1      46.586   7.306  11.350  0.00  0.00    +0.000 F 
ENDROOT
BRANCH   1   4
ATOM      4  C   UNL     1      45.211   5.448  11.979  0.00  0.00    +0.000 A 
ATOM      5  C   UNL     1      44.212   4.986  12.846  0.00  0.00    +0.000 A 
ATOM      6  C   UNL     1      43.294   4.025  12.417  0.00  0.00    +0.000 A 
ATOM      7  C   UNL     1      43.363   3.507  11.120  0.00  0.00    +0.000 A 
ATOM      8  C   UNL     1      44.359   3.948  10.255  0.00  0.00    +0.000 A 
ATOM      9  C   UNL     1      45.275   4.915  10.681  0.00  0.00    +0.000 A 
BRANCH   8  10
ATOM     10  O   UNL     1      44.507   3.551   8.950  0.00  0.00    +0.000 OA
BRANCH  10  11
ATOM     11  C   UNL     1      45.813   3.166   8.463  0.00  0.00    +0.000 C 
ATOM     12  C   UNL     1      46.064   3.212   6.940  0.00  0.00    +0.000 C 
ATOM     13  N   UNL     1      46.659   1.861   6.998  0.00  0.00    +0.000 NA
ATOM     14  C   UNL     1      46.009   1.640   8.304  0.00  0.00    +0.000 C 
ATOM     15  H   UNL     1      47.677   1.855   7.041  0.00  0.00    +0.000 HD
ENDBRANCH  10  11
ENDBRANCH   8  10
ENDBRANCH   1   4
BRANCH   1  16
ATOM     16  C   UNL     1      47.399   5.929  13.102  0.00  0.00    +0.000 C 
BRANCH  16  21
ATOM     17  C   UNL     1      48.156   4.638  18.022  0.00  0.00    +0.000 A 
ATOM     18  C   UNL     1      48.601   5.722  17.279  0.00  0.00    +0.000 A 
ATOM     19  C   UNL     1      48.248   5.816  15.930  0.00  0.00    +0.000 A 
ATOM     20  C   UNL     1      47.460   4.828  15.347  0.00  0.00    +0.000 A 
ATOM     21  N   UNL     1      47.095   4.843  14.027  0.00  0.00    +0.000 N 
ATOM     22  N   UNL     1      47.020   3.778  16.065  0.00  0.00    +0.000 NA
ATOM     23  C   UNL     1      47.370   3.700  17.376  0.00  0.00    +0.000 A 
ATOM     24  H   UNL     1      46.504   4.071  13.733  0.00  0.00    +0.000 HD
BRANCH  17  26
ATOM     25  N   UNL     1      48.770   4.360  20.520  0.00  0.00    +0.000 NA
ATOM     26  C   UNL     1      48.495   4.492  19.400  0.00  0.00    +0.000 C 
ENDBRANCH  17  26
ENDBRANCH  16  21
ENDBRANCH   1  16
TORSDOF 6
ENDMDL
