MODEL 1
REMARK VINA RESULT:    -8.846      0.000      0.000
REMARK INTER + INTRA:         -12.311
REMARK INTER:                 -11.432
REMARK INTRA:                  -0.879
REMARK UNBOUND:                -0.879
REMARK  Name = 
REMARK  5 active torsions:
REMARK  status: ('A' for Active; 'I' for Inactive)
REMARK    1  A    between atoms: C_2  and  C_3
REMARK    2  A    between atoms: N_7  and  C_8
REMARK    3  A    between atoms: C_8  and  C_9
REMARK    4  A    between atoms: C_9  and  C_12
REMARK    5  A    between atoms: C_16  and  C_17
REMARK                            x       y       z     vdW  Elec       q    Type
REMARK                         _______ _______ _______ _____ _____    ______ ____
ROOT
ATOM      1  C   UNL     1      43.497   4.881  12.289  0.00  0.00    +0.000 C 
ATOM      2  F   UNL     1      42.607   5.881  12.561  0.00  0.00    +0.000 F 
ATOM      3  F   UNL     1      43.041   3.802  13.000  0.00  0.00    +0.000 F 
ENDROOT
BRANCH   1   4
ATOM      4  C   UNL     1      44.909   5.261  12.686  0.00  0.00    +0.000 A 
ATOM      5  C   UNL     1      45.711   4.397  13.437  0.00  0.00    +0.000 A 
ATOM      6  C   UNL     1      47.009   4.769  13.779  0.00  0.00    +0.000 A 
ATOM      7  C   UNL     1      47.515   6.012  13.385  0.00  0.00    +0.000 A 
ATOM      8  C   UNL     1      46.748   6.917  12.628  0.00  0.00    +0.000 A 
ATOM      9  C   UNL     1      45.442   6.500  12.295  0.00  0.00    +0.000 A 
ATOM     10  F   UNL     1      44.667   7.295  11.540  0.00  0.00    +0.000 F 
BRANCH   8  11
ATOM     11  C   UNL     1      47.292   8.236  12.206  0.00  0.00    +0.000 A 
ATOM     12  C   UNL     1      46.507   9.405  12.222  0.00  0.00    +0.000 A 
ATOM     13  C   UNL     1      47.024  10.646  11.828  0.00  0.00    +0.000 A 
ATOM     14  C   UNL     1      48.349  10.753  11.422  0.00  0.00    +0.000 A 
ATOM     15  C   UNL     1      49.151   9.619  11.393  0.00  0.00    +0.000 A 
ATOM     16  C   UNL     1      48.623   8.379  11.767  0.00  0.00    +0.000 A 
ENDBRANCH   8  11
ENDBRANCH   1   4
BRANCH   1  17
ATOM     17  C   UNL     1      43.416   4.532  10.781  0.00  0.00    +0.000 C 
BRANCH  17  22
ATOM     18  C   UNL     1      46.648   2.490   7.383  0.00  0.00    +0.000 A 
ATOM     19  C   UNL     1      46.291   3.805   7.643  0.00  0.00    +0.000 A 
ATOM     20  C   UNL     1      45.377   4.070   8.660  0.00  0.00    +0.000 A 
ATOM     21  C   UNL     1      44.824   3.022   9.392  0.00  0.00    +0.000 A 
ATOM     22  N   UNL     1      43.935   3.217  10.417  0.00  0.00    +0.000 N 
ATOM     23  N   UNL     1      45.160   1.742   9.139  0.00  0.00    +0.000 NA
ATOM     24  C   UNL     1      46.060   1.501   8.151  0.00  0.00    +0.000 A 
ATOM     25  H   UNL     1      43.544   2.375  10.829  0.00  0.00    +0.000 HD
BRANCH  18  27
ATOM     26  N   UNL     1      48.351   1.889   5.531  0.00  0.00    +0.000 NA
ATOM     27  C   UNL     1      47.590   2.167   6.359  0.00  0.00    +0.000 C 
ENDBRANCH  18  27
ENDBRANCH  17  22
ENDBRANCH   1  17
TORSDOF 5
ENDMDL
MODEL 2
REMARK VINA RESULT:    -8.242      1.543      2.237
REMARK INTER + INTRA:         -11.530
REMARK INTER:                 -10.660
REMARK INTRA:                  -0.870
REMARK UNBOUND:                -0.879
REMARK  Name = 
REMARK  5 active torsions:
REMARK  status: ('A' for Active; 'I' for Inactive)
REMARK    1  A    between atoms: C_2  and  C_3
REMARK    2  A    between atoms: N_7  and  C_8
REMARK    3  A    between atoms: C_8  and  C_9
REMARK    4  A    between atoms: C_9  and  C_12
REMARK    5  A    between atoms: C_16  and  C_17
REMARK                            x       y       z     vdW  Elec       q    Type
REMARK                         _______ _______ _______ _____ _____    ______ ____
ROOT
ATOM      1  C   UNL     1      44.342   4.008  12.271  0.00  0.00    +0.000 C 
ATOM      2  F   UNL     1      43.471   3.927  13.321  0.00  0.00    +0.000 F 
ATOM      3  F   UNL     1      45.362   3.152  12.593  0.00  0.00    +0.000 F 
ENDROOT
BRANCH   1   4
ATOM      4  C   UNL     1      44.839   5.424  12.061  0.00  0.00    +0.000 A 
ATOM      5  C   UNL     1      44.006   6.417  11.537  0.00  0.00    +0.000 A 
ATOM      6  C   UNL     1      44.487   7.712  11.365  0.00  0.00    +0.000 A 
ATOM      7  C   UNL     1      45.808   8.027  11.704  0.00  0.00    +0.000 A 
ATOM      8  C   UNL     1      46.685   7.063  12.234  0.00  0.00    +0.000 A 
ATOM      9  C   UNL     1      46.157   5.766  12.401  0.00  0.00    +0.000 A 
ATOM     10  F   UNL     1      46.925   4.805  12.941  0.00  0.00    +0.000 F 
BRANCH   8  11
ATOM     11  C   UNL     1      48.087   7.404  12.598  0.00  0.00    +0.000 A 
ATOM     12  C   UNL     1      48.537   7.376  13.933  0.00  0.00    +0.000 A 
ATOM     13  C   UNL     1      49.858   7.693  14.272  0.00  0.00    +0.000 A 
ATOM     14  C   UNL     1      50.772   8.033  13.281  0.00  0.00    +0.000 A 
ATOM     15  C   UNL     1      50.360   8.072  11.954  0.00  0.00    +0.000 A 
ATOM     16  C   UNL     1      49.034   7.775  11.623  0.00  0.00    +0.000 A 
ENDBRANCH   8  11
ENDBRANCH   1   4
BRANCH   1  17
ATOM     17  C   UNL     1      43.646   3.467  10.997  0.00  0.00    +0.000 C 
BRANCH  17  22
ATOM     18  C   UNL     1      46.806   2.297   7.148  0.00  0.00    +0.000 A 
ATOM     19  C   UNL     1      46.345   3.515   7.627  0.00  0.00    +0.000 A 
ATOM     20  C   UNL     1      45.485   3.530   8.722  0.00  0.00    +0.000 A 
ATOM     21  C   UNL     1      45.088   2.333   9.315  0.00  0.00    +0.000 A 
ATOM     22  N   UNL     1      44.260   2.281  10.406  0.00  0.00    +0.000 N 
ATOM     23  N   UNL     1      45.526   1.147   8.850  0.00  0.00    +0.000 NA
ATOM     24  C   UNL     1      46.371   1.149   7.788  0.00  0.00    +0.000 A 
ATOM     25  H   UNL     1      43.982   1.352  10.706  0.00  0.00    +0.000 HD
BRANCH  18  27
ATOM     26  N   UNL     1      48.410   2.167   5.123  0.00  0.00    +0.000 NA
ATOM     27  C   UNL     1      47.698   2.229   6.035  0.00  0.00    +0.000 C 
ENDBRANCH  18  27
ENDBRANCH  17  22
ENDBRANCH   1  17
TORSDOF 5
ENDMDL
MODEL 3
REMARK VINA RESULT:    -8.225      1.703      3.314
REMARK INTER + INTRA:         -11.508
REMARK INTER:                 -10.911
REMARK INTRA:                  -0.596
REMARK UNBOUND:                -0.879
REMARK  Name = 
REMARK  5 active torsions:
REMARK  status: ('A' for Active; 'I' for Inactive)
REMARK    1  A    between atoms: C_2  and  C_3
REMARK    2  A    between atoms: N_7  and  C_8
REMARK    3  A    between atoms: C_8  and  C_9
REMARK    4  A    between atoms: C_9  and  C_12
REMARK    5  A    between atoms: C_16  and  C_17
REMARK                            x       y       z     vdW  Elec       q    Type
REMARK                         _______ _______ _______ _____ _____    ______ ____
ROOT
ATOM      1  C   UNL     1      43.667   4.799  12.019  0.00  0.00    +0.000 C 
ATOM      2  F   UNL     1      42.665   5.667  12.350  0.00  0.00    +0.000 F 
ATOM      3  F   UNL     1      43.486   3.723  12.847  0.00  0.00    +0.000 F 
ENDROOT
BRANCH   1   4
ATOM      4  C   UNL     1      45.035   5.426  12.199  0.00  0.00    +0.000 A 
ATOM      5  C   UNL     1      45.618   6.199  11.191  0.00  0.00    +0.000 A 
ATOM      6  C   UNL     1      46.873   6.771  11.387  0.00  0.00    +0.000 A 
ATOM      7  C   UNL     1      47.562   6.569  12.588  0.00  0.00    +0.000 A 
ATOM      8  C   UNL     1      47.017   5.799  13.633  0.00  0.00    +0.000 A 
ATOM      9  C   UNL     1      45.742   5.243  13.398  0.00  0.00    +0.000 A 
ATOM     10  F   UNL     1      45.143   4.531  14.366  0.00  0.00    +0.000 F 
BRANCH   8  11
ATOM     11  C   UNL     1      47.751   5.590  14.910  0.00  0.00    +0.000 A 
ATOM     12  C   UNL     1      48.726   6.500  15.365  0.00  0.00    +0.000 A 
ATOM     13  C   UNL     1      49.412   6.303  16.570  0.00  0.00    +0.000 A 
ATOM     14  C   UNL     1      49.131   5.196  17.362  0.00  0.00    +0.000 A 
ATOM     15  C   UNL     1      48.176   4.278  16.941  0.00  0.00    +0.000 A 
ATOM     16  C   UNL     1      47.509   4.468  15.727  0.00  0.00    +0.000 A 
ENDBRANCH   8  11
ENDBRANCH   1   4
BRANCH   1  17
ATOM     17  C   UNL     1      43.458   4.323  10.560  0.00  0.00    +0.000 C 
BRANCH  17  22
ATOM     18  C   UNL     1      46.801   2.380   7.210  0.00  0.00    +0.000 A 
ATOM     19  C   UNL     1      46.363   3.678   7.431  0.00  0.00    +0.000 A 
ATOM     20  C   UNL     1      45.438   3.917   8.443  0.00  0.00    +0.000 A 
ATOM     21  C   UNL     1      44.953   2.860   9.211  0.00  0.00    +0.000 A 
ATOM     22  N   UNL     1      44.058   3.032  10.234  0.00  0.00    +0.000 N 
ATOM     23  N   UNL     1      45.368   1.597   8.997  0.00  0.00    +0.000 NA
ATOM     24  C   UNL     1      46.278   1.381   8.012  0.00  0.00    +0.000 A 
ATOM     25  H   UNL     1      43.721   2.181  10.674  0.00  0.00    +0.000 HD
BRANCH  18  27
ATOM     26  N   UNL     1      48.541   1.833   5.376  0.00  0.00    +0.000 NA
ATOM     27  C   UNL     1      47.757   2.084   6.192  0.00  0.00    +0.000 C 
ENDBRANCH  18  27
ENDBRANCH  17  22
ENDBRANCH   1  17
TORSDOF 5
ENDMDL
MODEL 4
REMARK VINA RESULT:    -8.065      3.363      7.351
REMARK INTER + INTRA:         -11.301
REMARK INTER:                 -10.641
REMARK INTRA:                  -0.659
REMARK UNBOUND:                -0.879
REMARK  Name = 
REMARK  5 active torsions:
REMARK  status: ('A' for Active; 'I' for Inactive)
REMARK    1  A    between atoms: C_2  and  C_3
REMARK    2  A    between atoms: N_7  and  C_8
REMARK    3  A    between atoms: C_8  and  C_9
REMARK    4  A    between atoms: C_9  and  C_12
REMARK    5  A    between atoms: C_16  and  C_17
REMARK                            x       y       z     vdW  Elec       q    Type
REMARK                         _______ _______ _______ _____ _____    ______ ____
ROOT
ATOM      1  C   UNL     1      44.670   5.765  12.370  0.00  0.00    +0.000 C 
ATOM      2  F   UNL     1      43.674   6.033  13.266  0.00  0.00    +0.000 F 
ATOM      3  F   UNL     1      44.684   6.846  11.528  0.00  0.00    +0.000 F 
ENDROOT
BRANCH   1   4
ATOM      4  C   UNL     1      44.420   4.472  11.622  0.00  0.00    +0.000 A 
ATOM      5  C   UNL     1      43.481   3.540  12.075  0.00  0.00    +0.000 A 
ATOM      6  C   UNL     1      43.265   2.363  11.361  0.00  0.00    +0.000 A 
ATOM      7  C   UNL     1      43.992   2.100  10.194  0.00  0.00    +0.000 A 
ATOM      8  C   UNL     1      44.948   3.006   9.698  0.00  0.00    +0.000 A 
ATOM      9  C   UNL     1      45.131   4.189  10.445  0.00  0.00    +0.000 A 
ATOM     10  F   UNL     1      45.998   5.117  10.008  0.00  0.00    +0.000 F 
BRANCH   8  11
ATOM     11  C   UNL     1      45.714   2.724   8.455  0.00  0.00    +0.000 A 
ATOM     12  C   UNL     1      45.893   3.700   7.454  0.00  0.00    +0.000 A 
ATOM     13  C   UNL     1      46.619   3.432   6.286  0.00  0.00    +0.000 A 
ATOM     14  C   UNL     1      47.200   2.184   6.094  0.00  0.00    +0.000 A 
ATOM     15  C   UNL     1      47.041   1.199   7.061  0.00  0.00    +0.000 A 
ATOM     16  C   UNL     1      46.297   1.464   8.216  0.00  0.00    +0.000 A 
ENDBRANCH   8  11
ENDBRANCH   1   4
BRANCH   1  17
ATOM     17  C   UNL     1      46.025   5.723  13.121  0.00  0.00    +0.000 C 
BRANCH  17  22
ATOM     18  C   UNL     1      48.846   4.693  17.262  0.00  0.00    +0.000 A 
ATOM     19  C   UNL     1      48.816   5.791  16.414  0.00  0.00    +0.000 A 
ATOM     20  C   UNL     1      47.916   5.803  15.352  0.00  0.00    +0.000 A 
ATOM     21  C   UNL     1      47.068   4.717  15.144  0.00  0.00    +0.000 A 
ATOM     22  N   UNL     1      46.146   4.676  14.130  0.00  0.00    +0.000 N 
ATOM     23  N   UNL     1      47.096   3.645  15.959  0.00  0.00    +0.000 NA
ATOM     24  C   UNL     1      47.974   3.652  16.995  0.00  0.00    +0.000 A 
ATOM     25  H   UNL     1      45.635   3.803  14.033  0.00  0.00    +0.000 HD
BRANCH  18  27
ATOM     26  N   UNL     1      50.458   4.593  19.282  0.00  0.00    +0.000 NA
ATOM     27  C   UNL     1      49.743   4.638  18.371  0.00  0.00    +0.000 C 
ENDBRANCH  18  27
ENDBRANCH  17  22
ENDBRANCH   1  17
TORSDOF 5
ENDMDL
MODEL 5
REMARK VINA RESULT:    -7.567      3.138      6.867
REMARK INTER + INTRA:         -10.658
REMARK INTER:                 -10.050
REMARK INTRA:                  -0.608
REMARK UNBOUND:                -0.879
REMARK  Name = 
REMARK  5 active torsions:
REMARK  status: ('A' for Active; 'I' for Inactive)
REMARK    1  A    between atoms: C_2  and  C_3
REMARK    2  A    between atoms: N_7  and  C_8
REMARK    3  A    between atoms: C_8  and  C_9
REMARK    4  A    between atoms: C_9  and  C_12
REMARK    5  A    between atoms: C_16  and  C_17
REMARK                            x       y       z     vdW  Elec       q    Type
REMARK                         _______ _______ _______ _____ _____    ______ ____
ROOT
ATOM      1  C   UNL     1      44.755   6.392  11.938  0.00  0.00    +0.000 C 
ATOM      2  F   UNL     1      43.959   6.645  13.020  0.00  0.00    +0.000 F 
ATOM      3  F   UNL     1      44.449   7.379  11.039  0.00  0.00    +0.000 F 
ENDROOT
BRANCH   1   4
ATOM      4  C   UNL     1      44.505   5.011  11.367  0.00  0.00    +0.000 A 
ATOM      5  C   UNL     1      43.586   4.137  11.956  0.00  0.00    +0.000 A 
ATOM      6  C   UNL     1      43.368   2.877  11.403  0.00  0.00    +0.000 A 
ATOM      7  C   UNL     1      44.074   2.473  10.264  0.00  0.00    +0.000 A 
ATOM      8  C   UNL     1      45.010   3.316   9.636  0.00  0.00    +0.000 A 
ATOM      9  C   UNL     1      45.195   4.586  10.221  0.00  0.00    +0.000 A 
ATOM     10  F   UNL     1      46.042   5.459   9.651  0.00  0.00    +0.000 F 
BRANCH   8  11
ATOM     11  C   UNL     1      45.754   2.884   8.422  0.00  0.00    +0.000 A 
ATOM     12  C   UNL     1      46.243   1.571   8.277  0.00  0.00    +0.000 A 
ATOM     13  C   UNL     1      46.940   1.167   7.131  0.00  0.00    +0.000 A 
ATOM     14  C   UNL     1      47.153   2.063   6.090  0.00  0.00    +0.000 A 
ATOM     15  C   UNL     1      46.685   3.366   6.202  0.00  0.00    +0.000 A 
ATOM     16  C   UNL     1      46.009   3.771   7.357  0.00  0.00    +0.000 A 
ENDBRANCH   8  11
ENDBRANCH   1   4
BRANCH   1  17
ATOM     17  C   UNL     1      46.237   6.564  12.354  0.00  0.00    +0.000 C 
BRANCH  17  22
ATOM     18  C   UNL     1      50.613   9.057  11.454  0.00  0.00    +0.000 A 
ATOM     19  C   UNL     1      50.281   7.712  11.370  0.00  0.00    +0.000 A 
ATOM     20  C   UNL     1      48.980   7.315  11.667  0.00  0.00    +0.000 A 
ATOM     21  C   UNL     1      48.034   8.260  12.056  0.00  0.00    +0.000 A 
ATOM     22  N   UNL     1      46.733   7.937  12.343  0.00  0.00    +0.000 N 
ATOM     23  N   UNL     1      48.350   9.566  12.148  0.00  0.00    +0.000 NA
ATOM     24  C   UNL     1      49.621   9.939  11.845  0.00  0.00    +0.000 A 
ATOM     25  H   UNL     1      46.154   8.698  12.686  0.00  0.00    +0.000 HD
BRANCH  18  27
ATOM     26  N   UNL     1      52.992   9.902  10.894  0.00  0.00    +0.000 NA
ATOM     27  C   UNL     1      51.930   9.515  11.148  0.00  0.00    +0.000 C 
ENDBRANCH  18  27
ENDBRANCH  17  22
ENDBRANCH   1  17
TORSDOF 5
ENDMDL
MODEL 6
REMARK VINA RESULT:    -6.502      3.523      6.359
REMARK INTER + INTRA:          -9.281
REMARK INTER:                  -8.009
REMARK INTRA:                  -1.273
REMARK UNBOUND:                -0.879
REMARK  Name = 
REMARK  5 active torsions:
REMARK  status: ('A' for Active; 'I' for Inactive)
REMARK    1  A    between atoms: C_2  and  C_3
REMARK    2  A    between atoms: N_7  and  C_8
REMARK    3  A    between atoms: C_8  and  C_9
REMARK    4  A    between atoms: C_9  and  C_12
REMARK    5  A    between atoms: C_16  and  C_17
REMARK                            x       y       z     vdW  Elec       q    Type
REMARK                         _______ _______ _______ _____ _____    ______ ____
ROOT
ATOM      1  C   UNL     1      48.223   8.965  13.395  0.00  0.00    +0.000 C 
ATOM      2  F   UNL     1      49.061   8.300  12.544  0.00  0.00    +0.000 F 
ATOM      3  F   UNL     1      48.520  10.290  13.215  0.00  0.00    +0.000 F 
ENDROOT
BRANCH   1   4
ATOM      4  C   UNL     1      48.424   8.532  14.833  0.00  0.00    +0.000 A 
ATOM      5  C   UNL     1      48.461   9.465  15.874  0.00  0.00    +0.000 A 
ATOM      6  C   UNL     1      48.636   9.038  17.188  0.00  0.00    +0.000 A 
ATOM      7  C   UNL     1      48.788   7.677  17.475  0.00  0.00    +0.000 A 
ATOM      8  C   UNL     1      48.759   6.700  16.462  0.00  0.00    +0.000 A 
ATOM      9  C   UNL     1      48.571   7.172  15.146  0.00  0.00    +0.000 A 
ATOM     10  F   UNL     1      48.491   6.293  14.134  0.00  0.00    +0.000 F 
BRANCH   8  11
ATOM     11  C   UNL     1      48.916   5.253  16.772  0.00  0.00    +0.000 A 
ATOM     12  C   UNL     1      47.875   4.329  16.557  0.00  0.00    +0.000 A 
ATOM     13  C   UNL     1      48.027   2.967  16.846  0.00  0.00    +0.000 A 
ATOM     14  C   UNL     1      49.233   2.489  17.345  0.00  0.00    +0.000 A 
ATOM     15  C   UNL     1      50.280   3.374  17.571  0.00  0.00    +0.000 A 
ATOM     16  C   UNL     1      50.116   4.737  17.301  0.00  0.00    +0.000 A 
ENDBRANCH   8  11
ENDBRANCH   1   4
BRANCH   1  17
ATOM     17  C   UNL     1      46.760   8.734  12.941  0.00  0.00    +0.000 C 
BRANCH  17  22
ATOM     18  C   UNL     1      44.402   4.345  11.786  0.00  0.00    +0.000 A 
ATOM     19  C   UNL     1      44.418   5.107  12.945  0.00  0.00    +0.000 A 
ATOM     20  C   UNL     1      45.153   6.289  12.968  0.00  0.00    +0.000 A 
ATOM     21  C   UNL     1      45.869   6.688  11.841  0.00  0.00    +0.000 A 
ATOM     22  N   UNL     1      46.595   7.849  11.792  0.00  0.00    +0.000 N 
ATOM     23  N   UNL     1      45.864   5.948  10.715  0.00  0.00    +0.000 NA
ATOM     24  C   UNL     1      45.135   4.803  10.706  0.00  0.00    +0.000 A 
ATOM     25  H   UNL     1      47.135   7.998  10.944  0.00  0.00    +0.000 HD
BRANCH  18  27
ATOM     26  N   UNL     1      43.034   2.154  11.640  0.00  0.00    +0.000 NA
ATOM     27  C   UNL     1      43.654   3.130  11.709  0.00  0.00    +0.000 C 
ENDBRANCH  18  27
ENDBRANCH  17  22
ENDBRANCH   1  17
TORSDOF 5
ENDMDL
MODEL 7
REMARK VINA RESULT:    -6.429      5.240      7.798
REMARK INTER + INTRA:          -9.187
REMARK INTER:                  -8.143
REMARK INTRA:                  -1.044
REMARK UNBOUND:                -0.879
REMARK  Name = 
REMARK  5 active torsions:
REMARK  status: ('A' for Active; 'I' for Inactive)
REMARK    1  A    between atoms: C_2  and  C_3
REMARK    2  A    between atoms: N_7  and  C_8
REMARK    3  A    between atoms: C_8  and  C_9
REMARK    4  A    between atoms: C_9  and  C_12
REMARK    5  A    between atoms: C_16  and  C_17
REMARK                            x       y       z     vdW  Elec       q    Type
REMARK                         _______ _______ _______ _____ _____    ______ ____
ROOT
ATOM      1  C   UNL     1      49.014   7.037  16.193  0.00  0.00    +0.000 C 
ATOM      2  F   UNL     1      50.163   7.691  16.539  0.00  0.00    +0.000 F 
ATOM      3  F   UNL     1      48.002   7.854  16.624  0.00  0.00    +0.000 F 
ENDROOT
BRANCH   1   4
ATOM      4  C   UNL     1      48.937   5.663  16.826  0.00  0.00    +0.000 A 
ATOM      5  C   UNL     1      47.713   5.108  17.212  0.00  0.00    +0.000 A 
ATOM      6  C   UNL     1      47.671   3.838  17.782  0.00  0.00    +0.000 A 
ATOM      7  C   UNL     1      48.852   3.114  17.983  0.00  0.00    +0.000 A 
ATOM      8  C   UNL     1      50.108   3.629  17.612  0.00  0.00    +0.000 A 
ATOM      9  C   UNL     1      50.107   4.914  17.030  0.00  0.00    +0.000 A 
ATOM     10  F   UNL     1      51.265   5.452  16.614  0.00  0.00    +0.000 F 
BRANCH   8  11
ATOM     11  C   UNL     1      51.360   2.854  17.822  0.00  0.00    +0.000 A 
ATOM     12  C   UNL     1      52.480   3.410  18.471  0.00  0.00    +0.000 A 
ATOM     13  C   UNL     1      53.656   2.676  18.671  0.00  0.00    +0.000 A 
ATOM     14  C   UNL     1      53.738   1.356  18.241  0.00  0.00    +0.000 A 
ATOM     15  C   UNL     1      52.651   0.777  17.597  0.00  0.00    +0.000 A 
ATOM     16  C   UNL     1      51.487   1.522  17.380  0.00  0.00    +0.000 A 
ENDBRANCH   8  11
ENDBRANCH   1   4
BRANCH   1  17
ATOM     17  C   UNL     1      48.933   6.946  14.648  0.00  0.00    +0.000 C 
BRANCH  17  22
ATOM     18  C   UNL     1      44.958   4.482  12.575  0.00  0.00    +0.000 A 
ATOM     19  C   UNL     1      46.138   4.020  13.141  0.00  0.00    +0.000 A 
ATOM     20  C   UNL     1      47.052   4.941  13.649  0.00  0.00    +0.000 A 
ATOM     21  C   UNL     1      46.781   6.306  13.574  0.00  0.00    +0.000 A 
ATOM     22  N   UNL     1      47.628   7.261  14.073  0.00  0.00    +0.000 N 
ATOM     23  N   UNL     1      45.641   6.761  13.020  0.00  0.00    +0.000 NA
ATOM     24  C   UNL     1      44.757   5.850  12.537  0.00  0.00    +0.000 A 
ATOM     25  H   UNL     1      47.361   8.224  13.895  0.00  0.00    +0.000 HD
BRANCH  18  27
ATOM     26  N   UNL     1      43.187   2.856  11.621  0.00  0.00    +0.000 NA
ATOM     27  C   UNL     1      43.985   3.577  12.052  0.00  0.00    +0.000 C 
ENDBRANCH  18  27
ENDBRANCH  17  22
ENDBRANCH   1  17
TORSDOF 5
ENDMDL
MODEL 8
REMARK VINA RESULT:    -6.389      5.672      7.772
REMARK INTER + INTRA:          -9.136
REMARK INTER:                  -8.545
REMARK INTRA:                  -0.591
REMARK UNBOUND:                -0.879
REMARK  Name = 
REMARK  5 active torsions:
REMARK  status: ('A' for Active; 'I' for Inactive)
REMARK    1  A    between atoms: C_2  and  C_3
REMARK    2  A    between atoms: N_7  and  C_8
REMARK    3  A    between atoms: C_8  and  C_9
REMARK    4  A    between atoms: C_9  and  C_12
REMARK    5  A    between atoms: C_16  and  C_17
REMARK                            x       y       z     vdW  Elec       q    Type
REMARK                         _______ _______ _______ _____ _____    ______ ____
ROOT
ATOM      1  C   UNL     1      47.621   4.326  17.488  0.00  0.00    +0.000 C 
ATOM      2  F   UNL     1      46.667   5.046  18.150  0.00  0.00    +0.000 F 
ATOM      3  F   UNL     1      47.195   3.026  17.564  0.00  0.00    +0.000 F 
ENDROOT
BRANCH   1   4
ATOM      4  C   UNL     1      48.992   4.507  18.106  0.00  0.00    +0.000 A 
ATOM      5  C   UNL     1      49.246   5.531  19.024  0.00  0.00    +0.000 A 
ATOM      6  C   UNL     1      50.514   5.667  19.585  0.00  0.00    +0.000 A 
ATOM      7  C   UNL     1      51.544   4.792  19.225  0.00  0.00    +0.000 A 
ATOM      8  C   UNL     1      51.339   3.747  18.305  0.00  0.00    +0.000 A 
ATOM      9  C   UNL     1      50.040   3.637  17.767  0.00  0.00    +0.000 A 
ATOM     10  F   UNL     1      49.760   2.638  16.914  0.00  0.00    +0.000 F 
BRANCH   8  11
ATOM     11  C   UNL     1      52.436   2.814  17.929  0.00  0.00    +0.000 A 
ATOM     12  C   UNL     1      52.206   1.441  17.719  0.00  0.00    +0.000 A 
ATOM     13  C   UNL     1      53.240   0.566  17.361  0.00  0.00    +0.000 A 
ATOM     14  C   UNL     1      54.533   1.047  17.189  0.00  0.00    +0.000 A 
ATOM     15  C   UNL     1      54.795   2.397  17.390  0.00  0.00    +0.000 A 
ATOM     16  C   UNL     1      53.762   3.261  17.768  0.00  0.00    +0.000 A 
ENDBRANCH   8  11
ENDBRANCH   1   4
BRANCH   1  17
ATOM     17  C   UNL     1      47.621   4.744  15.996  0.00  0.00    +0.000 C 
BRANCH  17  22
ATOM     18  C   UNL     1      45.062   4.425  11.578  0.00  0.00    +0.000 A 
ATOM     19  C   UNL     1      45.461   5.515  12.338  0.00  0.00    +0.000 A 
ATOM     20  C   UNL     1      46.172   5.297  13.515  0.00  0.00    +0.000 A 
ATOM     21  C   UNL     1      46.464   3.997  13.923  0.00  0.00    +0.000 A 
ATOM     22  N   UNL     1      47.176   3.716  15.060  0.00  0.00    +0.000 N 
ATOM     23  N   UNL     1      46.073   2.934  13.195  0.00  0.00    +0.000 NA
ATOM     24  C   UNL     1      45.388   3.164  12.045  0.00  0.00    +0.000 A 
ATOM     25  H   UNL     1      47.264   2.732  15.294  0.00  0.00    +0.000 HD
BRANCH  18  27
ATOM     26  N   UNL     1      43.768   4.727   9.359  0.00  0.00    +0.000 NA
ATOM     27  C   UNL     1      44.341   4.597  10.357  0.00  0.00    +0.000 C 
ENDBRANCH  18  27
ENDBRANCH  17  22
ENDBRANCH   1  17
TORSDOF 5
ENDMDL
MODEL 9
REMARK VINA RESULT:    -6.386      4.662      7.862
REMARK INTER + INTRA:          -9.132
REMARK INTER:                  -8.252
REMARK INTRA:                  -0.880
REMARK UNBOUND:                -0.879
REMARK  Name = 
REMARK  5 active torsions:
REMARK  status: ('A' for Active; 'I' for Inactive)
REMARK    1  A    between atoms: C_2  and  C_3
REMARK    2  A    between atoms: N_7  and  C_8
REMARK    3  A    between atoms: C_8  and  C_9
REMARK    4  A    between atoms: C_9  and  C_12
REMARK    5  A    between atoms: C_16  and  C_17
REMARK                            x       y       z     vdW  Elec       q    Type
REMARK                         _______ _______ _______ _____ _____    ______ ____
ROOT
ATOM      1  C   UNL     1      48.762   7.753  14.032  0.00  0.00    +0.000 C 
ATOM      2  F   UNL     1      49.497   8.880  13.791  0.00  0.00    +0.000 F 
ATOM      3  F   UNL     1      49.553   6.720  13.603  0.00  0.00    +0.000 F 
ENDROOT
BRANCH   1   4
ATOM      4  C   UNL     1      47.432   7.783  13.307  0.00  0.00    +0.000 A 
ATOM      5  C   UNL     1      46.691   8.964  13.198  0.00  0.00    +0.000 A 
ATOM      6  C   UNL     1      45.476   8.965  12.517  0.00  0.00    +0.000 A 
ATOM      7  C   UNL     1      44.983   7.785  11.948  0.00  0.00    +0.000 A 
ATOM      8  C   UNL     1      45.692   6.572  12.031  0.00  0.00    +0.000 A 
ATOM      9  C   UNL     1      46.921   6.614  12.722  0.00  0.00    +0.000 A 
ATOM     10  F   UNL     1      47.671   5.503  12.805  0.00  0.00    +0.000 F 
BRANCH   8  11
ATOM     11  C   UNL     1      45.167   5.321  11.421  0.00  0.00    +0.000 A 
ATOM     12  C   UNL     1      45.289   5.057  10.042  0.00  0.00    +0.000 A 
ATOM     13  C   UNL     1      44.798   3.877   9.471  0.00  0.00    +0.000 A 
ATOM     14  C   UNL     1      44.182   2.918  10.268  0.00  0.00    +0.000 A 
ATOM     15  C   UNL     1      44.043   3.147  11.631  0.00  0.00    +0.000 A 
ATOM     16  C   UNL     1      44.517   4.338  12.193  0.00  0.00    +0.000 A 
ENDBRANCH   8  11
ENDBRANCH   1   4
BRANCH   1  17
ATOM     17  C   UNL     1      48.562   7.602  15.561  0.00  0.00    +0.000 C 
BRANCH  17  22
ATOM     18  C   UNL     1      51.321   3.850  17.677  0.00  0.00    +0.000 A 
ATOM     19  C   UNL     1      51.648   5.152  17.326  0.00  0.00    +0.000 A 
ATOM     20  C   UNL     1      50.668   5.969  16.768  0.00  0.00    +0.000 A 
ATOM     21  C   UNL     1      49.383   5.474  16.558  0.00  0.00    +0.000 A 
ATOM     22  N   UNL     1      48.370   6.233  16.032  0.00  0.00    +0.000 N 
ATOM     23  N   UNL     1      49.061   4.209  16.889  0.00  0.00    +0.000 NA
ATOM     24  C   UNL     1      50.024   3.427  17.440  0.00  0.00    +0.000 A 
ATOM     25  H   UNL     1      47.497   5.744  15.856  0.00  0.00    +0.000 HD
BRANCH  18  27
ATOM     26  N   UNL     1      53.077   2.265  18.723  0.00  0.00    +0.000 NA
ATOM     27  C   UNL     1      52.286   2.976  18.263  0.00  0.00    +0.000 C 
ENDBRANCH  18  27
ENDBRANCH  17  22
ENDBRANCH   1  17
TORSDOF 5
ENDMDL
