MODEL 1
REMARK VINA RESULT:    -8.228      0.000      0.000
REMARK INTER + INTRA:         -11.172
REMARK INTER:                 -10.633
REMARK INTRA:                  -0.538
REMARK UNBOUND:                -0.538
REMARK  Name = 
REMARK  6 active torsions:
REMARK  status: ('A' for Active; 'I' for Inactive)
REMARK    1  A    between atoms: C_1  and  O_2
REMARK    2  A    between atoms: O_2  and  C_3
REMARK    3  A    between atoms: C_6  and  C_7
REMARK    4  A    between atoms: C_7  and  N_8
REMARK    5  A    between atoms: N_8  and  C_9
REMARK    6  A    between atoms: C_12  and  C_13
REMARK                            x       y       z     vdW  Elec       q    Type
REMARK                         _______ _______ _______ _____ _____    ______ ____
ROOT
ATOM      1  C   UNL     1      44.502   3.980   9.162  0.00  0.00    +0.000 A 
ATOM      2  C   UNL     1      44.426   2.632   9.533  0.00  0.00    +0.000 A 
ATOM      3  C   UNL     1      45.256   1.665   8.943  0.00  0.00    +0.000 A 
ATOM      4  C   UNL     1      46.212   2.035   7.992  0.00  0.00    +0.000 A 
ATOM      5  C   UNL     1      46.325   3.381   7.656  0.00  0.00    +0.000 A 
ATOM      6  F   UNL     1      47.244   3.802   6.771  0.00  0.00    +0.000 F 
ATOM      7  C   UNL     1      45.490   4.339   8.235  0.00  0.00    +0.000 A 
ENDROOT
BRANCH   4   8
ATOM      8  C   UNL     1      47.063   0.972   7.395  0.00  0.00    +0.000 C 
ATOM      9  N   UNL     1      46.757  -0.331   7.664  0.00  0.00    +0.000 N 
ATOM     10  O   UNL     1      48.020   1.249   6.681  0.00  0.00    +0.000 OA
ATOM     11  H   UNL     1      45.972  -0.607   8.241  0.00  0.00    +0.000 HD
ATOM     12  H   UNL     1      47.337  -1.049   7.254  0.00  0.00    +0.000 HD
ENDBRANCH   4   8
BRANCH   1  13
ATOM     13  N   UNL     1      43.747   4.994   9.750  0.00  0.00    +0.000 N 
ATOM     14  H   UNL     1      42.879   5.179   9.252  0.00  0.00    +0.000 HD
BRANCH  13  15
ATOM     15  C   UNL     1      43.594   5.072  11.197  0.00  0.00    +0.000 C 
BRANCH  15  19
ATOM     16  C   UNL     1      47.460   5.797  13.020  0.00  0.00    +0.000 A 
ATOM     17  C   UNL     1      46.670   4.728  13.444  0.00  0.00    +0.000 A 
ATOM     18  C   UNL     1      45.415   4.506  12.865  0.00  0.00    +0.000 A 
ATOM     19  C   UNL     1      44.930   5.344  11.851  0.00  0.00    +0.000 A 
ATOM     20  C   UNL     1      45.727   6.417  11.432  0.00  0.00    +0.000 A 
ATOM     21  C   UNL     1      46.980   6.640  12.015  0.00  0.00    +0.000 A 
BRANCH  16  23
ATOM     22  C   UNL     1      48.773   7.200  14.423  0.00  0.00    +0.000 C 
ATOM     23  O   UNL     1      48.699   6.122  13.499  0.00  0.00    +0.000 OA
ENDBRANCH  16  23
ENDBRANCH  15  19
ENDBRANCH  13  15
ENDBRANCH   1  13
TORSDOF 5
ENDMDL
MODEL 2
REMARK VINA RESULT:    -8.197      1.354      1.719
REMARK INTER + INTRA:         -11.131
REMARK INTER:                 -10.545
REMARK INTRA:                  -0.586
REMARK UNBOUND:                -0.538
REMARK  Name = 
REMARK  6 active torsions:
REMARK  status: ('A' for Active; 'I' for Inactive)
REMARK    1  A    between atoms: C_1  and  O_2
REMARK    2  A    between atoms: O_2  and  C_3
REMARK    3  A    between atoms: C_6  and  C_7
REMARK    4  A    between atoms: C_7  and  N_8
REMARK    5  A    between atoms: N_8  and  C_9
REMARK    6  A    between atoms: C_12  and  C_13
REMARK                            x       y       z     vdW  Elec       q    Type
REMARK                         _______ _______ _______ _____ _____    ______ ____
ROOT
ATOM      1  C   UNL     1      44.728   4.145   9.208  0.00  0.00    +0.000 A 
ATOM      2  C   UNL     1      45.653   4.735   8.338  0.00  0.00    +0.000 A 
ATOM      3  C   UNL     1      46.544   3.957   7.584  0.00  0.00    +0.000 A 
ATOM      4  C   UNL     1      46.503   2.561   7.653  0.00  0.00    +0.000 A 
ATOM      5  C   UNL     1      45.552   1.968   8.479  0.00  0.00    +0.000 A 
ATOM      6  F   UNL     1      45.442   0.632   8.566  0.00  0.00    +0.000 F 
ATOM      7  C   UNL     1      44.674   2.746   9.238  0.00  0.00    +0.000 A 
ENDROOT
BRANCH   4   8
ATOM      8  C   UNL     1      47.471   1.783   6.837  0.00  0.00    +0.000 C 
ATOM      9  N   UNL     1      48.609   2.405   6.413  0.00  0.00    +0.000 N 
ATOM     10  O   UNL     1      47.259   0.611   6.543  0.00  0.00    +0.000 OA
ATOM     11  H   UNL     1      48.830   3.368   6.638  0.00  0.00    +0.000 HD
ATOM     12  H   UNL     1      49.265   1.871   5.860  0.00  0.00    +0.000 HD
ENDBRANCH   4   8
BRANCH   1  13
ATOM     13  N   UNL     1      43.780   4.860   9.939  0.00  0.00    +0.000 N 
ATOM     14  H   UNL     1      42.903   4.981   9.436  0.00  0.00    +0.000 HD
BRANCH  13  15
ATOM     15  C   UNL     1      43.583   4.608  11.360  0.00  0.00    +0.000 C 
BRANCH  15  19
ATOM     16  C   UNL     1      47.246   5.506  13.497  0.00  0.00    +0.000 A 
ATOM     17  C   UNL     1      46.726   4.212  13.504  0.00  0.00    +0.000 A 
ATOM     18  C   UNL     1      45.534   3.927  12.827  0.00  0.00    +0.000 A 
ATOM     19  C   UNL     1      44.845   4.930  12.129  0.00  0.00    +0.000 A 
ATOM     20  C   UNL     1      45.371   6.227  12.129  0.00  0.00    +0.000 A 
ATOM     21  C   UNL     1      46.561   6.510  12.810  0.00  0.00    +0.000 A 
BRANCH  16  23
ATOM     22  C   UNL     1      48.822   7.250  13.871  0.00  0.00    +0.000 C 
ATOM     23  O   UNL     1      48.397   5.914  14.114  0.00  0.00    +0.000 OA
ENDBRANCH  16  23
ENDBRANCH  15  19
ENDBRANCH  13  15
ENDBRANCH   1  13
TORSDOF 5
ENDMDL
MODEL 3
REMARK VINA RESULT:    -7.423      2.600      6.557
REMARK INTER + INTRA:         -10.131
REMARK INTER:                  -9.425
REMARK INTRA:                  -0.707
REMARK UNBOUND:                -0.538
REMARK  Name = 
REMARK  6 active torsions:
REMARK  status: ('A' for Active; 'I' for Inactive)
REMARK    1  A    between atoms: C_1  and  O_2
REMARK    2  A    between atoms: O_2  and  C_3
REMARK    3  A    between atoms: C_6  and  C_7
REMARK    4  A    between atoms: C_7  and  N_8
REMARK    5  A    between atoms: N_8  and  C_9
REMARK    6  A    between atoms: C_12  and  C_13
REMARK                            x       y       z     vdW  Elec       q    Type
REMARK                         _______ _______ _______ _____ _____    ______ ____
ROOT
ATOM      1  C   UNL     1      45.099   4.716  11.915  0.00  0.00    +0.000 A 
ATOM      2  C   UNL     1      45.648   5.919  11.453  0.00  0.00    +0.000 A 
ATOM      3  C   UNL     1      46.663   6.577  12.164  0.00  0.00    +0.000 A 
ATOM      4  C   UNL     1      47.181   6.024  13.339  0.00  0.00    +0.000 A 
ATOM      5  C   UNL     1      46.673   4.805  13.777  0.00  0.00    +0.000 A 
ATOM      6  F   UNL     1      47.150   4.208  14.881  0.00  0.00    +0.000 F 
ATOM      7  C   UNL     1      45.654   4.157  13.073  0.00  0.00    +0.000 A 
ENDROOT
BRANCH   4   8
ATOM      8  C   UNL     1      48.253   6.764  14.056  0.00  0.00    +0.000 C 
ATOM      9  N   UNL     1      47.908   7.512  15.145  0.00  0.00    +0.000 N 
ATOM     10  O   UNL     1      49.421   6.712  13.686  0.00  0.00    +0.000 OA
ATOM     11  H   UNL     1      46.959   7.578  15.492  0.00  0.00    +0.000 HD
ATOM     12  H   UNL     1      48.641   8.011  15.630  0.00  0.00    +0.000 HD
ENDBRANCH   4   8
BRANCH   1  13
ATOM     13  N   UNL     1      44.132   3.986  11.226  0.00  0.00    +0.000 N 
ATOM     14  H   UNL     1      43.268   3.879  11.755  0.00  0.00    +0.000 HD
BRANCH  13  15
ATOM     15  C   UNL     1      43.899   4.203   9.805  0.00  0.00    +0.000 C 
BRANCH  15  19
ATOM     16  C   UNL     1      46.872   2.158   7.402  0.00  0.00    +0.000 A 
ATOM     17  C   UNL     1      46.049   1.438   8.268  0.00  0.00    +0.000 A 
ATOM     18  C   UNL     1      45.101   2.102   9.055  0.00  0.00    +0.000 A 
ATOM     19  C   UNL     1      44.956   3.495   8.987  0.00  0.00    +0.000 A 
ATOM     20  C   UNL     1      45.787   4.212   8.118  0.00  0.00    +0.000 A 
ATOM     21  C   UNL     1      46.737   3.547   7.334  0.00  0.00    +0.000 A 
BRANCH  16  23
ATOM     22  C   UNL     1      48.014   2.259   5.317  0.00  0.00    +0.000 C 
ATOM     23  O   UNL     1      47.832   1.633   6.581  0.00  0.00    +0.000 OA
ENDBRANCH  16  23
ENDBRANCH  15  19
ENDBRANCH  13  15
ENDBRANCH   1  13
TORSDOF 5
ENDMDL
MODEL 4
REMARK VINA RESULT:    -7.210      2.403      6.478
REMARK INTER + INTRA:          -9.856
REMARK INTER:                  -9.285
REMARK INTRA:                  -0.571
REMARK UNBOUND:                -0.538
REMARK  Name = 
REMARK  6 active torsions:
REMARK  status: ('A' for Active; 'I' for Inactive)
REMARK    1  A    between atoms: C_1  and  O_2
REMARK    2  A    between atoms: O_2  and  C_3
REMARK    3  A    between atoms: C_6  and  C_7
REMARK    4  A    between atoms: C_7  and  N_8
REMARK    5  A    between atoms: N_8  and  C_9
REMARK    6  A    between atoms: C_12  and  C_13
REMARK                            x       y       z     vdW  Elec       q    Type
REMARK                         _______ _______ _______ _____ _____    ______ ____
ROOT
ATOM      1  C   UNL     1      45.212   5.259  11.358  0.00  0.00    +0.000 A 
ATOM      2  C   UNL     1      45.513   4.408  12.428  0.00  0.00    +0.000 A 
ATOM      3  C   UNL     1      46.491   4.745  13.377  0.00  0.00    +0.000 A 
ATOM      4  C   UNL     1      47.167   5.966  13.296  0.00  0.00    +0.000 A 
ATOM      5  C   UNL     1      46.838   6.838  12.262  0.00  0.00    +0.000 A 
ATOM      6  F   UNL     1      47.430   8.038  12.149  0.00  0.00    +0.000 F 
ATOM      7  C   UNL     1      45.872   6.494  11.313  0.00  0.00    +0.000 A 
ENDROOT
BRANCH   4   8
ATOM      8  C   UNL     1      48.196   6.274  14.324  0.00  0.00    +0.000 C 
ATOM      9  N   UNL     1      47.879   6.082  15.637  0.00  0.00    +0.000 N 
ATOM     10  O   UNL     1      49.305   6.692  14.009  0.00  0.00    +0.000 OA
ATOM     11  H   UNL     1      46.980   5.730  15.943  0.00  0.00    +0.000 HD
ATOM     12  H   UNL     1      48.583   6.290  16.332  0.00  0.00    +0.000 HD
ENDBRANCH   4   8
BRANCH   1  13
ATOM     13  N   UNL     1      44.214   5.008  10.418  0.00  0.00    +0.000 N 
ATOM     14  H   UNL     1      44.244   5.652   9.629  0.00  0.00    +0.000 HD
BRANCH  13  15
ATOM     15  C   UNL     1      43.883   3.646  10.021  0.00  0.00    +0.000 C 
BRANCH  15  19
ATOM     16  C   UNL     1      46.840   2.195   7.203  0.00  0.00    +0.000 A 
ATOM     17  C   UNL     1      46.488   3.544   7.223  0.00  0.00    +0.000 A 
ATOM     18  C   UNL     1      45.521   4.008   8.123  0.00  0.00    +0.000 A 
ATOM     19  C   UNL     1      44.893   3.132   9.020  0.00  0.00    +0.000 A 
ATOM     20  C   UNL     1      45.248   1.778   8.992  0.00  0.00    +0.000 A 
ATOM     21  C   UNL     1      46.212   1.316   8.090  0.00  0.00    +0.000 A 
BRANCH  16  23
ATOM     22  C   UNL     1      48.052   2.284   5.157  0.00  0.00    +0.000 C 
ATOM     23  O   UNL     1      47.766   1.616   6.380  0.00  0.00    +0.000 OA
ENDBRANCH  16  23
ENDBRANCH  15  19
ENDBRANCH  13  15
ENDBRANCH   1  13
TORSDOF 5
ENDMDL
MODEL 5
REMARK VINA RESULT:    -5.942      4.476      6.376
REMARK INTER + INTRA:          -8.217
REMARK INTER:                  -7.706
REMARK INTRA:                  -0.511
REMARK UNBOUND:                -0.538
REMARK  Name = 
REMARK  6 active torsions:
REMARK  status: ('A' for Active; 'I' for Inactive)
REMARK    1  A    between atoms: C_1  and  O_2
REMARK    2  A    between atoms: O_2  and  C_3
REMARK    3  A    between atoms: C_6  and  C_7
REMARK    4  A    between atoms: C_7  and  N_8
REMARK    5  A    between atoms: N_8  and  C_9
REMARK    6  A    between atoms: C_12  and  C_13
REMARK                            x       y       z     vdW  Elec       q    Type
REMARK                         _______ _______ _______ _____ _____    ______ ____
ROOT
ATOM      1  C   UNL     1      47.080   5.488  14.105  0.00  0.00    +0.000 A 
ATOM      2  C   UNL     1      46.919   6.549  13.206  0.00  0.00    +0.000 A 
ATOM      3  C   UNL     1      46.190   6.393  12.017  0.00  0.00    +0.000 A 
ATOM      4  C   UNL     1      45.570   5.176  11.718  0.00  0.00    +0.000 A 
ATOM      5  C   UNL     1      45.686   4.132  12.632  0.00  0.00    +0.000 A 
ATOM      6  F   UNL     1      45.089   2.949  12.416  0.00  0.00    +0.000 F 
ATOM      7  C   UNL     1      46.422   4.287  13.809  0.00  0.00    +0.000 A 
ENDROOT
BRANCH   4   8
ATOM      8  C   UNL     1      44.813   5.062  10.444  0.00  0.00    +0.000 C 
ATOM      9  N   UNL     1      45.493   5.212   9.270  0.00  0.00    +0.000 N 
ATOM     10  O   UNL     1      43.607   4.841  10.437  0.00  0.00    +0.000 OA
ATOM     11  H   UNL     1      46.490   5.386   9.227  0.00  0.00    +0.000 HD
ATOM     12  H   UNL     1      44.974   5.131   8.407  0.00  0.00    +0.000 HD
ENDBRANCH   4   8
BRANCH   1  13
ATOM     13  N   UNL     1      47.742   5.595  15.328  0.00  0.00    +0.000 N 
ATOM     14  H   UNL     1      47.771   6.552  15.678  0.00  0.00    +0.000 HD
BRANCH  13  15
ATOM     15  C   UNL     1      47.531   4.615  16.384  0.00  0.00    +0.000 C 
BRANCH  15  19
ATOM     16  C   UNL     1      51.285   2.870  17.668  0.00  0.00    +0.000 A 
ATOM     17  C   UNL     1      51.106   4.253  17.694  0.00  0.00    +0.000 A 
ATOM     18  C   UNL     1      49.899   4.816  17.263  0.00  0.00    +0.000 A 
ATOM     19  C   UNL     1      48.849   4.006  16.804  0.00  0.00    +0.000 A 
ATOM     20  C   UNL     1      49.038   2.619  16.778  0.00  0.00    +0.000 A 
ATOM     21  C   UNL     1      50.247   2.058  17.205  0.00  0.00    +0.000 A 
BRANCH  16  23
ATOM     22  C   UNL     1      52.618   0.905  17.503  0.00  0.00    +0.000 C 
ATOM     23  O   UNL     1      52.409   2.196  18.061  0.00  0.00    +0.000 OA
ENDBRANCH  16  23
ENDBRANCH  15  19
ENDBRANCH  13  15
ENDBRANCH   1  13
TORSDOF 5
ENDMDL
MODEL 6
REMARK VINA RESULT:    -5.869      3.568      4.996
REMARK INTER + INTRA:          -8.122
REMARK INTER:                  -7.577
REMARK INTRA:                  -0.546
REMARK UNBOUND:                -0.538
REMARK  Name = 
REMARK  6 active torsions:
REMARK  status: ('A' for Active; 'I' for Inactive)
REMARK    1  A    between atoms: C_1  and  O_2
REMARK    2  A    between atoms: O_2  and  C_3
REMARK    3  A    between atoms: C_6  and  C_7
REMARK    4  A    between atoms: C_7  and  N_8
REMARK    5  A    between atoms: N_8  and  C_9
REMARK    6  A    between atoms: C_12  and  C_13
REMARK                            x       y       z     vdW  Elec       q    Type
REMARK                         _______ _______ _______ _____ _____    ______ ____
ROOT
ATOM      1  C   UNL     1      45.782   6.145  12.935  0.00  0.00    +0.000 A 
ATOM      2  C   UNL     1      46.232   4.838  13.156  0.00  0.00    +0.000 A 
ATOM      3  C   UNL     1      45.602   3.738  12.552  0.00  0.00    +0.000 A 
ATOM      4  C   UNL     1      44.526   3.927  11.680  0.00  0.00    +0.000 A 
ATOM      5  C   UNL     1      44.106   5.228  11.418  0.00  0.00    +0.000 A 
ATOM      6  F   UNL     1      43.098   5.476  10.567  0.00  0.00    +0.000 F 
ATOM      7  C   UNL     1      44.727   6.320  12.030  0.00  0.00    +0.000 A 
ENDROOT
BRANCH   4   8
ATOM      8  C   UNL     1      43.892   2.728  11.070  0.00  0.00    +0.000 C 
ATOM      9  N   UNL     1      44.452   2.202   9.941  0.00  0.00    +0.000 N 
ATOM     10  O   UNL     1      42.889   2.220  11.559  0.00  0.00    +0.000 OA
ATOM     11  H   UNL     1      45.284   2.583   9.508  0.00  0.00    +0.000 HD
ATOM     12  H   UNL     1      44.019   1.386   9.532  0.00  0.00    +0.000 HD
ENDBRANCH   4   8
BRANCH   1  13
ATOM     13  N   UNL     1      46.399   7.281  13.458  0.00  0.00    +0.000 N 
ATOM     14  H   UNL     1      47.244   7.064  13.984  0.00  0.00    +0.000 HD
BRANCH  13  15
ATOM     15  C   UNL     1      46.525   8.498  12.667  0.00  0.00    +0.000 C 
BRANCH  15  19
ATOM     16  C   UNL     1      50.606   8.935  11.271  0.00  0.00    +0.000 A 
ATOM     17  C   UNL     1      49.779  10.052  11.391  0.00  0.00    +0.000 A 
ATOM     18  C   UNL     1      48.456   9.906  11.826  0.00  0.00    +0.000 A 
ATOM     19  C   UNL     1      47.940   8.644  12.153  0.00  0.00    +0.000 A 
ATOM     20  C   UNL     1      48.775   7.527  12.028  0.00  0.00    +0.000 A 
ATOM     21  C   UNL     1      50.095   7.674  11.589  0.00  0.00    +0.000 A 
BRANCH  16  23
ATOM     22  C   UNL     1      52.474   7.691  10.479  0.00  0.00    +0.000 C 
ATOM     23  O   UNL     1      51.911   8.940  10.862  0.00  0.00    +0.000 OA
ENDBRANCH  16  23
ENDBRANCH  15  19
ENDBRANCH  13  15
ENDBRANCH   1  13
TORSDOF 5
ENDMDL
MODEL 7
REMARK VINA RESULT:    -5.792      3.609      4.989
REMARK INTER + INTRA:          -8.023
REMARK INTER:                  -7.571
REMARK INTRA:                  -0.453
REMARK UNBOUND:                -0.538
REMARK  Name = 
REMARK  6 active torsions:
REMARK  status: ('A' for Active; 'I' for Inactive)
REMARK    1  A    between atoms: C_1  and  O_2
REMARK    2  A    between atoms: O_2  and  C_3
REMARK    3  A    between atoms: C_6  and  C_7
REMARK    4  A    between atoms: C_7  and  N_8
REMARK    5  A    between atoms: N_8  and  C_9
REMARK    6  A    between atoms: C_12  and  C_13
REMARK                            x       y       z     vdW  Elec       q    Type
REMARK                         _______ _______ _______ _____ _____    ______ ____
ROOT
ATOM      1  C   UNL     1      45.618   6.456  12.647  0.00  0.00    +0.000 A 
ATOM      2  C   UNL     1      44.520   6.467  11.778  0.00  0.00    +0.000 A 
ATOM      3  C   UNL     1      43.983   5.276  11.266  0.00  0.00    +0.000 A 
ATOM      4  C   UNL     1      44.512   4.037  11.644  0.00  0.00    +0.000 A 
ATOM      5  C   UNL     1      45.573   4.019  12.545  0.00  0.00    +0.000 A 
ATOM      6  F   UNL     1      46.106   2.861  12.969  0.00  0.00    +0.000 F 
ATOM      7  C   UNL     1      46.113   5.207  13.044  0.00  0.00    +0.000 A 
ENDROOT
BRANCH   4   8
ATOM      8  C   UNL     1      43.910   2.806  11.070  0.00  0.00    +0.000 C 
ATOM      9  N   UNL     1      44.467   2.276   9.942  0.00  0.00    +0.000 N 
ATOM     10  O   UNL     1      42.934   2.273  11.588  0.00  0.00    +0.000 OA
ATOM     11  H   UNL     1      45.278   2.676   9.485  0.00  0.00    +0.000 HD
ATOM     12  H   UNL     1      44.055   1.438   9.557  0.00  0.00    +0.000 HD
ENDBRANCH   4   8
BRANCH   1  13
ATOM     13  N   UNL     1      46.160   7.599  13.233  0.00  0.00    +0.000 N 
ATOM     14  H   UNL     1      46.908   7.387  13.891  0.00  0.00    +0.000 HD
BRANCH  13  15
ATOM     15  C   UNL     1      46.426   8.793  12.443  0.00  0.00    +0.000 C 
BRANCH  15  19
ATOM     16  C   UNL     1      50.608   8.987  11.318  0.00  0.00    +0.000 A 
ATOM     17  C   UNL     1      49.995   7.754  11.543  0.00  0.00    +0.000 A 
ATOM     18  C   UNL     1      48.649   7.695  11.922  0.00  0.00    +0.000 A 
ATOM     19  C   UNL     1      47.891   8.865  12.079  0.00  0.00    +0.000 A 
ATOM     20  C   UNL     1      48.514  10.099  11.855  0.00  0.00    +0.000 A 
ATOM     21  C   UNL     1      49.861  10.156  11.479  0.00  0.00    +0.000 A 
BRANCH  16  23
ATOM     22  C   UNL     1      52.848   8.184  11.321  0.00  0.00    +0.000 C 
ATOM     23  O   UNL     1      51.908   9.183  10.943  0.00  0.00    +0.000 OA
ENDBRANCH  16  23
ENDBRANCH  15  19
ENDBRANCH  13  15
ENDBRANCH   1  13
TORSDOF 5
ENDMDL
MODEL 8
REMARK VINA RESULT:    -5.698      4.709      8.166
REMARK INTER + INTRA:          -7.902
REMARK INTER:                  -7.549
REMARK INTRA:                  -0.353
REMARK UNBOUND:                -0.538
REMARK  Name = 
REMARK  6 active torsions:
REMARK  status: ('A' for Active; 'I' for Inactive)
REMARK    1  A    between atoms: C_1  and  O_2
REMARK    2  A    between atoms: O_2  and  C_3
REMARK    3  A    between atoms: C_6  and  C_7
REMARK    4  A    between atoms: C_7  and  N_8
REMARK    5  A    between atoms: N_8  and  C_9
REMARK    6  A    between atoms: C_12  and  C_13
REMARK                            x       y       z     vdW  Elec       q    Type
REMARK                         _______ _______ _______ _____ _____    ______ ____
ROOT
ATOM      1  C   UNL     1      47.899   5.569  15.142  0.00  0.00    +0.000 A 
ATOM      2  C   UNL     1      48.683   6.344  16.004  0.00  0.00    +0.000 A 
ATOM      3  C   UNL     1      48.783   6.041  17.371  0.00  0.00    +0.000 A 
ATOM      4  C   UNL     1      48.128   4.924  17.900  0.00  0.00    +0.000 A 
ATOM      5  C   UNL     1      47.386   4.122  17.038  0.00  0.00    +0.000 A 
ATOM      6  F   UNL     1      46.759   3.020  17.480  0.00  0.00    +0.000 F 
ATOM      7  C   UNL     1      47.279   4.434  15.680  0.00  0.00    +0.000 A 
ENDROOT
BRANCH   4   8
ATOM      8  C   UNL     1      48.263   4.649  19.355  0.00  0.00    +0.000 C 
ATOM      9  N   UNL     1      48.663   3.403  19.744  0.00  0.00    +0.000 N 
ATOM     10  O   UNL     1      48.021   5.511  20.192  0.00  0.00    +0.000 OA
ATOM     11  H   UNL     1      48.882   2.663  19.089  0.00  0.00    +0.000 HD
ATOM     12  H   UNL     1      48.756   3.222  20.734  0.00  0.00    +0.000 HD
ENDBRANCH   4   8
BRANCH   1  13
ATOM     13  N   UNL     1      47.805   5.784  13.767  0.00  0.00    +0.000 N 
ATOM     14  H   UNL     1      48.165   5.004  13.220  0.00  0.00    +0.000 HD
BRANCH  13  15
ATOM     15  C   UNL     1      46.612   6.380  13.182  0.00  0.00    +0.000 C 
BRANCH  15  19
ATOM     16  C   UNL     1      44.615   3.597  10.525  0.00  0.00    +0.000 A 
ATOM     17  C   UNL     1      44.776   3.289  11.876  0.00  0.00    +0.000 A 
ATOM     18  C   UNL     1      45.436   4.182  12.729  0.00  0.00    +0.000 A 
ATOM     19  C   UNL     1      45.941   5.398  12.247  0.00  0.00    +0.000 A 
ATOM     20  C   UNL     1      45.779   5.699  10.890  0.00  0.00    +0.000 A 
ATOM     21  C   UNL     1      45.122   4.804  10.038  0.00  0.00    +0.000 A 
BRANCH  16  23
ATOM     22  C   UNL     1      44.786   1.841   8.927  0.00  0.00    +0.000 C 
ATOM     23  O   UNL     1      43.991   2.817   9.590  0.00  0.00    +0.000 OA
ENDBRANCH  16  23
ENDBRANCH  15  19
ENDBRANCH  13  15
ENDBRANCH   1  13
TORSDOF 5
ENDMDL
MODEL 9
REMARK VINA RESULT:    -5.679      4.438      7.680
REMARK INTER + INTRA:          -7.877
REMARK INTER:                  -7.318
REMARK INTRA:                  -0.559
REMARK UNBOUND:                -0.538
REMARK  Name = 
REMARK  6 active torsions:
REMARK  status: ('A' for Active; 'I' for Inactive)
REMARK    1  A    between atoms: C_1  and  O_2
REMARK    2  A    between atoms: O_2  and  C_3
REMARK    3  A    between atoms: C_6  and  C_7
REMARK    4  A    between atoms: C_7  and  N_8
REMARK    5  A    between atoms: N_8  and  C_9
REMARK    6  A    between atoms: C_12  and  C_13
REMARK                            x       y       z     vdW  Elec       q    Type
REMARK                         _______ _______ _______ _____ _____    ______ ____
ROOT
ATOM      1  C   UNL     1      47.484   5.592  14.610  0.00  0.00    +0.000 A 
ATOM      2  C   UNL     1      47.046   4.356  15.097  0.00  0.00    +0.000 A 
ATOM      3  C   UNL     1      47.576   3.806  16.275  0.00  0.00    +0.000 A 
ATOM      4  C   UNL     1      48.536   4.503  17.015  0.00  0.00    +0.000 A 
ATOM      5  C   UNL     1      48.940   5.756  16.561  0.00  0.00    +0.000 A 
ATOM      6  F   UNL     1      49.836   6.487  17.243  0.00  0.00    +0.000 F 
ATOM      7  C   UNL     1      48.419   6.295  15.382  0.00  0.00    +0.000 A 
ENDROOT
BRANCH   4   8
ATOM      8  C   UNL     1      49.069   3.875  18.252  0.00  0.00    +0.000 C 
ATOM      9  N   UNL     1      50.175   3.081  18.152  0.00  0.00    +0.000 N 
ATOM     10  O   UNL     1      48.533   4.057  19.340  0.00  0.00    +0.000 OA
ATOM     11  H   UNL     1      50.655   2.910  17.277  0.00  0.00    +0.000 HD
ATOM     12  H   UNL     1      50.534   2.659  18.997  0.00  0.00    +0.000 HD
ENDBRANCH   4   8
BRANCH   1  13
ATOM     13  N   UNL     1      46.956   6.217  13.480  0.00  0.00    +0.000 N 
ATOM     14  H   UNL     1      47.546   6.107  12.657  0.00  0.00    +0.000 HD
BRANCH  13  15
ATOM     15  C   UNL     1      45.536   6.131  13.171  0.00  0.00    +0.000 C 
BRANCH  15  19
ATOM     16  C   UNL     1      44.992   3.649   9.658  0.00  0.00    +0.000 A 
ATOM     17  C   UNL     1      45.449   4.961   9.530  0.00  0.00    +0.000 A 
ATOM     18  C   UNL     1      45.608   5.767  10.664  0.00  0.00    +0.000 A 
ATOM     19  C   UNL     1      45.318   5.273  11.945  0.00  0.00    +0.000 A 
ATOM     20  C   UNL     1      44.857   3.956  12.066  0.00  0.00    +0.000 A 
ATOM     21  C   UNL     1      44.695   3.154  10.930  0.00  0.00    +0.000 A 
BRANCH  16  23
ATOM     22  C   UNL     1      45.802   1.777   8.433  0.00  0.00    +0.000 C 
ATOM     23  O   UNL     1      44.796   2.762   8.636  0.00  0.00    +0.000 OA
ENDBRANCH  16  23
ENDBRANCH  15  19
ENDBRANCH  13  15
ENDBRANCH   1  13
TORSDOF 5
ENDMDL
