MODEL 1
REMARK VINA RESULT:    -7.734      0.000      0.000
REMARK INTER + INTRA:         -10.991
REMARK INTER:                  -9.994
REMARK INTRA:                  -0.997
REMARK UNBOUND:                -0.997
REMARK  Name = 
REMARK  6 active torsions:
REMARK  status: ('A' for Active; 'I' for Inactive)
REMARK    1  A    between atoms: C_1  and  C_2
REMARK    2  A    between atoms: C_4  and  C_5
REMARK    3  A    between atoms: N_10  and  C_11
REMARK    4  A    between atoms: C_11  and  C_12
REMARK    5  A    between atoms: C_17  and  C_18
REMARK    6  A    between atoms: C_22  and  C_23
REMARK                            x       y       z     vdW  Elec       q    Type
REMARK                         _______ _______ _______ _____ _____    ______ ____
ROOT
ATOM      1  C   UNL     1      49.005   7.006  14.308  0.00  0.00    +0.000 C 
ENDROOT
BRANCH   1   8
ATOM      2  C   UNL     1      47.132   5.916  19.894  0.00  0.00    +0.000 C 
ATOM      3  C   UNL     1      47.842   5.517  18.637  0.00  0.00    +0.000 A 
ATOM      4  C   UNL     1      48.307   4.240  18.455  0.00  0.00    +0.000 A 
ATOM      5  C   UNL     1      48.955   4.019  17.260  0.00  0.00    +0.000 A 
ATOM      6  N   UNL     1      49.150   4.961  16.302  0.00  0.00    +0.000 NA
ATOM      7  C   UNL     1      48.673   6.177  16.580  0.00  0.00    +0.000 A 
ATOM      8  N   UNL     1      48.869   7.240  15.725  0.00  0.00    +0.000 N 
ATOM      9  N   UNL     1      48.017   6.482  17.708  0.00  0.00    +0.000 NA
ATOM     10  H   UNL     1      48.244   7.986  16.007  0.00  0.00    +0.000 HD
BRANCH   5  11
ATOM     11  C   UNL     1      49.489   2.650  16.977  0.00  0.00    +0.000 C 
ATOM     12  N   UNL     1      50.494   2.221  17.801  0.00  0.00    +0.000 N 
ATOM     13  O   UNL     1      49.059   1.950  16.071  0.00  0.00    +0.000 OA
ATOM     14  H   UNL     1      50.799   2.798  18.575  0.00  0.00    +0.000 HD
ATOM     15  H   UNL     1      50.875   1.295  17.669  0.00  0.00    +0.000 HD
ENDBRANCH   5  11
ENDBRANCH   1   8
BRANCH   1  16
ATOM     16  C   UNL     1      47.714   7.266  13.566  0.00  0.00    +0.000 A 
ATOM     17  C   UNL     1      47.091   8.523  13.590  0.00  0.00    +0.000 A 
ATOM     18  C   UNL     1      45.903   8.730  12.893  0.00  0.00    +0.000 A 
ATOM     19  C   UNL     1      45.331   7.685  12.172  0.00  0.00    +0.000 A 
ATOM     20  F   UNL     1      44.172   7.941  11.543  0.00  0.00    +0.000 F 
ATOM     21  C   UNL     1      45.923   6.414  12.103  0.00  0.00    +0.000 A 
ATOM     22  C   UNL     1      47.120   6.230  12.823  0.00  0.00    +0.000 A 
BRANCH  21  23
ATOM     23  C   UNL     1      45.322   5.313  11.318  0.00  0.00    +0.000 A 
ATOM     24  C   UNL     1      44.352   4.460  11.877  0.00  0.00    +0.000 A 
ATOM     25  C   UNL     1      43.817   3.386  11.166  0.00  0.00    +0.000 A 
ATOM     26  C   UNL     1      44.219   3.156   9.857  0.00  0.00    +0.000 A 
ATOM     27  C   UNL     1      45.156   4.002   9.261  0.00  0.00    +0.000 A 
ATOM     28  C   UNL     1      45.705   5.066   9.988  0.00  0.00    +0.000 A 
BRANCH  27  29
ATOM     29  C   UNL     1      45.568   3.774   7.910  0.00  0.00    +0.000 C 
ATOM     30  N   UNL     1      45.903   3.590   6.815  0.00  0.00    +0.000 NA
ENDBRANCH  27  29
ENDBRANCH  21  23
ENDBRANCH   1  16
TORSDOF 5
ENDMDL
MODEL 2
REMARK VINA RESULT:    -7.459      2.420      4.263
REMARK INTER + INTRA:         -10.636
REMARK INTER:                 -10.097
REMARK INTRA:                  -0.539
REMARK UNBOUND:                -0.997
REMARK  Name = 
REMARK  6 active torsions:
REMARK  status: ('A' for Active; 'I' for Inactive)
REMARK    1  A    between atoms: C_1  and  C_2
REMARK    2  A    between atoms: C_4  and  C_5
REMARK    3  A    between atoms: N_10  and  C_11
REMARK    4  A    between atoms: C_11  and  C_12
REMARK    5  A    between atoms: C_17  and  C_18
REMARK    6  A    between atoms: C_22  and  C_23
REMARK                            x       y       z     vdW  Elec       q    Type
REMARK                         _______ _______ _______ _____ _____    ______ ____
ROOT
ATOM      1  C   UNL     1      45.302   7.542  12.023  0.00  0.00    +0.000 C 
ENDROOT
BRANCH   1   8
ATOM      2  C   UNL     1      50.805   8.150  14.315  0.00  0.00    +0.000 C 
ATOM      3  C   UNL     1      49.480   7.456  14.225  0.00  0.00    +0.000 A 
ATOM      4  C   UNL     1      49.133   6.463  15.104  0.00  0.00    +0.000 A 
ATOM      5  C   UNL     1      47.894   5.903  14.892  0.00  0.00    +0.000 A 
ATOM      6  N   UNL     1      47.042   6.265  13.900  0.00  0.00    +0.000 NA
ATOM      7  C   UNL     1      47.478   7.231  13.087  0.00  0.00    +0.000 A 
ATOM      8  N   UNL     1      46.742   7.640  11.996  0.00  0.00    +0.000 N 
ATOM      9  N   UNL     1      48.661   7.844  13.224  0.00  0.00    +0.000 NA
ATOM     10  H   UNL     1      47.134   8.513  11.665  0.00  0.00    +0.000 HD
BRANCH   5  11
ATOM     11  C   UNL     1      47.433   4.815  15.812  0.00  0.00    +0.000 C 
ATOM     12  N   UNL     1      47.417   5.130  17.145  0.00  0.00    +0.000 N 
ATOM     13  O   UNL     1      47.090   3.713  15.409  0.00  0.00    +0.000 OA
ATOM     14  H   UNL     1      47.659   6.065  17.449  0.00  0.00    +0.000 HD
ATOM     15  H   UNL     1      47.093   4.441  17.807  0.00  0.00    +0.000 HD
ENDBRANCH   5  11
ENDBRANCH   1   8
BRANCH   1  16
ATOM     16  C   UNL     1      44.820   6.182  11.574  0.00  0.00    +0.000 A 
ATOM     17  C   UNL     1      43.756   5.529  12.216  0.00  0.00    +0.000 A 
ATOM     18  C   UNL     1      43.335   4.276  11.775  0.00  0.00    +0.000 A 
ATOM     19  C   UNL     1      43.973   3.669  10.697  0.00  0.00    +0.000 A 
ATOM     20  F   UNL     1      43.537   2.451  10.338  0.00  0.00    +0.000 F 
ATOM     21  C   UNL     1      45.031   4.288  10.011  0.00  0.00    +0.000 A 
ATOM     22  C   UNL     1      45.442   5.550  10.482  0.00  0.00    +0.000 A 
BRANCH  21  23
ATOM     23  C   UNL     1      45.691   3.648   8.853  0.00  0.00    +0.000 A 
ATOM     24  C   UNL     1      46.144   4.407   7.757  0.00  0.00    +0.000 A 
ATOM     25  C   UNL     1      46.720   3.810   6.635  0.00  0.00    +0.000 A 
ATOM     26  C   UNL     1      46.886   2.433   6.594  0.00  0.00    +0.000 A 
ATOM     27  C   UNL     1      46.478   1.653   7.678  0.00  0.00    +0.000 A 
ATOM     28  C   UNL     1      45.881   2.256   8.793  0.00  0.00    +0.000 A 
BRANCH  27  29
ATOM     29  C   UNL     1      46.654   0.233   7.644  0.00  0.00    +0.000 C 
ATOM     30  N   UNL     1      46.795  -0.917   7.617  0.00  0.00    +0.000 NA
ENDBRANCH  27  29
ENDBRANCH  21  23
ENDBRANCH   1  16
TORSDOF 5
ENDMDL
MODEL 3
REMARK VINA RESULT:    -7.346      1.714      2.098
REMARK INTER + INTRA:         -10.490
REMARK INTER:                  -9.594
REMARK INTRA:                  -0.895
REMARK UNBOUND:                -0.997
REMARK  Name = 
REMARK  6 active torsions:
REMARK  status: ('A' for Active; 'I' for Inactive)
REMARK    1  A    between atoms: C_1  and  C_2
REMARK    2  A    between atoms: C_4  and  C_5
REMARK    3  A    between atoms: N_10  and  C_11
REMARK    4  A    between atoms: C_11  and  C_12
REMARK    5  A    between atoms: C_17  and  C_18
REMARK    6  A    between atoms: C_22  and  C_23
REMARK                            x       y       z     vdW  Elec       q    Type
REMARK                         _______ _______ _______ _____ _____    ______ ____
ROOT
ATOM      1  C   UNL     1      49.742   7.459  13.613  0.00  0.00    +0.000 C 
ENDROOT
BRANCH   1   8
ATOM      2  C   UNL     1      47.897   7.415  19.314  0.00  0.00    +0.000 C 
ATOM      3  C   UNL     1      48.166   6.734  18.007  0.00  0.00    +0.000 A 
ATOM      4  C   UNL     1      47.778   5.438  17.784  0.00  0.00    +0.000 A 
ATOM      5  C   UNL     1      48.105   4.936  16.545  0.00  0.00    +0.000 A 
ATOM      6  N   UNL     1      48.764   5.627  15.581  0.00  0.00    +0.000 NA
ATOM      7  C   UNL     1      49.111   6.877  15.899  0.00  0.00    +0.000 A 
ATOM      8  N   UNL     1      49.848   7.661  15.039  0.00  0.00    +0.000 N 
ATOM      9  N   UNL     1      48.824   7.455  17.073  0.00  0.00    +0.000 NA
ATOM     10  H   UNL     1      49.800   8.618  15.369  0.00  0.00    +0.000 HD
BRANCH   5  11
ATOM     11  C   UNL     1      47.712   3.529  16.216  0.00  0.00    +0.000 C 
ATOM     12  N   UNL     1      47.240   2.783  17.262  0.00  0.00    +0.000 N 
ATOM     13  O   UNL     1      47.802   3.067  15.087  0.00  0.00    +0.000 OA
ATOM     14  H   UNL     1      47.128   3.203  18.177  0.00  0.00    +0.000 HD
ATOM     15  H   UNL     1      46.939   1.835  17.092  0.00  0.00    +0.000 HD
ENDBRANCH   5  11
ENDBRANCH   1   8
BRANCH   1  16
ATOM     16  C   UNL     1      48.323   7.628  13.123  0.00  0.00    +0.000 A 
ATOM     17  C   UNL     1      47.570   8.773  13.427  0.00  0.00    +0.000 A 
ATOM     18  C   UNL     1      46.265   8.899  12.957  0.00  0.00    +0.000 A 
ATOM     19  C   UNL     1      45.704   7.884  12.186  0.00  0.00    +0.000 A 
ATOM     20  F   UNL     1      44.434   8.054  11.785  0.00  0.00    +0.000 F 
ATOM     21  C   UNL     1      46.421   6.726  11.841  0.00  0.00    +0.000 A 
ATOM     22  C   UNL     1      47.736   6.621  12.336  0.00  0.00    +0.000 A 
BRANCH  21  23
ATOM     23  C   UNL     1      45.827   5.661  11.004  0.00  0.00    +0.000 A 
ATOM     24  C   UNL     1      46.031   5.626   9.611  0.00  0.00    +0.000 A 
ATOM     25  C   UNL     1      45.434   4.658   8.803  0.00  0.00    +0.000 A 
ATOM     26  C   UNL     1      44.637   3.676   9.377  0.00  0.00    +0.000 A 
ATOM     27  C   UNL     1      44.440   3.663  10.759  0.00  0.00    +0.000 A 
ATOM     28  C   UNL     1      45.026   4.650  11.562  0.00  0.00    +0.000 A 
BRANCH  27  29
ATOM     29  C   UNL     1      43.626   2.649  11.355  0.00  0.00    +0.000 C 
ATOM     30  N   UNL     1      42.965   1.827  11.838  0.00  0.00    +0.000 NA
ENDBRANCH  27  29
ENDBRANCH  21  23
ENDBRANCH   1  16
TORSDOF 5
ENDMDL
MODEL 4
REMARK VINA RESULT:    -7.025      1.921      2.374
REMARK INTER + INTRA:         -10.075
REMARK INTER:                  -9.254
REMARK INTRA:                  -0.821
REMARK UNBOUND:                -0.997
REMARK  Name = 
REMARK  6 active torsions:
REMARK  status: ('A' for Active; 'I' for Inactive)
REMARK    1  A    between atoms: C_1  and  C_2
REMARK    2  A    between atoms: C_4  and  C_5
REMARK    3  A    between atoms: N_10  and  C_11
REMARK    4  A    between atoms: C_11  and  C_12
REMARK    5  A    between atoms: C_17  and  C_18
REMARK    6  A    between atoms: C_22  and  C_23
REMARK                            x       y       z     vdW  Elec       q    Type
REMARK                         _______ _______ _______ _____ _____    ______ ____
ROOT
ATOM      1  C   UNL     1      48.348   7.565  14.227  0.00  0.00    +0.000 C 
ENDROOT
BRANCH   1   8
ATOM      2  C   UNL     1      49.185   3.128  18.167  0.00  0.00    +0.000 C 
ATOM      3  C   UNL     1      49.660   4.331  17.410  0.00  0.00    +0.000 A 
ATOM      4  C   UNL     1      50.971   4.731  17.456  0.00  0.00    +0.000 A 
ATOM      5  C   UNL     1      51.262   5.861  16.727  0.00  0.00    +0.000 A 
ATOM      6  N   UNL     1      50.357   6.567  16.003  0.00  0.00    +0.000 NA
ATOM      7  C   UNL     1      49.104   6.105  16.033  0.00  0.00    +0.000 A 
ATOM      8  N   UNL     1      48.076   6.771  15.401  0.00  0.00    +0.000 N 
ATOM      9  N   UNL     1      48.730   5.007  16.702  0.00  0.00    +0.000 NA
ATOM     10  H   UNL     1      47.281   6.145  15.355  0.00  0.00    +0.000 HD
BRANCH   5  11
ATOM     11  C   UNL     1      52.672   6.363  16.716  0.00  0.00    +0.000 C 
ATOM     12  N   UNL     1      53.142   6.792  15.504  0.00  0.00    +0.000 N 
ATOM     13  O   UNL     1      53.368   6.394  17.721  0.00  0.00    +0.000 OA
ATOM     14  H   UNL     1      52.531   6.803  14.697  0.00  0.00    +0.000 HD
ATOM     15  H   UNL     1      54.079   7.162  15.445  0.00  0.00    +0.000 HD
ENDBRANCH   5  11
ENDBRANCH   1   8
BRANCH   1  16
ATOM     16  C   UNL     1      47.136   7.684  13.332  0.00  0.00    +0.000 A 
ATOM     17  C   UNL     1      46.410   8.881  13.232  0.00  0.00    +0.000 A 
ATOM     18  C   UNL     1      45.298   8.959  12.396  0.00  0.00    +0.000 A 
ATOM     19  C   UNL     1      44.905   7.844  11.660  0.00  0.00    +0.000 A 
ATOM     20  F   UNL     1      43.810   7.976  10.893  0.00  0.00    +0.000 F 
ATOM     21  C   UNL     1      45.606   6.628  11.714  0.00  0.00    +0.000 A 
ATOM     22  C   UNL     1      46.721   6.575  12.573  0.00  0.00    +0.000 A 
BRANCH  21  23
ATOM     23  C   UNL     1      45.195   5.453  10.914  0.00  0.00    +0.000 A 
ATOM     24  C   UNL     1      44.261   4.523  11.407  0.00  0.00    +0.000 A 
ATOM     25  C   UNL     1      43.906   3.383  10.686  0.00  0.00    +0.000 A 
ATOM     26  C   UNL     1      44.457   3.160   9.432  0.00  0.00    +0.000 A 
ATOM     27  C   UNL     1      45.363   4.079   8.899  0.00  0.00    +0.000 A 
ATOM     28  C   UNL     1      45.732   5.211   9.638  0.00  0.00    +0.000 A 
BRANCH  27  29
ATOM     29  C   UNL     1      45.928   3.857   7.604  0.00  0.00    +0.000 C 
ATOM     30  N   UNL     1      46.386   3.680   6.553  0.00  0.00    +0.000 NA
ENDBRANCH  27  29
ENDBRANCH  21  23
ENDBRANCH   1  16
TORSDOF 5
ENDMDL
MODEL 5
REMARK VINA RESULT:    -6.816      3.689      8.791
REMARK INTER + INTRA:          -9.806
REMARK INTER:                  -9.001
REMARK INTRA:                  -0.804
REMARK UNBOUND:                -0.997
REMARK  Name = 
REMARK  6 active torsions:
REMARK  status: ('A' for Active; 'I' for Inactive)
REMARK    1  A    between atoms: C_1  and  C_2
REMARK    2  A    between atoms: C_4  and  C_5
REMARK    3  A    between atoms: N_10  and  C_11
REMARK    4  A    between atoms: C_11  and  C_12
REMARK    5  A    between atoms: C_17  and  C_18
REMARK    6  A    between atoms: C_22  and  C_23
REMARK                            x       y       z     vdW  Elec       q    Type
REMARK                         _______ _______ _______ _____ _____    ______ ____
ROOT
ATOM      1  C   UNL     1      47.182   3.948  14.972  0.00  0.00    +0.000 C 
ENDROOT
BRANCH   1   8
ATOM      2  C   UNL     1      44.498   7.798  11.246  0.00  0.00    +0.000 C 
ATOM      3  C   UNL     1      44.730   6.416  11.777  0.00  0.00    +0.000 A 
ATOM      4  C   UNL     1      44.188   5.316  11.164  0.00  0.00    +0.000 A 
ATOM      5  C   UNL     1      44.469   4.113  11.770  0.00  0.00    +0.000 A 
ATOM      6  N   UNL     1      45.217   3.970  12.894  0.00  0.00    +0.000 NA
ATOM      7  C   UNL     1      45.688   5.102  13.424  0.00  0.00    +0.000 A 
ATOM      8  N   UNL     1      46.398   5.103  14.604  0.00  0.00    +0.000 N 
ATOM      9  N   UNL     1      45.478   6.316  12.897  0.00  0.00    +0.000 NA
ATOM     10  H   UNL     1      46.846   6.007  14.698  0.00  0.00    +0.000 HD
BRANCH   5  11
ATOM     11  C   UNL     1      43.922   2.859  11.161  0.00  0.00    +0.000 C 
ATOM     12  N   UNL     1      44.624   2.359  10.097  0.00  0.00    +0.000 N 
ATOM     13  O   UNL     1      42.914   2.309  11.580  0.00  0.00    +0.000 OA
ATOM     14  H   UNL     1      45.483   2.805   9.800  0.00  0.00    +0.000 HD
ATOM     15  H   UNL     1      44.313   1.502   9.663  0.00  0.00    +0.000 HD
ENDBRANCH   5  11
ENDBRANCH   1   8
BRANCH   1  16
ATOM     16  C   UNL     1      47.689   4.039  16.393  0.00  0.00    +0.000 A 
ATOM     17  C   UNL     1      47.925   2.891  17.166  0.00  0.00    +0.000 A 
ATOM     18  C   UNL     1      48.395   3.010  18.472  0.00  0.00    +0.000 A 
ATOM     19  C   UNL     1      48.629   4.272  19.013  0.00  0.00    +0.000 A 
ATOM     20  F   UNL     1      49.057   4.320  20.285  0.00  0.00    +0.000 F 
ATOM     21  C   UNL     1      48.424   5.450  18.276  0.00  0.00    +0.000 A 
ATOM     22  C   UNL     1      47.940   5.301  16.961  0.00  0.00    +0.000 A 
BRANCH  21  23
ATOM     23  C   UNL     1      48.694   6.787  18.848  0.00  0.00    +0.000 A 
ATOM     24  C   UNL     1      50.008   7.226  19.094  0.00  0.00    +0.000 A 
ATOM     25  C   UNL     1      50.275   8.462  19.683  0.00  0.00    +0.000 A 
ATOM     26  C   UNL     1      49.226   9.309  20.015  0.00  0.00    +0.000 A 
ATOM     27  C   UNL     1      47.911   8.918  19.756  0.00  0.00    +0.000 A 
ATOM     28  C   UNL     1      47.650   7.666  19.183  0.00  0.00    +0.000 A 
BRANCH  27  29
ATOM     29  C   UNL     1      46.827   9.790  20.089  0.00  0.00    +0.000 C 
ATOM     30  N   UNL     1      45.948  10.498  20.357  0.00  0.00    +0.000 NA
ENDBRANCH  27  29
ENDBRANCH  21  23
ENDBRANCH   1  16
TORSDOF 5
ENDMDL
MODEL 6
REMARK VINA RESULT:    -6.735      2.487      3.322
REMARK INTER + INTRA:          -9.701
REMARK INTER:                  -8.802
REMARK INTRA:                  -0.899
REMARK UNBOUND:                -0.997
REMARK  Name = 
REMARK  6 active torsions:
REMARK  status: ('A' for Active; 'I' for Inactive)
REMARK    1  A    between atoms: C_1  and  C_2
REMARK    2  A    between atoms: C_4  and  C_5
REMARK    3  A    between atoms: N_10  and  C_11
REMARK    4  A    between atoms: C_11  and  C_12
REMARK    5  A    between atoms: C_17  and  C_18
REMARK    6  A    between atoms: C_22  and  C_23
REMARK                            x       y       z     vdW  Elec       q    Type
REMARK                         _______ _______ _______ _____ _____    ______ ____
ROOT
ATOM      1  C   UNL     1      48.578   7.888  13.014  0.00  0.00    +0.000 C 
ENDROOT
BRANCH   1   8
ATOM      2  C   UNL     1      51.223   5.422  17.791  0.00  0.00    +0.000 C 
ATOM      3  C   UNL     1      50.320   6.435  17.157  0.00  0.00    +0.000 A 
ATOM      4  C   UNL     1      49.789   7.471  17.881  0.00  0.00    +0.000 A 
ATOM      5  C   UNL     1      48.964   8.315  17.174  0.00  0.00    +0.000 A 
ATOM      6  N   UNL     1      48.661   8.175  15.858  0.00  0.00    +0.000 NA
ATOM      7  C   UNL     1      49.216   7.127  15.244  0.00  0.00    +0.000 A 
ATOM      8  N   UNL     1      48.932   6.830  13.929  0.00  0.00    +0.000 N 
ATOM      9  N   UNL     1      50.043   6.262  15.846  0.00  0.00    +0.000 NA
ATOM     10  H   UNL     1      49.617   6.157  13.606  0.00  0.00    +0.000 HD
BRANCH   5  11
ATOM     11  C   UNL     1      48.347   9.477  17.888  0.00  0.00    +0.000 C 
ATOM     12  N   UNL     1      47.665  10.365  17.100  0.00  0.00    +0.000 N 
ATOM     13  O   UNL     1      48.439   9.632  19.098  0.00  0.00    +0.000 OA
ATOM     14  H   UNL     1      47.561  10.189  16.109  0.00  0.00    +0.000 HD
ATOM     15  H   UNL     1      47.209  11.155  17.533  0.00  0.00    +0.000 HD
ENDBRANCH   5  11
ENDBRANCH   1   8
BRANCH   1  16
ATOM     16  C   UNL     1      47.177   7.721  12.471  0.00  0.00    +0.000 A 
ATOM     17  C   UNL     1      46.196   8.710  12.646  0.00  0.00    +0.000 A 
ATOM     18  C   UNL     1      44.915   8.525  12.131  0.00  0.00    +0.000 A 
ATOM     19  C   UNL     1      44.606   7.354  11.444  0.00  0.00    +0.000 A 
ATOM     20  F   UNL     1      43.347   7.225  10.995  0.00  0.00    +0.000 F 
ATOM     21  C   UNL     1      45.555   6.342  11.229  0.00  0.00    +0.000 A 
ATOM     22  C   UNL     1      46.841   6.551  11.767  0.00  0.00    +0.000 A 
BRANCH  21  23
ATOM     23  C   UNL     1      45.227   5.109  10.480  0.00  0.00    +0.000 A 
ATOM     24  C   UNL     1      44.398   4.115  11.034  0.00  0.00    +0.000 A 
ATOM     25  C   UNL     1      44.124   2.924  10.360  0.00  0.00    +0.000 A 
ATOM     26  C   UNL     1      44.652   2.711   9.094  0.00  0.00    +0.000 A 
ATOM     27  C   UNL     1      45.452   3.690   8.502  0.00  0.00    +0.000 A 
ATOM     28  C   UNL     1      45.740   4.874   9.193  0.00  0.00    +0.000 A 
BRANCH  27  29
ATOM     29  C   UNL     1      45.991   3.478   7.194  0.00  0.00    +0.000 C 
ATOM     30  N   UNL     1      46.427   3.307   6.133  0.00  0.00    +0.000 NA
ENDBRANCH  27  29
ENDBRANCH  21  23
ENDBRANCH   1  16
TORSDOF 5
ENDMDL
MODEL 7
REMARK VINA RESULT:    -6.529      2.310      3.420
REMARK INTER + INTRA:          -9.434
REMARK INTER:                  -8.606
REMARK INTRA:                  -0.828
REMARK UNBOUND:                -0.997
REMARK  Name = 
REMARK  6 active torsions:
REMARK  status: ('A' for Active; 'I' for Inactive)
REMARK    1  A    between atoms: C_1  and  C_2
REMARK    2  A    between atoms: C_4  and  C_5
REMARK    3  A    between atoms: N_10  and  C_11
REMARK    4  A    between atoms: C_11  and  C_12
REMARK    5  A    between atoms: C_17  and  C_18
REMARK    6  A    between atoms: C_22  and  C_23
REMARK                            x       y       z     vdW  Elec       q    Type
REMARK                         _______ _______ _______ _____ _____    ______ ____
ROOT
ATOM      1  C   UNL     1      51.676   7.148  15.970  0.00  0.00    +0.000 C 
ENDROOT
BRANCH   1   8
ATOM      2  C   UNL     1      46.802   5.587  19.087  0.00  0.00    +0.000 C 
ATOM      3  C   UNL     1      48.060   5.252  18.345  0.00  0.00    +0.000 A 
ATOM      4  C   UNL     1      48.398   3.953  18.064  0.00  0.00    +0.000 A 
ATOM      5  C   UNL     1      49.589   3.792  17.393  0.00  0.00    +0.000 A 
ATOM      6  N   UNL     1      50.408   4.809  17.018  0.00  0.00    +0.000 NA
ATOM      7  C   UNL     1      49.997   6.035  17.350  0.00  0.00    +0.000 A 
ATOM      8  N   UNL     1      50.769   7.147  17.093  0.00  0.00    +0.000 N 
ATOM      9  N   UNL     1      48.847   6.290  17.989  0.00  0.00    +0.000 NA
ATOM     10  H   UNL     1      50.185   7.967  17.209  0.00  0.00    +0.000 HD
BRANCH   5  11
ATOM     11  C   UNL     1      50.032   2.406  17.041  0.00  0.00    +0.000 C 
ATOM     12  N   UNL     1      51.020   1.879  17.828  0.00  0.00    +0.000 N 
ATOM     13  O   UNL     1      49.546   1.776  16.112  0.00  0.00    +0.000 OA
ATOM     14  H   UNL     1      51.371   2.401  18.622  0.00  0.00    +0.000 HD
ATOM     15  H   UNL     1      51.340   0.938  17.649  0.00  0.00    +0.000 HD
ENDBRANCH   5  11
ENDBRANCH   1   8
BRANCH   1  16
ATOM     16  C   UNL     1      51.012   7.654  14.709  0.00  0.00    +0.000 A 
ATOM     17  C   UNL     1      51.695   8.470  13.794  0.00  0.00    +0.000 A 
ATOM     18  C   UNL     1      51.055   8.918  12.641  0.00  0.00    +0.000 A 
ATOM     19  C   UNL     1      49.733   8.555  12.396  0.00  0.00    +0.000 A 
ATOM     20  F   UNL     1      49.165   9.040  11.280  0.00  0.00    +0.000 F 
ATOM     21  C   UNL     1      49.011   7.728  13.272  0.00  0.00    +0.000 A 
ATOM     22  C   UNL     1      49.680   7.297  14.435  0.00  0.00    +0.000 A 
BRANCH  21  23
ATOM     23  C   UNL     1      47.614   7.330  12.997  0.00  0.00    +0.000 A 
ATOM     24  C   UNL     1      46.610   8.290  12.768  0.00  0.00    +0.000 A 
ATOM     25  C   UNL     1      45.279   7.929  12.560  0.00  0.00    +0.000 A 
ATOM     26  C   UNL     1      44.921   6.588  12.547  0.00  0.00    +0.000 A 
ATOM     27  C   UNL     1      45.896   5.608  12.739  0.00  0.00    +0.000 A 
ATOM     28  C   UNL     1      47.229   5.978  12.968  0.00  0.00    +0.000 A 
BRANCH  27  29
ATOM     29  C   UNL     1      45.534   4.224  12.718  0.00  0.00    +0.000 C 
ATOM     30  N   UNL     1      45.239   3.103  12.699  0.00  0.00    +0.000 NA
ENDBRANCH  27  29
ENDBRANCH  21  23
ENDBRANCH   1  16
TORSDOF 5
ENDMDL
MODEL 8
REMARK VINA RESULT:    -6.489      2.635      4.390
REMARK INTER + INTRA:          -9.382
REMARK INTER:                  -8.517
REMARK INTRA:                  -0.865
REMARK UNBOUND:                -0.997
REMARK  Name = 
REMARK  6 active torsions:
REMARK  status: ('A' for Active; 'I' for Inactive)
REMARK    1  A    between atoms: C_1  and  C_2
REMARK    2  A    between atoms: C_4  and  C_5
REMARK    3  A    between atoms: N_10  and  C_11
REMARK    4  A    between atoms: C_11  and  C_12
REMARK    5  A    between atoms: C_17  and  C_18
REMARK    6  A    between atoms: C_22  and  C_23
REMARK                            x       y       z     vdW  Elec       q    Type
REMARK                         _______ _______ _______ _____ _____    ______ ____
ROOT
ATOM      1  C   UNL     1      46.917   3.854  15.013  0.00  0.00    +0.000 C 
ENDROOT
BRANCH   1   8
ATOM      2  C   UNL     1      48.457   5.484  20.570  0.00  0.00    +0.000 C 
ATOM      3  C   UNL     1      48.745   4.813  19.262  0.00  0.00    +0.000 A 
ATOM      4  C   UNL     1      49.873   4.055  19.082  0.00  0.00    +0.000 A 
ATOM      5  C   UNL     1      50.018   3.513  17.825  0.00  0.00    +0.000 A 
ATOM      6  N   UNL     1      49.141   3.687  16.803  0.00  0.00    +0.000 NA
ATOM      7  C   UNL     1      48.081   4.452  17.074  0.00  0.00    +0.000 A 
ATOM      8  N   UNL     1      47.154   4.768  16.104  0.00  0.00    +0.000 N 
ATOM      9  N   UNL     1      47.849   5.010  18.270  0.00  0.00    +0.000 NA
ATOM     10  H   UNL     1      46.338   5.151  16.566  0.00  0.00    +0.000 HD
BRANCH   5  11
ATOM     11  C   UNL     1      51.220   2.666  17.544  0.00  0.00    +0.000 C 
ATOM     12  N   UNL     1      50.966   1.427  17.019  0.00  0.00    +0.000 N 
ATOM     13  O   UNL     1      52.361   3.047  17.765  0.00  0.00    +0.000 OA
ATOM     14  H   UNL     1      50.016   1.153  16.800  0.00  0.00    +0.000 HD
ATOM     15  H   UNL     1      51.742   0.824  16.790  0.00  0.00    +0.000 HD
ENDBRANCH   5  11
ENDBRANCH   1   8
BRANCH   1  16
ATOM     16  C   UNL     1      46.554   4.579  13.737  0.00  0.00    +0.000 A 
ATOM     17  C   UNL     1      45.669   4.024  12.801  0.00  0.00    +0.000 A 
ATOM     18  C   UNL     1      45.354   4.720  11.636  0.00  0.00    +0.000 A 
ATOM     19  C   UNL     1      45.922   5.969  11.399  0.00  0.00    +0.000 A 
ATOM     20  F   UNL     1      45.598   6.577  10.246  0.00  0.00    +0.000 F 
ATOM     21  C   UNL     1      46.801   6.575  12.312  0.00  0.00    +0.000 A 
ATOM     22  C   UNL     1      47.109   5.845  13.477  0.00  0.00    +0.000 A 
BRANCH  21  23
ATOM     23  C   UNL     1      47.385   7.911  12.065  0.00  0.00    +0.000 A 
ATOM     24  C   UNL     1      46.599   9.077  12.129  0.00  0.00    +0.000 A 
ATOM     25  C   UNL     1      47.126  10.337  11.846  0.00  0.00    +0.000 A 
ATOM     26  C   UNL     1      48.469  10.467  11.519  0.00  0.00    +0.000 A 
ATOM     27  C   UNL     1      49.285   9.335  11.478  0.00  0.00    +0.000 A 
ATOM     28  C   UNL     1      48.744   8.069  11.743  0.00  0.00    +0.000 A 
BRANCH  27  29
ATOM     29  C   UNL     1      50.671   9.464  11.149  0.00  0.00    +0.000 C 
ATOM     30  N   UNL     1      51.795   9.571  10.883  0.00  0.00    +0.000 NA
ENDBRANCH  27  29
ENDBRANCH  21  23
ENDBRANCH   1  16
TORSDOF 5
ENDMDL
MODEL 9
REMARK VINA RESULT:    -6.461      3.948      8.741
REMARK INTER + INTRA:          -9.346
REMARK INTER:                  -8.583
REMARK INTRA:                  -0.763
REMARK UNBOUND:                -0.997
REMARK  Name = 
REMARK  6 active torsions:
REMARK  status: ('A' for Active; 'I' for Inactive)
REMARK    1  A    between atoms: C_1  and  C_2
REMARK    2  A    between atoms: C_4  and  C_5
REMARK    3  A    between atoms: N_10  and  C_11
REMARK    4  A    between atoms: C_11  and  C_12
REMARK    5  A    between atoms: C_17  and  C_18
REMARK    6  A    between atoms: C_22  and  C_23
REMARK                            x       y       z     vdW  Elec       q    Type
REMARK                         _______ _______ _______ _____ _____    ______ ____
ROOT
ATOM      1  C   UNL     1      47.185   3.918  15.056  0.00  0.00    +0.000 C 
ENDROOT
BRANCH   1   8
ATOM      2  C   UNL     1      44.690   7.935  11.376  0.00  0.00    +0.000 C 
ATOM      3  C   UNL     1      44.868   6.535  11.879  0.00  0.00    +0.000 A 
ATOM      4  C   UNL     1      44.302   5.467  11.231  0.00  0.00    +0.000 A 
ATOM      5  C   UNL     1      44.534   4.242  11.814  0.00  0.00    +0.000 A 
ATOM      6  N   UNL     1      45.257   4.050  12.947  0.00  0.00    +0.000 NA
ATOM      7  C   UNL     1      45.755   5.154  13.510  0.00  0.00    +0.000 A 
ATOM      8  N   UNL     1      46.445   5.106  14.702  0.00  0.00    +0.000 N 
ATOM      9  N   UNL     1      45.594   6.386  13.008  0.00  0.00    +0.000 NA
ATOM     10  H   UNL     1      46.919   5.993  14.824  0.00  0.00    +0.000 HD
BRANCH   5  11
ATOM     11  C   UNL     1      43.958   3.021  11.168  0.00  0.00    +0.000 C 
ATOM     12  N   UNL     1      43.484   2.063  12.023  0.00  0.00    +0.000 N 
ATOM     13  O   UNL     1      43.908   2.880   9.954  0.00  0.00    +0.000 OA
ATOM     14  H   UNL     1      43.491   2.224  13.022  0.00  0.00    +0.000 HD
ATOM     15  H   UNL     1      43.063   1.229  11.640  0.00  0.00    +0.000 HD
ENDBRANCH   5  11
ENDBRANCH   1   8
BRANCH   1  16
ATOM     16  C   UNL     1      47.894   4.069  16.382  0.00  0.00    +0.000 A 
ATOM     17  C   UNL     1      47.217   4.496  17.535  0.00  0.00    +0.000 A 
ATOM     18  C   UNL     1      47.900   4.622  18.743  0.00  0.00    +0.000 A 
ATOM     19  C   UNL     1      49.260   4.326  18.805  0.00  0.00    +0.000 A 
ATOM     20  F   UNL     1      49.866   4.493  19.991  0.00  0.00    +0.000 F 
ATOM     21  C   UNL     1      49.979   3.881  17.684  0.00  0.00    +0.000 A 
ATOM     22  C   UNL     1      49.265   3.770  16.474  0.00  0.00    +0.000 A 
BRANCH  21  23
ATOM     23  C   UNL     1      51.418   3.549  17.760  0.00  0.00    +0.000 A 
ATOM     24  C   UNL     1      52.404   4.553  17.722  0.00  0.00    +0.000 A 
ATOM     25  C   UNL     1      53.766   4.250  17.739  0.00  0.00    +0.000 A 
ATOM     26  C   UNL     1      54.177   2.927  17.826  0.00  0.00    +0.000 A 
ATOM     27  C   UNL     1      53.226   1.908  17.898  0.00  0.00    +0.000 A 
ATOM     28  C   UNL     1      51.859   2.218  17.859  0.00  0.00    +0.000 A 
BRANCH  27  29
ATOM     29  C   UNL     1      53.644   0.543  17.996  0.00  0.00    +0.000 C 
ATOM     30  N   UNL     1      53.985  -0.563  18.073  0.00  0.00    +0.000 NA
ENDBRANCH  27  29
ENDBRANCH  21  23
ENDBRANCH   1  16
TORSDOF 5
ENDMDL
