MODEL 1
REMARK VINA RESULT:    -7.938      0.000      0.000
REMARK INTER + INTRA:         -11.732
REMARK INTER:                 -10.723
REMARK INTRA:                  -1.009
REMARK UNBOUND:                -1.009
REMARK  Name = 
REMARK  7 active torsions:
REMARK  status: ('A' for Active; 'I' for Inactive)
REMARK    1  A    between atoms: C_1  and  C_2
REMARK    2  A    between atoms: C_2  and  N_3
REMARK    3  A    between atoms: C_2  and  C_16
REMARK    4  A    between atoms: C_4  and  C_6
REMARK    5  A    between atoms: C_19  and  C_20
REMARK    6  A    between atoms: C_20  and  N_21
REMARK    7  A    between atoms: C_22  and  C_24
REMARK                            x       y       z     vdW  Elec       q    Type
REMARK                         _______ _______ _______ _____ _____    ______ ____
ROOT
ATOM      1  C   UNL     1      46.807   8.989  13.193  0.00  0.00    +0.000 C 
ATOM      2  C   UNL     1      47.392   7.600  13.491  0.00  0.00    +0.000 C 
ENDROOT
BRANCH   2   3
ATOM      3  C   UNL     1      46.444   6.534  12.940  0.00  0.00    +0.000 A 
ATOM      4  C   UNL     1      46.683   5.185  13.257  0.00  0.00    +0.000 A 
ATOM      5  C   UNL     1      45.937   4.156  12.669  0.00  0.00    +0.000 A 
ATOM      6  C   UNL     1      44.932   4.442  11.739  0.00  0.00    +0.000 A 
ATOM      7  C   UNL     1      44.645   5.786  11.464  0.00  0.00    +0.000 A 
ATOM      8  C   UNL     1      45.402   6.819  12.044  0.00  0.00    +0.000 A 
BRANCH   6   9
ATOM      9  C   UNL     1      44.210   3.327  11.024  0.00  0.00    +0.000 C 
BRANCH   9  10
ATOM     10  N   UNL     1      45.003   2.725   9.983  0.00  0.00    +0.000 N 
ATOM     11  C   UNL     1      45.083   3.297   8.731  0.00  0.00    +0.000 C 
ATOM     12  O   UNL     1      44.476   4.320   8.435  0.00  0.00    +0.000 OA
ATOM     13  H   UNL     1      45.610   1.955  10.220  0.00  0.00    +0.000 HD
BRANCH  11  14
ATOM     14  C   UNL     1      45.940   2.604   7.789  0.00  0.00    +0.000 A 
ATOM     15  C   UNL     1      46.431   2.960   6.544  0.00  0.00    +0.000 A 
ATOM     16  C   UNL     1      47.245   1.904   6.066  0.00  0.00    +0.000 A 
ATOM     17  C   UNL     1      47.239   0.920   7.024  0.00  0.00    +0.000 A 
ATOM     18  N   UNL     1      46.451   1.348   8.060  0.00  0.00    +0.000 N 
ATOM     19  H   UNL     1      46.262   0.836   8.915  0.00  0.00    +0.000 HD
ENDBRANCH  11  14
ENDBRANCH   9  10
ENDBRANCH   6   9
ENDBRANCH   2   3
BRANCH   2  20
ATOM     20  N   UNL     1      47.679   7.433  14.907  0.00  0.00    +0.000 N 
ATOM     21  C   UNL     1      48.921   7.025  15.350  0.00  0.00    +0.000 C 
ATOM     22  O   UNL     1      49.861   6.817  14.591  0.00  0.00    +0.000 OA
ATOM     23  H   UNL     1      46.884   7.242  15.509  0.00  0.00    +0.000 HD
BRANCH  21  24
ATOM     24  C   UNL     1      49.091   6.907  16.800  0.00  0.00    +0.000 A 
ATOM     25  C   UNL     1      49.497   8.011  17.539  0.00  0.00    +0.000 A 
ATOM     26  S   UNL     1      49.644   7.697  19.209  0.00  0.00    +0.000 S 
ATOM     27  C   UNL     1      49.211   6.065  18.993  0.00  0.00    +0.000 A 
ATOM     28  N   UNL     1      49.179   5.203  20.044  0.00  0.00    +0.000 NA
ATOM     29  C   UNL     1      48.866   3.991  19.728  0.00  0.00    +0.000 A 
ATOM     30  N   UNL     1      48.572   3.563  18.459  0.00  0.00    +0.000 N 
ATOM     31  C   UNL     1      48.548   4.408  17.376  0.00  0.00    +0.000 A 
ATOM     32  O   UNL     1      48.205   4.016  16.265  0.00  0.00    +0.000 OA
ATOM     33  C   UNL     1      48.926   5.774  17.672  0.00  0.00    +0.000 A 
ATOM     34  H   UNL     1      48.315   2.604  18.281  0.00  0.00    +0.000 HD
ENDBRANCH  21  24
ENDBRANCH   2  20
TORSDOF 6
ENDMDL
MODEL 2
REMARK VINA RESULT:    -7.793      1.960      2.630
REMARK INTER + INTRA:         -11.536
REMARK INTER:                 -10.422
REMARK INTRA:                  -1.114
REMARK UNBOUND:                -1.009
REMARK  Name = 
REMARK  7 active torsions:
REMARK  status: ('A' for Active; 'I' for Inactive)
REMARK    1  A    between atoms: C_1  and  C_2
REMARK    2  A    between atoms: C_2  and  N_3
REMARK    3  A    between atoms: C_2  and  C_16
REMARK    4  A    between atoms: C_4  and  C_6
REMARK    5  A    between atoms: C_19  and  C_20
REMARK    6  A    between atoms: C_20  and  N_21
REMARK    7  A    between atoms: C_22  and  C_24
REMARK                            x       y       z     vdW  Elec       q    Type
REMARK                         _______ _______ _______ _____ _____    ______ ____
ROOT
ATOM      1  C   UNL     1      49.019   7.959  13.771  0.00  0.00    +0.000 C 
ATOM      2  C   UNL     1      48.507   6.648  14.387  0.00  0.00    +0.000 C 
ENDROOT
BRANCH   2   3
ATOM      3  C   UNL     1      47.351   6.119  13.539  0.00  0.00    +0.000 A 
ATOM      4  C   UNL     1      46.703   4.936  13.938  0.00  0.00    +0.000 A 
ATOM      5  C   UNL     1      45.735   4.328  13.129  0.00  0.00    +0.000 A 
ATOM      6  C   UNL     1      45.387   4.880  11.891  0.00  0.00    +0.000 A 
ATOM      7  C   UNL     1      45.981   6.092  11.515  0.00  0.00    +0.000 A 
ATOM      8  C   UNL     1      46.962   6.697  12.320  0.00  0.00    +0.000 A 
BRANCH   6   9
ATOM      9  C   UNL     1      44.428   4.162  10.974  0.00  0.00    +0.000 C 
BRANCH   9  10
ATOM     10  N   UNL     1      45.089   3.237  10.089  0.00  0.00    +0.000 N 
ATOM     11  C   UNL     1      45.383   3.586   8.788  0.00  0.00    +0.000 C 
ATOM     12  O   UNL     1      45.082   4.676   8.315  0.00  0.00    +0.000 OA
ATOM     13  H   UNL     1      45.460   2.381  10.473  0.00  0.00    +0.000 HD
BRANCH  11  14
ATOM     14  C   UNL     1      46.076   2.571   8.018  0.00  0.00    +0.000 A 
ATOM     15  C   UNL     1      46.898   2.649   6.907  0.00  0.00    +0.000 A 
ATOM     16  C   UNL     1      47.324   1.341   6.573  0.00  0.00    +0.000 A 
ATOM     17  C   UNL     1      46.757   0.483   7.484  0.00  0.00    +0.000 A 
ATOM     18  N   UNL     1      46.005   1.232   8.352  0.00  0.00    +0.000 N 
ATOM     19  H   UNL     1      45.472   0.875   9.138  0.00  0.00    +0.000 HD
ENDBRANCH  11  14
ENDBRANCH   9  10
ENDBRANCH   6   9
ENDBRANCH   2   3
BRANCH   2  20
ATOM     20  N   UNL     1      48.158   6.817  15.789  0.00  0.00    +0.000 N 
ATOM     21  C   UNL     1      48.850   6.167  16.791  0.00  0.00    +0.000 C 
ATOM     22  O   UNL     1      49.817   5.446  16.570  0.00  0.00    +0.000 OA
ATOM     23  H   UNL     1      47.199   7.087  15.986  0.00  0.00    +0.000 HD
BRANCH  21  24
ATOM     24  C   UNL     1      48.412   6.430  18.164  0.00  0.00    +0.000 A 
ATOM     25  C   UNL     1      48.321   5.382  19.072  0.00  0.00    +0.000 A 
ATOM     26  S   UNL     1      47.797   5.866  20.621  0.00  0.00    +0.000 S 
ATOM     27  C   UNL     1      47.633   7.484  20.118  0.00  0.00    +0.000 A 
ATOM     28  N   UNL     1      47.175   8.440  20.968  0.00  0.00    +0.000 NA
ATOM     29  C   UNL     1      47.071   9.615  20.441  0.00  0.00    +0.000 A 
ATOM     30  N   UNL     1      47.392   9.923  19.145  0.00  0.00    +0.000 N 
ATOM     31  C   UNL     1      47.902   8.999  18.264  0.00  0.00    +0.000 A 
ATOM     32  O   UNL     1      48.256   9.318  17.134  0.00  0.00    +0.000 OA
ATOM     33  C   UNL     1      48.006   7.656  18.798  0.00  0.00    +0.000 A 
ATOM     34  H   UNL     1      47.308  10.867  18.800  0.00  0.00    +0.000 HD
ENDBRANCH  21  24
ENDBRANCH   2  20
TORSDOF 6
ENDMDL
MODEL 3
REMARK VINA RESULT:    -7.488      2.492      4.176
REMARK INTER + INTRA:         -11.124
REMARK INTER:                 -10.042
REMARK INTRA:                  -1.082
REMARK UNBOUND:                -1.009
REMARK  Name = 
REMARK  7 active torsions:
REMARK  status: ('A' for Active; 'I' for Inactive)
REMARK    1  A    between atoms: C_1  and  C_2
REMARK    2  A    between atoms: C_2  and  N_3
REMARK    3  A    between atoms: C_2  and  C_16
REMARK    4  A    between atoms: C_4  and  C_6
REMARK    5  A    between atoms: C_19  and  C_20
REMARK    6  A    between atoms: C_20  and  N_21
REMARK    7  A    between atoms: C_22  and  C_24
REMARK                            x       y       z     vdW  Elec       q    Type
REMARK                         _______ _______ _______ _____ _____    ______ ____
ROOT
ATOM      1  C   UNL     1      47.339   3.971  15.409  0.00  0.00    +0.000 C 
ATOM      2  C   UNL     1      47.035   5.332  14.765  0.00  0.00    +0.000 C 
ENDROOT
BRANCH   2   3
ATOM      3  C   UNL     1      46.061   5.127  13.605  0.00  0.00    +0.000 A 
ATOM      4  C   UNL     1      45.856   3.826  13.113  0.00  0.00    +0.000 A 
ATOM      5  C   UNL     1      45.089   3.593  11.965  0.00  0.00    +0.000 A 
ATOM      6  C   UNL     1      44.505   4.656  11.267  0.00  0.00    +0.000 A 
ATOM      7  C   UNL     1      44.649   5.950  11.787  0.00  0.00    +0.000 A 
ATOM      8  C   UNL     1      45.431   6.185  12.932  0.00  0.00    +0.000 A 
BRANCH   6   9
ATOM      9  C   UNL     1      43.774   4.412   9.970  0.00  0.00    +0.000 C 
BRANCH   9  10
ATOM     10  N   UNL     1      44.518   3.581   9.059  0.00  0.00    +0.000 N 
ATOM     11  C   UNL     1      45.596   4.081   8.359  0.00  0.00    +0.000 C 
ATOM     12  O   UNL     1      45.960   5.247   8.457  0.00  0.00    +0.000 OA
ATOM     13  H   UNL     1      44.327   2.591   9.042  0.00  0.00    +0.000 HD
BRANCH  11  14
ATOM     14  C   UNL     1      46.271   3.127   7.501  0.00  0.00    +0.000 A 
ATOM     15  C   UNL     1      46.782   3.232   6.218  0.00  0.00    +0.000 A 
ATOM     16  C   UNL     1      47.359   1.989   5.864  0.00  0.00    +0.000 A 
ATOM     17  C   UNL     1      47.192   1.143   6.933  0.00  0.00    +0.000 A 
ATOM     18  N   UNL     1      46.535   1.836   7.917  0.00  0.00    +0.000 N 
ATOM     19  H   UNL     1      46.277   1.474   8.829  0.00  0.00    +0.000 HD
ENDBRANCH  11  14
ENDBRANCH   9  10
ENDBRANCH   6   9
ENDBRANCH   2   3
BRANCH   2  20
ATOM     20  N   UNL     1      48.253   6.023  14.373  0.00  0.00    +0.000 N 
ATOM     21  C   UNL     1      48.952   6.817  15.259  0.00  0.00    +0.000 C 
ATOM     22  O   UNL     1      48.618   6.959  16.430  0.00  0.00    +0.000 OA
ATOM     23  H   UNL     1      48.359   6.225  13.384  0.00  0.00    +0.000 HD
BRANCH  21  24
ATOM     24  C   UNL     1      50.172   7.447  14.749  0.00  0.00    +0.000 A 
ATOM     25  C   UNL     1      51.324   7.451  15.526  0.00  0.00    +0.000 A 
ATOM     26  S   UNL     1      52.647   8.227  14.779  0.00  0.00    +0.000 S 
ATOM     27  C   UNL     1      51.713   8.619  13.411  0.00  0.00    +0.000 A 
ATOM     28  N   UNL     1      52.241   9.335  12.383  0.00  0.00    +0.000 NA
ATOM     29  C   UNL     1      51.408   9.587  11.429  0.00  0.00    +0.000 A 
ATOM     30  N   UNL     1      50.100   9.181  11.403  0.00  0.00    +0.000 N 
ATOM     31  C   UNL     1      49.537   8.418  12.398  0.00  0.00    +0.000 A 
ATOM     32  O   UNL     1      48.386   8.001  12.313  0.00  0.00    +0.000 OA
ATOM     33  C   UNL     1      50.422   8.136  13.510  0.00  0.00    +0.000 A 
ATOM     34  H   UNL     1      49.506   9.394  10.616  0.00  0.00    +0.000 HD
ENDBRANCH  21  24
ENDBRANCH   2  20
TORSDOF 6
ENDMDL
MODEL 4
REMARK VINA RESULT:    -7.116      3.725      8.560
REMARK INTER + INTRA:         -10.621
REMARK INTER:                  -9.461
REMARK INTRA:                  -1.160
REMARK UNBOUND:                -1.009
REMARK  Name = 
REMARK  7 active torsions:
REMARK  status: ('A' for Active; 'I' for Inactive)
REMARK    1  A    between atoms: C_1  and  C_2
REMARK    2  A    between atoms: C_2  and  N_3
REMARK    3  A    between atoms: C_2  and  C_16
REMARK    4  A    between atoms: C_4  and  C_6
REMARK    5  A    between atoms: C_19  and  C_20
REMARK    6  A    between atoms: C_20  and  N_21
REMARK    7  A    between atoms: C_22  and  C_24
REMARK                            x       y       z     vdW  Elec       q    Type
REMARK                         _______ _______ _______ _____ _____    ______ ____
ROOT
ATOM      1  C   UNL     1      49.719   7.443  13.145  0.00  0.00    +0.000 C 
ATOM      2  C   UNL     1      48.387   7.029  13.788  0.00  0.00    +0.000 C 
ENDROOT
BRANCH   2   3
ATOM      3  C   UNL     1      48.669   6.398  15.152  0.00  0.00    +0.000 A 
ATOM      4  C   UNL     1      49.855   6.742  15.826  0.00  0.00    +0.000 A 
ATOM      5  C   UNL     1      50.236   6.092  17.007  0.00  0.00    +0.000 A 
ATOM      6  C   UNL     1      49.447   5.072  17.549  0.00  0.00    +0.000 A 
ATOM      7  C   UNL     1      48.232   4.767  16.919  0.00  0.00    +0.000 A 
ATOM      8  C   UNL     1      47.855   5.409  15.727  0.00  0.00    +0.000 A 
BRANCH   6   9
ATOM      9  C   UNL     1      49.916   4.299  18.756  0.00  0.00    +0.000 C 
BRANCH   9  10
ATOM     10  N   UNL     1      51.154   3.600  18.524  0.00  0.00    +0.000 N 
ATOM     11  C   UNL     1      51.184   2.433  17.791  0.00  0.00    +0.000 C 
ATOM     12  O   UNL     1      50.172   1.924  17.323  0.00  0.00    +0.000 OA
ATOM     13  H   UNL     1      52.019   4.047  18.787  0.00  0.00    +0.000 HD
BRANCH  11  14
ATOM     14  C   UNL     1      52.499   1.851  17.609  0.00  0.00    +0.000 A 
ATOM     15  C   UNL     1      53.774   2.368  17.772  0.00  0.00    +0.000 A 
ATOM     16  C   UNL     1      54.711   1.349  17.474  0.00  0.00    +0.000 A 
ATOM     17  C   UNL     1      53.997   0.226  17.133  0.00  0.00    +0.000 A 
ATOM     18  N   UNL     1      52.664   0.536  17.216  0.00  0.00    +0.000 N 
ATOM     19  H   UNL     1      51.894  -0.096  17.028  0.00  0.00    +0.000 HD
ENDBRANCH  11  14
ENDBRANCH   9  10
ENDBRANCH   6   9
ENDBRANCH   2   3
BRANCH   2  20
ATOM     20  N   UNL     1      47.613   6.167  12.909  0.00  0.00    +0.000 N 
ATOM     21  C   UNL     1      46.614   6.667  12.100  0.00  0.00    +0.000 C 
ATOM     22  O   UNL     1      46.343   7.862  12.042  0.00  0.00    +0.000 OA
ATOM     23  H   UNL     1      47.548   5.189  13.177  0.00  0.00    +0.000 HD
BRANCH  21  24
ATOM     24  C   UNL     1      45.916   5.701  11.249  0.00  0.00    +0.000 A 
ATOM     25  C   UNL     1      46.017   5.799   9.866  0.00  0.00    +0.000 A 
ATOM     26  S   UNL     1      45.143   4.595   9.032  0.00  0.00    +0.000 S 
ATOM     27  C   UNL     1      44.567   3.930  10.488  0.00  0.00    +0.000 A 
ATOM     28  N   UNL     1      43.715   2.871  10.487  0.00  0.00    +0.000 NA
ATOM     29  C   UNL     1      43.334   2.493  11.662  0.00  0.00    +0.000 A 
ATOM     30  N   UNL     1      43.735   3.070  12.838  0.00  0.00    +0.000 N 
ATOM     31  C   UNL     1      44.630   4.111  12.889  0.00  0.00    +0.000 A 
ATOM     32  O   UNL     1      45.033   4.558  13.959  0.00  0.00    +0.000 OA
ATOM     33  C   UNL     1      45.061   4.596  11.594  0.00  0.00    +0.000 A 
ATOM     34  H   UNL     1      43.416   2.713  13.726  0.00  0.00    +0.000 HD
ENDBRANCH  21  24
ENDBRANCH   2  20
TORSDOF 6
ENDMDL
MODEL 5
REMARK VINA RESULT:    -7.104      3.544      4.843
REMARK INTER + INTRA:         -10.606
REMARK INTER:                  -9.542
REMARK INTRA:                  -1.064
REMARK UNBOUND:                -1.009
REMARK  Name = 
REMARK  7 active torsions:
REMARK  status: ('A' for Active; 'I' for Inactive)
REMARK    1  A    between atoms: C_1  and  C_2
REMARK    2  A    between atoms: C_2  and  N_3
REMARK    3  A    between atoms: C_2  and  C_16
REMARK    4  A    between atoms: C_4  and  C_6
REMARK    5  A    between atoms: C_19  and  C_20
REMARK    6  A    between atoms: C_20  and  N_21
REMARK    7  A    between atoms: C_22  and  C_24
REMARK                            x       y       z     vdW  Elec       q    Type
REMARK                         _______ _______ _______ _____ _____    ______ ____
ROOT
ATOM      1  C   UNL     1      47.664   2.902  17.583  0.00  0.00    +0.000 C 
ATOM      2  C   UNL     1      48.528   4.160  17.405  0.00  0.00    +0.000 C 
ENDROOT
BRANCH   2   3
ATOM      3  C   UNL     1      48.034   4.933  16.182  0.00  0.00    +0.000 A 
ATOM      4  C   UNL     1      47.033   4.361  15.377  0.00  0.00    +0.000 A 
ATOM      5  C   UNL     1      46.643   4.954  14.170  0.00  0.00    +0.000 A 
ATOM      6  C   UNL     1      47.245   6.136  13.725  0.00  0.00    +0.000 A 
ATOM      7  C   UNL     1      48.198   6.747  14.552  0.00  0.00    +0.000 A 
ATOM      8  C   UNL     1      48.600   6.145  15.758  0.00  0.00    +0.000 A 
BRANCH   6   9
ATOM      9  C   UNL     1      46.902   6.709  12.372  0.00  0.00    +0.000 C 
BRANCH   9  10
ATOM     10  N   UNL     1      46.528   5.699  11.416  0.00  0.00    +0.000 N 
ATOM     11  C   UNL     1      45.205   5.475  11.101  0.00  0.00    +0.000 C 
ATOM     12  O   UNL     1      44.289   6.099  11.624  0.00  0.00    +0.000 OA
ATOM     13  H   UNL     1      47.254   5.250  10.878  0.00  0.00    +0.000 HD
BRANCH  11  14
ATOM     14  C   UNL     1      44.974   4.450  10.102  0.00  0.00    +0.000 A 
ATOM     15  C   UNL     1      44.599   3.121  10.205  0.00  0.00    +0.000 A 
ATOM     16  C   UNL     1      44.499   2.581   8.899  0.00  0.00    +0.000 A 
ATOM     17  C   UNL     1      44.814   3.588   8.019  0.00  0.00    +0.000 A 
ATOM     18  N   UNL     1      45.099   4.711   8.750  0.00  0.00    +0.000 N 
ATOM     19  H   UNL     1      45.360   5.616   8.373  0.00  0.00    +0.000 HD
ENDBRANCH  11  14
ENDBRANCH   9  10
ENDBRANCH   6   9
ENDBRANCH   2   3
BRANCH   2  20
ATOM     20  N   UNL     1      49.944   3.831  17.340  0.00  0.00    +0.000 N 
ATOM     21  C   UNL     1      50.801   4.113  18.384  0.00  0.00    +0.000 C 
ATOM     22  O   UNL     1      50.422   4.616  19.436  0.00  0.00    +0.000 OA
ATOM     23  H   UNL     1      50.349   3.761  16.411  0.00  0.00    +0.000 HD
BRANCH  21  24
ATOM     24  C   UNL     1      52.201   3.720  18.205  0.00  0.00    +0.000 A 
ATOM     25  C   UNL     1      53.210   4.657  18.390  0.00  0.00    +0.000 A 
ATOM     26  S   UNL     1      54.776   4.030  18.141  0.00  0.00    +0.000 S 
ATOM     27  C   UNL     1      54.155   2.498  17.735  0.00  0.00    +0.000 A 
ATOM     28  N   UNL     1      54.980   1.482  17.369  0.00  0.00    +0.000 NA
ATOM     29  C   UNL     1      54.369   0.387  17.057  0.00  0.00    +0.000 A 
ATOM     30  N   UNL     1      53.010   0.213  17.086  0.00  0.00    +0.000 N 
ATOM     31  C   UNL     1      52.142   1.198  17.493  0.00  0.00    +0.000 A 
ATOM     32  O   UNL     1      50.936   0.991  17.586  0.00  0.00    +0.000 OA
ATOM     33  C   UNL     1      52.776   2.458  17.822  0.00  0.00    +0.000 A 
ATOM     34  H   UNL     1      52.596  -0.675  16.850  0.00  0.00    +0.000 HD
ENDBRANCH  21  24
ENDBRANCH   2  20
TORSDOF 6
ENDMDL
MODEL 6
REMARK VINA RESULT:    -7.104      2.824      3.981
REMARK INTER + INTRA:         -10.605
REMARK INTER:                  -9.416
REMARK INTRA:                  -1.188
REMARK UNBOUND:                -1.009
REMARK  Name = 
REMARK  7 active torsions:
REMARK  status: ('A' for Active; 'I' for Inactive)
REMARK    1  A    between atoms: C_1  and  C_2
REMARK    2  A    between atoms: C_2  and  N_3
REMARK    3  A    between atoms: C_2  and  C_16
REMARK    4  A    between atoms: C_4  and  C_6
REMARK    5  A    between atoms: C_19  and  C_20
REMARK    6  A    between atoms: C_20  and  N_21
REMARK    7  A    between atoms: C_22  and  C_24
REMARK                            x       y       z     vdW  Elec       q    Type
REMARK                         _______ _______ _______ _____ _____    ______ ____
ROOT
ATOM      1  C   UNL     1      47.485   4.494  15.593  0.00  0.00    +0.000 C 
ATOM      2  C   UNL     1      47.123   5.689  14.697  0.00  0.00    +0.000 C 
ENDROOT
BRANCH   2   3
ATOM      3  C   UNL     1      46.143   5.223  13.621  0.00  0.00    +0.000 A 
ATOM      4  C   UNL     1      46.166   3.876  13.218  0.00  0.00    +0.000 A 
ATOM      5  C   UNL     1      45.394   3.424  12.141  0.00  0.00    +0.000 A 
ATOM      6  C   UNL     1      44.577   4.306  11.426  0.00  0.00    +0.000 A 
ATOM      7  C   UNL     1      44.498   5.637  11.860  0.00  0.00    +0.000 A 
ATOM      8  C   UNL     1      45.283   6.094  12.933  0.00  0.00    +0.000 A 
BRANCH   6   9
ATOM      9  C   UNL     1      43.835   3.840  10.198  0.00  0.00    +0.000 C 
BRANCH   9  10
ATOM     10  N   UNL     1      44.682   3.140   9.267  0.00  0.00    +0.000 N 
ATOM     11  C   UNL     1      45.529   3.827   8.423  0.00  0.00    +0.000 C 
ATOM     12  O   UNL     1      45.590   5.050   8.405  0.00  0.00    +0.000 OA
ATOM     13  H   UNL     1      44.750   2.136   9.335  0.00  0.00    +0.000 HD
BRANCH  11  14
ATOM     14  C   UNL     1      46.346   2.997   7.559  0.00  0.00    +0.000 A 
ATOM     15  C   UNL     1      46.733   1.669   7.642  0.00  0.00    +0.000 A 
ATOM     16  C   UNL     1      47.523   1.363   6.508  0.00  0.00    +0.000 A 
ATOM     17  C   UNL     1      47.608   2.506   5.750  0.00  0.00    +0.000 A 
ATOM     18  N   UNL     1      46.896   3.487   6.390  0.00  0.00    +0.000 N 
ATOM     19  H   UNL     1      46.772   4.440   6.065  0.00  0.00    +0.000 HD
ENDBRANCH  11  14
ENDBRANCH   9  10
ENDBRANCH   6   9
ENDBRANCH   2   3
BRANCH   2  20
ATOM     20  N   UNL     1      48.310   6.328  14.152  0.00  0.00    +0.000 N 
ATOM     21  C   UNL     1      48.383   7.696  13.984  0.00  0.00    +0.000 C 
ATOM     22  O   UNL     1      47.480   8.454  14.316  0.00  0.00    +0.000 OA
ATOM     23  H   UNL     1      48.898   5.754  13.555  0.00  0.00    +0.000 HD
BRANCH  21  24
ATOM     24  C   UNL     1      49.638   8.221  13.439  0.00  0.00    +0.000 A 
ATOM     25  C   UNL     1      49.626   8.944  12.253  0.00  0.00    +0.000 A 
ATOM     26  S   UNL     1      51.170   9.478  11.765  0.00  0.00    +0.000 S 
ATOM     27  C   UNL     1      51.910   8.725  13.100  0.00  0.00    +0.000 A 
ATOM     28  N   UNL     1      53.259   8.764  13.268  0.00  0.00    +0.000 NA
ATOM     29  C   UNL     1      53.683   8.122  14.305  0.00  0.00    +0.000 A 
ATOM     30  N   UNL     1      52.883   7.454  15.195  0.00  0.00    +0.000 N 
ATOM     31  C   UNL     1      51.513   7.428  15.090  0.00  0.00    +0.000 A 
ATOM     32  O   UNL     1      50.815   6.890  15.943  0.00  0.00    +0.000 OA
ATOM     33  C   UNL     1      50.988   8.105  13.922  0.00  0.00    +0.000 A 
ATOM     34  H   UNL     1      53.277   6.989  15.999  0.00  0.00    +0.000 HD
ENDBRANCH  21  24
ENDBRANCH   2  20
TORSDOF 6
ENDMDL
MODEL 7
REMARK VINA RESULT:    -7.020      3.289      8.929
REMARK INTER + INTRA:         -10.492
REMARK INTER:                  -9.528
REMARK INTRA:                  -0.964
REMARK UNBOUND:                -1.009
REMARK  Name = 
REMARK  7 active torsions:
REMARK  status: ('A' for Active; 'I' for Inactive)
REMARK    1  A    between atoms: C_1  and  C_2
REMARK    2  A    between atoms: C_2  and  N_3
REMARK    3  A    between atoms: C_2  and  C_16
REMARK    4  A    between atoms: C_4  and  C_6
REMARK    5  A    between atoms: C_19  and  C_20
REMARK    6  A    between atoms: C_20  and  N_21
REMARK    7  A    between atoms: C_22  and  C_24
REMARK                            x       y       z     vdW  Elec       q    Type
REMARK                         _______ _______ _______ _____ _____    ______ ____
ROOT
ATOM      1  C   UNL     1      48.885   7.697  11.465  0.00  0.00    +0.000 C 
ATOM      2  C   UNL     1      47.892   7.381  12.593  0.00  0.00    +0.000 C 
ENDROOT
BRANCH   2   3
ATOM      3  C   UNL     1      48.660   7.251  13.909  0.00  0.00    +0.000 A 
ATOM      4  C   UNL     1      49.940   7.823  14.006  0.00  0.00    +0.000 A 
ATOM      5  C   UNL     1      50.747   7.617  15.131  0.00  0.00    +0.000 A 
ATOM      6  C   UNL     1      50.302   6.825  16.195  0.00  0.00    +0.000 A 
ATOM      7  C   UNL     1      49.002   6.303  16.136  0.00  0.00    +0.000 A 
ATOM      8  C   UNL     1      48.197   6.500  15.000  0.00  0.00    +0.000 A 
BRANCH   6   9
ATOM      9  C   UNL     1      51.217   6.512  17.354  0.00  0.00    +0.000 C 
BRANCH   9  10
ATOM     10  N   UNL     1      51.758   5.179  17.293  0.00  0.00    +0.000 N 
ATOM     11  C   UNL     1      51.185   4.146  18.004  0.00  0.00    +0.000 C 
ATOM     12  O   UNL     1      50.213   4.309  18.732  0.00  0.00    +0.000 OA
ATOM     13  H   UNL     1      52.478   4.980  16.615  0.00  0.00    +0.000 HD
BRANCH  11  14
ATOM     14  C   UNL     1      51.813   2.851  17.827  0.00  0.00    +0.000 A 
ATOM     15  C   UNL     1      51.340   1.650  17.325  0.00  0.00    +0.000 A 
ATOM     16  C   UNL     1      52.392   0.704  17.364  0.00  0.00    +0.000 A 
ATOM     17  C   UNL     1      53.492   1.339  17.888  0.00  0.00    +0.000 A 
ATOM     18  N   UNL     1      53.136   2.633  18.165  0.00  0.00    +0.000 N 
ATOM     19  H   UNL     1      53.742   3.347  18.555  0.00  0.00    +0.000 HD
ENDBRANCH  11  14
ENDBRANCH   9  10
ENDBRANCH   6   9
ENDBRANCH   2   3
BRANCH   2  20
ATOM     20  N   UNL     1      47.085   6.210  12.284  0.00  0.00    +0.000 N 
ATOM     21  C   UNL     1      45.741   6.314  11.991  0.00  0.00    +0.000 C 
ATOM     22  O   UNL     1      45.155   7.389  11.934  0.00  0.00    +0.000 OA
ATOM     23  H   UNL     1      47.413   5.325  12.659  0.00  0.00    +0.000 HD
BRANCH  21  24
ATOM     24  C   UNL     1      45.041   5.064  11.682  0.00  0.00    +0.000 A 
ATOM     25  C   UNL     1      44.334   4.404  12.679  0.00  0.00    +0.000 A 
ATOM     26  S   UNL     1      43.583   2.969  12.146  0.00  0.00    +0.000 S 
ATOM     27  C   UNL     1      44.212   3.160  10.577  0.00  0.00    +0.000 A 
ATOM     28  N   UNL     1      43.977   2.235   9.609  0.00  0.00    +0.000 NA
ATOM     29  C   UNL     1      44.544   2.493   8.478  0.00  0.00    +0.000 A 
ATOM     30  N   UNL     1      45.316   3.595   8.222  0.00  0.00    +0.000 N 
ATOM     31  C   UNL     1      45.543   4.578   9.155  0.00  0.00    +0.000 A 
ATOM     32  O   UNL     1      46.173   5.594   8.877  0.00  0.00    +0.000 OA
ATOM     33  C   UNL     1      44.956   4.319  10.454  0.00  0.00    +0.000 A 
ATOM     34  H   UNL     1      45.715   3.749   7.308  0.00  0.00    +0.000 HD
ENDBRANCH  21  24
ENDBRANCH   2  20
TORSDOF 6
ENDMDL
MODEL 8
REMARK VINA RESULT:    -6.843      2.329      3.329
REMARK INTER + INTRA:         -10.253
REMARK INTER:                  -9.687
REMARK INTRA:                  -0.566
REMARK UNBOUND:                -1.009
REMARK  Name = 
REMARK  7 active torsions:
REMARK  status: ('A' for Active; 'I' for Inactive)
REMARK    1  A    between atoms: C_1  and  C_2
REMARK    2  A    between atoms: C_2  and  N_3
REMARK    3  A    between atoms: C_2  and  C_16
REMARK    4  A    between atoms: C_4  and  C_6
REMARK    5  A    between atoms: C_19  and  C_20
REMARK    6  A    between atoms: C_20  and  N_21
REMARK    7  A    between atoms: C_22  and  C_24
REMARK                            x       y       z     vdW  Elec       q    Type
REMARK                         _______ _______ _______ _____ _____    ______ ____
ROOT
ATOM      1  C   UNL     1      47.620   3.378  14.898  0.00  0.00    +0.000 C 
ATOM      2  C   UNL     1      46.828   4.693  14.832  0.00  0.00    +0.000 C 
ENDROOT
BRANCH   2   3
ATOM      3  C   UNL     1      45.939   4.675  13.589  0.00  0.00    +0.000 A 
ATOM      4  C   UNL     1      45.619   3.439  13.001  0.00  0.00    +0.000 A 
ATOM      5  C   UNL     1      44.929   3.367  11.784  0.00  0.00    +0.000 A 
ATOM      6  C   UNL     1      44.542   4.531  11.112  0.00  0.00    +0.000 A 
ATOM      7  C   UNL     1      44.800   5.767  11.722  0.00  0.00    +0.000 A 
ATOM      8  C   UNL     1      45.504   5.840  12.937  0.00  0.00    +0.000 A 
BRANCH   6   9
ATOM      9  C   UNL     1      43.900   4.452   9.749  0.00  0.00    +0.000 C 
BRANCH   9  10
ATOM     10  N   UNL     1      44.674   3.678   8.813  0.00  0.00    +0.000 N 
ATOM     11  C   UNL     1      45.813   4.195   8.233  0.00  0.00    +0.000 C 
ATOM     12  O   UNL     1      46.210   5.331   8.463  0.00  0.00    +0.000 OA
ATOM     13  H   UNL     1      44.449   2.702   8.691  0.00  0.00    +0.000 HD
BRANCH  11  14
ATOM     14  C   UNL     1      46.510   3.297   7.334  0.00  0.00    +0.000 A 
ATOM     15  C   UNL     1      46.880   1.967   7.451  0.00  0.00    +0.000 A 
ATOM     16  C   UNL     1      47.529   1.577   6.255  0.00  0.00    +0.000 A 
ATOM     17  C   UNL     1      47.546   2.671   5.425  0.00  0.00    +0.000 A 
ATOM     18  N   UNL     1      46.930   3.705   6.081  0.00  0.00    +0.000 N 
ATOM     19  H   UNL     1      46.786   4.640   5.716  0.00  0.00    +0.000 HD
ENDBRANCH  11  14
ENDBRANCH   9  10
ENDBRANCH   6   9
ENDBRANCH   2   3
BRANCH   2  20
ATOM     20  N   UNL     1      47.708   5.850  14.890  0.00  0.00    +0.000 N 
ATOM     21  C   UNL     1      48.486   6.113  15.998  0.00  0.00    +0.000 C 
ATOM     22  O   UNL     1      48.516   5.378  16.978  0.00  0.00    +0.000 OA
ATOM     23  H   UNL     1      47.457   6.638  14.300  0.00  0.00    +0.000 HD
BRANCH  21  24
ATOM     24  C   UNL     1      49.341   7.301  15.929  0.00  0.00    +0.000 A 
ATOM     25  C   UNL     1      50.302   7.403  14.930  0.00  0.00    +0.000 A 
ATOM     26  S   UNL     1      51.206   8.848  14.999  0.00  0.00    +0.000 S 
ATOM     27  C   UNL     1      50.373   9.365  16.390  0.00  0.00    +0.000 A 
ATOM     28  N   UNL     1      50.690  10.535  17.003  0.00  0.00    +0.000 NA
ATOM     29  C   UNL     1      49.999  10.784  18.066  0.00  0.00    +0.000 A 
ATOM     30  N   UNL     1      49.013   9.974  18.566  0.00  0.00    +0.000 N 
ATOM     31  C   UNL     1      48.628   8.805  17.954  0.00  0.00    +0.000 A 
ATOM     32  O   UNL     1      47.689   8.138  18.378  0.00  0.00    +0.000 OA
ATOM     33  C   UNL     1      49.397   8.464  16.775  0.00  0.00    +0.000 A 
ATOM     34  H   UNL     1      48.495  10.236  19.391  0.00  0.00    +0.000 HD
ENDBRANCH  21  24
ENDBRANCH   2  20
TORSDOF 6
ENDMDL
MODEL 9
REMARK VINA RESULT:    -6.672      4.001      8.776
REMARK INTER + INTRA:         -10.021
REMARK INTER:                  -9.036
REMARK INTRA:                  -0.986
REMARK UNBOUND:                -1.009
REMARK  Name = 
REMARK  7 active torsions:
REMARK  status: ('A' for Active; 'I' for Inactive)
REMARK    1  A    between atoms: C_1  and  C_2
REMARK    2  A    between atoms: C_2  and  N_3
REMARK    3  A    between atoms: C_2  and  C_16
REMARK    4  A    between atoms: C_4  and  C_6
REMARK    5  A    between atoms: C_19  and  C_20
REMARK    6  A    between atoms: C_20  and  N_21
REMARK    7  A    between atoms: C_22  and  C_24
REMARK                            x       y       z     vdW  Elec       q    Type
REMARK                         _______ _______ _______ _____ _____    ______ ____
ROOT
ATOM      1  C   UNL     1      46.797   3.036  17.659  0.00  0.00    +0.000 C 
ATOM      2  C   UNL     1      47.647   3.441  16.445  0.00  0.00    +0.000 C 
ENDROOT
BRANCH   2   3
ATOM      3  C   UNL     1      48.996   3.965  16.936  0.00  0.00    +0.000 A 
ATOM      4  C   UNL     1      49.235   5.351  16.915  0.00  0.00    +0.000 A 
ATOM      5  C   UNL     1      50.497   5.878  17.217  0.00  0.00    +0.000 A 
ATOM      6  C   UNL     1      51.564   5.035  17.545  0.00  0.00    +0.000 A 
ATOM      7  C   UNL     1      51.320   3.657  17.631  0.00  0.00    +0.000 A 
ATOM      8  C   UNL     1      50.057   3.127  17.316  0.00  0.00    +0.000 A 
BRANCH   6   9
ATOM      9  C   UNL     1      52.948   5.597  17.759  0.00  0.00    +0.000 C 
BRANCH   9  10
ATOM     10  N   UNL     1      53.619   5.911  16.524  0.00  0.00    +0.000 N 
ATOM     11  C   UNL     1      53.660   7.203  16.046  0.00  0.00    +0.000 C 
ATOM     12  O   UNL     1      53.117   8.136  16.625  0.00  0.00    +0.000 OA
ATOM     13  H   UNL     1      54.179   5.196  16.083  0.00  0.00    +0.000 HD
BRANCH  11  14
ATOM     14  C   UNL     1      54.395   7.380  14.808  0.00  0.00    +0.000 A 
ATOM     15  C   UNL     1      55.021   8.482  14.249  0.00  0.00    +0.000 A 
ATOM     16  C   UNL     1      55.608   8.088  13.023  0.00  0.00    +0.000 A 
ATOM     17  C   UNL     1      55.334   6.753  12.850  0.00  0.00    +0.000 A 
ATOM     18  N   UNL     1      54.602   6.333  13.930  0.00  0.00    +0.000 N 
ATOM     19  H   UNL     1      54.258   5.391  14.086  0.00  0.00    +0.000 HD
ENDBRANCH  11  14
ENDBRANCH   9  10
ENDBRANCH   6   9
ENDBRANCH   2   3
BRANCH   2  20
ATOM     20  N   UNL     1      46.944   4.385  15.590  0.00  0.00    +0.000 N 
ATOM     21  C   UNL     1      46.898   4.226  14.220  0.00  0.00    +0.000 C 
ATOM     22  O   UNL     1      47.407   3.270  13.646  0.00  0.00    +0.000 OA
ATOM     23  H   UNL     1      46.834   5.327  15.953  0.00  0.00    +0.000 HD
BRANCH  21  24
ATOM     24  C   UNL     1      46.146   5.235  13.470  0.00  0.00    +0.000 A 
ATOM     25  C   UNL     1      46.626   6.537  13.391  0.00  0.00    +0.000 A 
ATOM     26  S   UNL     1      45.628   7.578  12.481  0.00  0.00    +0.000 S 
ATOM     27  C   UNL     1      44.500   6.334  12.199  0.00  0.00    +0.000 A 
ATOM     28  N   UNL     1      43.359   6.569  11.499  0.00  0.00    +0.000 NA
ATOM     29  C   UNL     1      42.581   5.543  11.391  0.00  0.00    +0.000 A 
ATOM     30  N   UNL     1      42.845   4.302  11.909  0.00  0.00    +0.000 N 
ATOM     31  C   UNL     1      44.006   4.008  12.584  0.00  0.00    +0.000 A 
ATOM     32  O   UNL     1      44.253   2.870  12.969  0.00  0.00    +0.000 OA
ATOM     33  C   UNL     1      44.898   5.136  12.762  0.00  0.00    +0.000 A 
ATOM     34  H   UNL     1      42.204   3.536  11.772  0.00  0.00    +0.000 HD
ENDBRANCH  21  24
ENDBRANCH   2  20
TORSDOF 6
ENDMDL
