MODEL 1
REMARK VINA RESULT:    -8.678      0.000      0.000
REMARK INTER + INTRA:         -11.990
REMARK INTER:                 -11.214
REMARK INTRA:                  -0.776
REMARK UNBOUND:                -0.776
REMARK  Name = 
REMARK  6 active torsions:
REMARK  status: ('A' for Active; 'I' for Inactive)
REMARK    1  A    between atoms: C_1  and  C_2
REMARK    2  A    between atoms: C_6  and  C_7
REMARK    3  A    between atoms: C_7  and  C_8
REMARK    4  A    between atoms: C_11  and  C_12
REMARK    5  A    between atoms: C_12  and  N_13
REMARK    6  A    between atoms: C_14  and  C_16
REMARK                            x       y       z     vdW  Elec       q    Type
REMARK                         _______ _______ _______ _____ _____    ______ ____
ROOT
ATOM      1  C   UNL     1      46.411   7.624  12.784  0.00  0.00    +0.000 C 
ENDROOT
BRANCH   1   5
ATOM      2  C   UNL     1      44.882   4.411  10.313  0.00  0.00    +0.000 A 
ATOM      3  C   UNL     1      44.556   4.478  11.674  0.00  0.00    +0.000 A 
ATOM      4  C   UNL     1      45.070   5.500  12.480  0.00  0.00    +0.000 A 
ATOM      5  C   UNL     1      45.899   6.489  11.935  0.00  0.00    +0.000 A 
ATOM      6  C   UNL     1      46.261   6.396  10.585  0.00  0.00    +0.000 A 
ATOM      7  C   UNL     1      45.756   5.370   9.783  0.00  0.00    +0.000 A 
BRANCH   2   8
ATOM      8  C   UNL     1      44.267   3.347   9.428  0.00  0.00    +0.000 C 
BRANCH   8  14
ATOM      9  C   UNL     1      47.199   3.387   5.332  0.00  0.00    +0.000 C 
ATOM     10  C   UNL     1      46.665   2.685   6.541  0.00  0.00    +0.000 A 
ATOM     11  C   UNL     1      47.063   1.391   6.867  0.00  0.00    +0.000 A 
ATOM     12  C   UNL     1      46.527   0.799   7.999  0.00  0.00    +0.000 A 
ATOM     13  N   UNL     1      45.631   1.403   8.818  0.00  0.00    +0.000 NA
ATOM     14  C   UNL     1      45.242   2.663   8.494  0.00  0.00    +0.000 A 
ATOM     15  C   UNL     1      45.745   3.330   7.377  0.00  0.00    +0.000 A 
ENDBRANCH   8  14
ENDBRANCH   2   8
ENDBRANCH   1   5
BRANCH   1  16
ATOM     16  N   UNL     1      46.972   7.146  14.019  0.00  0.00    +0.000 N 
ATOM     17  C   UNL     1      48.252   6.653  14.075  0.00  0.00    +0.000 C 
ATOM     18  O   UNL     1      48.989   6.634  13.096  0.00  0.00    +0.000 OA
ATOM     19  H   UNL     1      46.321   6.937  14.769  0.00  0.00    +0.000 HD
BRANCH  17  20
ATOM     20  C   UNL     1      48.715   6.207  15.396  0.00  0.00    +0.000 A 
ATOM     21  C   UNL     1      49.740   6.891  16.035  0.00  0.00    +0.000 A 
ATOM     22  S   UNL     1      50.093   6.289  17.590  0.00  0.00    +0.000 S 
ATOM     23  C   UNL     1      48.927   5.060  17.440  0.00  0.00    +0.000 A 
ATOM     24  N   UNL     1      48.723   4.159  18.441  0.00  0.00    +0.000 NA
ATOM     25  C   UNL     1      47.830   3.264  18.178  0.00  0.00    +0.000 A 
ATOM     26  N   UNL     1      47.127   3.184  17.004  0.00  0.00    +0.000 N 
ATOM     27  C   UNL     1      47.283   4.082  15.979  0.00  0.00    +0.000 A 
ATOM     28  O   UNL     1      46.612   4.001  14.954  0.00  0.00    +0.000 OA
ATOM     29  C   UNL     1      48.273   5.111  16.223  0.00  0.00    +0.000 A 
ATOM     30  H   UNL     1      46.439   2.457  16.861  0.00  0.00    +0.000 HD
ENDBRANCH  17  20
ENDBRANCH   1  16
TORSDOF 5
ENDMDL
MODEL 2
REMARK VINA RESULT:    -8.122      1.173      1.582
REMARK INTER + INTRA:         -11.271
REMARK INTER:                 -10.265
REMARK INTRA:                  -1.006
REMARK UNBOUND:                -0.776
REMARK  Name = 
REMARK  6 active torsions:
REMARK  status: ('A' for Active; 'I' for Inactive)
REMARK    1  A    between atoms: C_1  and  C_2
REMARK    2  A    between atoms: C_6  and  C_7
REMARK    3  A    between atoms: C_7  and  C_8
REMARK    4  A    between atoms: C_11  and  C_12
REMARK    5  A    between atoms: C_12  and  N_13
REMARK    6  A    between atoms: C_14  and  C_16
REMARK                            x       y       z     vdW  Elec       q    Type
REMARK                         _______ _______ _______ _____ _____    ______ ____
ROOT
ATOM      1  C   UNL     1      47.486   8.129  13.578  0.00  0.00    +0.000 C 
ENDROOT
BRANCH   1   5
ATOM      2  C   UNL     1      44.679   5.809  11.232  0.00  0.00    +0.000 A 
ATOM      3  C   UNL     1      44.477   7.181  11.429  0.00  0.00    +0.000 A 
ATOM      4  C   UNL     1      45.368   7.927  12.208  0.00  0.00    +0.000 A 
ATOM      5  C   UNL     1      46.492   7.321  12.785  0.00  0.00    +0.000 A 
ATOM      6  C   UNL     1      46.669   5.941  12.624  0.00  0.00    +0.000 A 
ATOM      7  C   UNL     1      45.773   5.194  11.855  0.00  0.00    +0.000 A 
BRANCH   2   8
ATOM      8  C   UNL     1      43.754   5.018  10.329  0.00  0.00    +0.000 C 
BRANCH   8  14
ATOM      9  C   UNL     1      46.766   3.567   6.561  0.00  0.00    +0.000 C 
ATOM     10  C   UNL     1      45.894   3.232   7.731  0.00  0.00    +0.000 A 
ATOM     11  C   UNL     1      45.698   1.916   8.140  0.00  0.00    +0.000 A 
ATOM     12  C   UNL     1      44.876   1.676   9.229  0.00  0.00    +0.000 A 
ATOM     13  N   UNL     1      44.244   2.650   9.929  0.00  0.00    +0.000 NA
ATOM     14  C   UNL     1      44.435   3.931   9.525  0.00  0.00    +0.000 A 
ATOM     15  C   UNL     1      45.256   4.254   8.445  0.00  0.00    +0.000 A 
ENDBRANCH   8  14
ENDBRANCH   2   8
ENDBRANCH   1   5
BRANCH   1  16
ATOM     16  N   UNL     1      47.812   7.487  14.824  0.00  0.00    +0.000 N 
ATOM     17  C   UNL     1      49.074   7.004  15.065  0.00  0.00    +0.000 C 
ATOM     18  O   UNL     1      49.989   7.133  14.260  0.00  0.00    +0.000 OA
ATOM     19  H   UNL     1      47.035   7.166  15.392  0.00  0.00    +0.000 HD
BRANCH  17  20
ATOM     20  C   UNL     1      49.286   6.381  16.378  0.00  0.00    +0.000 A 
ATOM     21  C   UNL     1      50.106   7.000  17.312  0.00  0.00    +0.000 A 
ATOM     22  S   UNL     1      50.173   6.181  18.806  0.00  0.00    +0.000 S 
ATOM     23  C   UNL     1      49.156   4.943  18.237  0.00  0.00    +0.000 A 
ATOM     24  N   UNL     1      48.816   3.891  19.033  0.00  0.00    +0.000 NA
ATOM     25  C   UNL     1      48.064   3.011  18.461  0.00  0.00    +0.000 A 
ATOM     26  N   UNL     1      47.625   3.083  17.164  0.00  0.00    +0.000 N 
ATOM     27  C   UNL     1      47.924   4.134  16.334  0.00  0.00    +0.000 A 
ATOM     28  O   UNL     1      47.485   4.184  15.188  0.00  0.00    +0.000 OA
ATOM     29  C   UNL     1      48.764   5.153  16.927  0.00  0.00    +0.000 A 
ATOM     30  H   UNL     1      47.037   2.360  16.776  0.00  0.00    +0.000 HD
ENDBRANCH  17  20
ENDBRANCH   1  16
TORSDOF 5
ENDMDL
MODEL 3
REMARK VINA RESULT:    -8.072      2.184      3.874
REMARK INTER + INTRA:         -11.207
REMARK INTER:                 -10.178
REMARK INTRA:                  -1.028
REMARK UNBOUND:                -0.776
REMARK  Name = 
REMARK  6 active torsions:
REMARK  status: ('A' for Active; 'I' for Inactive)
REMARK    1  A    between atoms: C_1  and  C_2
REMARK    2  A    between atoms: C_6  and  C_7
REMARK    3  A    between atoms: C_7  and  C_8
REMARK    4  A    between atoms: C_11  and  C_12
REMARK    5  A    between atoms: C_12  and  N_13
REMARK    6  A    between atoms: C_14  and  C_16
REMARK                            x       y       z     vdW  Elec       q    Type
REMARK                         _______ _______ _______ _____ _____    ______ ____
ROOT
ATOM      1  C   UNL     1      46.749   4.746  14.604  0.00  0.00    +0.000 C 
ENDROOT
BRANCH   1   5
ATOM      2  C   UNL     1      45.036   4.338  10.646  0.00  0.00    +0.000 A 
ATOM      3  C   UNL     1      45.649   5.536  11.035  0.00  0.00    +0.000 A 
ATOM      4  C   UNL     1      46.179   5.679  12.321  0.00  0.00    +0.000 A 
ATOM      5  C   UNL     1      46.130   4.619  13.236  0.00  0.00    +0.000 A 
ATOM      6  C   UNL     1      45.477   3.438  12.862  0.00  0.00    +0.000 A 
ATOM      7  C   UNL     1      44.937   3.298  11.581  0.00  0.00    +0.000 A 
BRANCH   2   8
ATOM      8  C   UNL     1      44.527   4.160   9.230  0.00  0.00    +0.000 C 
BRANCH   8  14
ATOM      9  C   UNL     1      46.799  -0.054   7.666  0.00  0.00    +0.000 C 
ATOM     10  C   UNL     1      46.558   1.418   7.536  0.00  0.00    +0.000 A 
ATOM     11  C   UNL     1      47.180   2.173   6.546  0.00  0.00    +0.000 A 
ATOM     12  C   UNL     1      46.915   3.532   6.485  0.00  0.00    +0.000 A 
ATOM     13  N   UNL     1      46.082   4.179   7.335  0.00  0.00    +0.000 NA
ATOM     14  C   UNL     1      45.481   3.440   8.302  0.00  0.00    +0.000 A 
ATOM     15  C   UNL     1      45.689   2.066   8.422  0.00  0.00    +0.000 A 
ENDBRANCH   8  14
ENDBRANCH   2   8
ENDBRANCH   1   5
BRANCH   1  16
ATOM     16  N   UNL     1      47.495   5.970  14.732  0.00  0.00    +0.000 N 
ATOM     17  C   UNL     1      48.566   6.062  15.586  0.00  0.00    +0.000 C 
ATOM     18  O   UNL     1      48.965   5.106  16.242  0.00  0.00    +0.000 OA
ATOM     19  H   UNL     1      47.052   6.816  14.390  0.00  0.00    +0.000 HD
BRANCH  17  20
ATOM     20  C   UNL     1      49.254   7.359  15.620  0.00  0.00    +0.000 A 
ATOM     21  C   UNL     1      49.415   8.024  16.827  0.00  0.00    +0.000 A 
ATOM     22  S   UNL     1      50.307   9.472  16.692  0.00  0.00    +0.000 S 
ATOM     23  C   UNL     1      50.459   9.287  15.009  0.00  0.00    +0.000 A 
ATOM     24  N   UNL     1      51.116  10.213  14.257  0.00  0.00    +0.000 NA
ATOM     25  C   UNL     1      51.128   9.961  12.990  0.00  0.00    +0.000 A 
ATOM     26  N   UNL     1      50.536   8.870  12.406  0.00  0.00    +0.000 N 
ATOM     27  C   UNL     1      49.884   7.902  13.126  0.00  0.00    +0.000 A 
ATOM     28  O   UNL     1      49.396   6.920  12.574  0.00  0.00    +0.000 OA
ATOM     29  C   UNL     1      49.844   8.134  14.555  0.00  0.00    +0.000 A 
ATOM     30  H   UNL     1      50.582   8.730  11.407  0.00  0.00    +0.000 HD
ENDBRANCH  17  20
ENDBRANCH   1  16
TORSDOF 5
ENDMDL
MODEL 4
REMARK VINA RESULT:    -7.753      1.878      2.796
REMARK INTER + INTRA:         -10.794
REMARK INTER:                 -10.341
REMARK INTRA:                  -0.453
REMARK UNBOUND:                -0.776
REMARK  Name = 
REMARK  6 active torsions:
REMARK  status: ('A' for Active; 'I' for Inactive)
REMARK    1  A    between atoms: C_1  and  C_2
REMARK    2  A    between atoms: C_6  and  C_7
REMARK    3  A    between atoms: C_7  and  C_8
REMARK    4  A    between atoms: C_11  and  C_12
REMARK    5  A    between atoms: C_12  and  N_13
REMARK    6  A    between atoms: C_14  and  C_16
REMARK                            x       y       z     vdW  Elec       q    Type
REMARK                         _______ _______ _______ _____ _____    ______ ____
ROOT
ATOM      1  C   UNL     1      47.238   7.146  13.632  0.00  0.00    +0.000 C 
ENDROOT
BRANCH   1   5
ATOM      2  C   UNL     1      45.043   4.820  10.711  0.00  0.00    +0.000 A 
ATOM      3  C   UNL     1      45.911   5.840  10.300  0.00  0.00    +0.000 A 
ATOM      4  C   UNL     1      46.601   6.610  11.243  0.00  0.00    +0.000 A 
ATOM      5  C   UNL     1      46.456   6.358  12.614  0.00  0.00    +0.000 A 
ATOM      6  C   UNL     1      45.554   5.369  13.024  0.00  0.00    +0.000 A 
ATOM      7  C   UNL     1      44.857   4.607  12.084  0.00  0.00    +0.000 A 
BRANCH   2   8
ATOM      8  C   UNL     1      44.353   3.941   9.688  0.00  0.00    +0.000 C 
BRANCH   8  14
ATOM      9  C   UNL     1      46.764  -0.006   7.693  0.00  0.00    +0.000 C 
ATOM     10  C   UNL     1      46.416   1.450   7.674  0.00  0.00    +0.000 A 
ATOM     11  C   UNL     1      46.902   2.302   6.686  0.00  0.00    +0.000 A 
ATOM     12  C   UNL     1      46.543   3.640   6.730  0.00  0.00    +0.000 A 
ATOM     13  N   UNL     1      45.741   4.177   7.682  0.00  0.00    +0.000 NA
ATOM     14  C   UNL     1      45.273   3.344   8.646  0.00  0.00    +0.000 A 
ATOM     15  C   UNL     1      45.581   1.984   8.663  0.00  0.00    +0.000 A 
ENDBRANCH   8  14
ENDBRANCH   2   8
ENDBRANCH   1   5
BRANCH   1  16
ATOM     16  N   UNL     1      47.389   6.414  14.862  0.00  0.00    +0.000 N 
ATOM     17  C   UNL     1      48.624   6.226  15.431  0.00  0.00    +0.000 C 
ATOM     18  O   UNL     1      49.646   6.705  14.950  0.00  0.00    +0.000 OA
ATOM     19  H   UNL     1      46.613   5.824  15.143  0.00  0.00    +0.000 HD
BRANCH  17  20
ATOM     20  C   UNL     1      48.647   5.473  16.691  0.00  0.00    +0.000 A 
ATOM     21  C   UNL     1      48.207   4.157  16.717  0.00  0.00    +0.000 A 
ATOM     22  S   UNL     1      48.380   3.412  18.242  0.00  0.00    +0.000 S 
ATOM     23  C   UNL     1      48.995   4.840  18.932  0.00  0.00    +0.000 A 
ATOM     24  N   UNL     1      49.340   4.893  20.248  0.00  0.00    +0.000 NA
ATOM     25  C   UNL     1      49.762   6.047  20.643  0.00  0.00    +0.000 A 
ATOM     26  N   UNL     1      49.865   7.156  19.844  0.00  0.00    +0.000 N 
ATOM     27  C   UNL     1      49.551   7.144  18.508  0.00  0.00    +0.000 A 
ATOM     28  O   UNL     1      49.688   8.146  17.813  0.00  0.00    +0.000 OA
ATOM     29  C   UNL     1      49.073   5.870  18.012  0.00  0.00    +0.000 A 
ATOM     30  H   UNL     1      50.205   8.032  20.215  0.00  0.00    +0.000 HD
ENDBRANCH  17  20
ENDBRANCH   1  16
TORSDOF 5
ENDMDL
MODEL 5
REMARK VINA RESULT:    -7.494      2.800      3.549
REMARK INTER + INTRA:         -10.460
REMARK INTER:                  -9.474
REMARK INTRA:                  -0.986
REMARK UNBOUND:                -0.776
REMARK  Name = 
REMARK  6 active torsions:
REMARK  status: ('A' for Active; 'I' for Inactive)
REMARK    1  A    between atoms: C_1  and  C_2
REMARK    2  A    between atoms: C_6  and  C_7
REMARK    3  A    between atoms: C_7  and  C_8
REMARK    4  A    between atoms: C_11  and  C_12
REMARK    5  A    between atoms: C_12  and  N_13
REMARK    6  A    between atoms: C_14  and  C_16
REMARK                            x       y       z     vdW  Elec       q    Type
REMARK                         _______ _______ _______ _____ _____    ______ ____
ROOT
ATOM      1  C   UNL     1      48.786   7.039  14.282  0.00  0.00    +0.000 C 
ENDROOT
BRANCH   1   5
ATOM      2  C   UNL     1      45.607   5.616  11.707  0.00  0.00    +0.000 A 
ATOM      3  C   UNL     1      46.000   4.873  12.828  0.00  0.00    +0.000 A 
ATOM      4  C   UNL     1      47.043   5.318  13.646  0.00  0.00    +0.000 A 
ATOM      5  C   UNL     1      47.699   6.526  13.374  0.00  0.00    +0.000 A 
ATOM      6  C   UNL     1      47.336   7.245  12.228  0.00  0.00    +0.000 A 
ATOM      7  C   UNL     1      46.301   6.796  11.405  0.00  0.00    +0.000 A 
BRANCH   2   8
ATOM      8  C   UNL     1      44.429   5.170  10.865  0.00  0.00    +0.000 C 
BRANCH   8  14
ATOM      9  C   UNL     1      46.684   3.629   6.632  0.00  0.00    +0.000 C 
ATOM     10  C   UNL     1      45.846   3.339   7.838  0.00  0.00    +0.000 A 
ATOM     11  C   UNL     1      45.352   2.063   8.092  0.00  0.00    +0.000 A 
ATOM     12  C   UNL     1      44.579   1.865   9.225  0.00  0.00    +0.000 A 
ATOM     13  N   UNL     1      44.270   2.843  10.110  0.00  0.00    +0.000 NA
ATOM     14  C   UNL     1      44.749   4.087   9.857  0.00  0.00    +0.000 A 
ATOM     15  C   UNL     1      45.543   4.363   8.744  0.00  0.00    +0.000 A 
ENDBRANCH   8  14
ENDBRANCH   2   8
ENDBRANCH   1   5
BRANCH   1  16
ATOM     16  N   UNL     1      48.339   7.116  15.647  0.00  0.00    +0.000 N 
ATOM     17  C   UNL     1      49.023   6.483  16.656  0.00  0.00    +0.000 C 
ATOM     18  O   UNL     1      50.062   5.864  16.454  0.00  0.00    +0.000 OA
ATOM     19  H   UNL     1      47.382   7.414  15.802  0.00  0.00    +0.000 HD
BRANCH  17  20
ATOM     20  C   UNL     1      48.476   6.647  18.009  0.00  0.00    +0.000 A 
ATOM     21  C   UNL     1      48.325   5.538  18.831  0.00  0.00    +0.000 A 
ATOM     22  S   UNL     1      47.754   5.923  20.391  0.00  0.00    +0.000 S 
ATOM     23  C   UNL     1      47.636   7.574  20.003  0.00  0.00    +0.000 A 
ATOM     24  N   UNL     1      47.185   8.480  20.914  0.00  0.00    +0.000 NA
ATOM     25  C   UNL     1      47.118   9.692  20.473  0.00  0.00    +0.000 A 
ATOM     26  N   UNL     1      47.454  10.080  19.202  0.00  0.00    +0.000 N 
ATOM     27  C   UNL     1      47.933   9.206  18.258  0.00  0.00    +0.000 A 
ATOM     28  O   UNL     1      48.258   9.594  17.140  0.00  0.00    +0.000 OA
ATOM     29  C   UNL     1      48.032   7.831  18.703  0.00  0.00    +0.000 A 
ATOM     30  H   UNL     1      47.380  11.047  18.919  0.00  0.00    +0.000 HD
ENDBRANCH  17  20
ENDBRANCH   1  16
TORSDOF 5
ENDMDL
MODEL 6
REMARK VINA RESULT:    -7.334      2.657      3.679
REMARK INTER + INTRA:         -10.254
REMARK INTER:                  -9.663
REMARK INTRA:                  -0.591
REMARK UNBOUND:                -0.776
REMARK  Name = 
REMARK  6 active torsions:
REMARK  status: ('A' for Active; 'I' for Inactive)
REMARK    1  A    between atoms: C_1  and  C_2
REMARK    2  A    between atoms: C_6  and  C_7
REMARK    3  A    between atoms: C_7  and  C_8
REMARK    4  A    between atoms: C_11  and  C_12
REMARK    5  A    between atoms: C_12  and  N_13
REMARK    6  A    between atoms: C_14  and  C_16
REMARK                            x       y       z     vdW  Elec       q    Type
REMARK                         _______ _______ _______ _____ _____    ______ ____
ROOT
ATOM      1  C   UNL     1      46.884   5.038  14.413  0.00  0.00    +0.000 C 
ENDROOT
BRANCH   1   5
ATOM      2  C   UNL     1      44.995   4.146  10.619  0.00  0.00    +0.000 A 
ATOM      3  C   UNL     1      45.540   5.414  10.861  0.00  0.00    +0.000 A 
ATOM      4  C   UNL     1      46.128   5.712  12.094  0.00  0.00    +0.000 A 
ATOM      5  C   UNL     1      46.204   4.742  13.103  0.00  0.00    +0.000 A 
ATOM      6  C   UNL     1      45.619   3.490  12.876  0.00  0.00    +0.000 A 
ATOM      7  C   UNL     1      45.023   3.194  11.648  0.00  0.00    +0.000 A 
BRANCH   2   8
ATOM      8  C   UNL     1      44.425   3.802   9.258  0.00  0.00    +0.000 C 
BRANCH   8  14
ATOM      9  C   UNL     1      47.432   3.039   5.289  0.00  0.00    +0.000 C 
ATOM     10  C   UNL     1      46.758   2.532   6.526  0.00  0.00    +0.000 A 
ATOM     11  C   UNL     1      46.931   1.222   6.965  0.00  0.00    +0.000 A 
ATOM     12  C   UNL     1      46.275   0.817   8.117  0.00  0.00    +0.000 A 
ATOM     13  N   UNL     1      45.469   1.622   8.851  0.00  0.00    +0.000 NA
ATOM     14  C   UNL     1      45.300   2.897   8.418  0.00  0.00    +0.000 A 
ATOM     15  C   UNL     1      45.935   3.382   7.274  0.00  0.00    +0.000 A 
ENDBRANCH   8  14
ENDBRANCH   2   8
ENDBRANCH   1   5
BRANCH   1  16
ATOM     16  N   UNL     1      47.424   6.372  14.437  0.00  0.00    +0.000 N 
ATOM     17  C   UNL     1      48.521   6.681  15.203  0.00  0.00    +0.000 C 
ATOM     18  O   UNL     1      49.116   5.837  15.864  0.00  0.00    +0.000 OA
ATOM     19  H   UNL     1      46.825   7.116  14.096  0.00  0.00    +0.000 HD
BRANCH  17  20
ATOM     20  C   UNL     1      48.985   8.072  15.133  0.00  0.00    +0.000 A 
ATOM     21  C   UNL     1      49.588   8.542  13.974  0.00  0.00    +0.000 A 
ATOM     22  S   UNL     1      49.990  10.198  14.040  0.00  0.00    +0.000 S 
ATOM     23  C   UNL     1      49.423  10.330  15.638  0.00  0.00    +0.000 A 
ATOM     24  N   UNL     1      49.489  11.511  16.312  0.00  0.00    +0.000 NA
ATOM     25  C   UNL     1      49.052  11.458  17.526  0.00  0.00    +0.000 A 
ATOM     26  N   UNL     1      48.560  10.330  18.129  0.00  0.00    +0.000 N 
ATOM     27  C   UNL     1      48.454   9.124  17.483  0.00  0.00    +0.000 A 
ATOM     28  O   UNL     1      47.976   8.142  18.042  0.00  0.00    +0.000 OA
ATOM     29  C   UNL     1      48.929   9.129  16.114  0.00  0.00    +0.000 A 
ATOM     30  H   UNL     1      48.232  10.355  19.084  0.00  0.00    +0.000 HD
ENDBRANCH  17  20
ENDBRANCH   1  16
TORSDOF 5
ENDMDL
MODEL 7
REMARK VINA RESULT:    -7.280      4.213      9.086
REMARK INTER + INTRA:         -10.183
REMARK INTER:                  -9.561
REMARK INTRA:                  -0.623
REMARK UNBOUND:                -0.776
REMARK  Name = 
REMARK  6 active torsions:
REMARK  status: ('A' for Active; 'I' for Inactive)
REMARK    1  A    between atoms: C_1  and  C_2
REMARK    2  A    between atoms: C_6  and  C_7
REMARK    3  A    between atoms: C_7  and  C_8
REMARK    4  A    between atoms: C_11  and  C_12
REMARK    5  A    between atoms: C_12  and  N_13
REMARK    6  A    between atoms: C_14  and  C_16
REMARK                            x       y       z     vdW  Elec       q    Type
REMARK                         _______ _______ _______ _____ _____    ______ ____
ROOT
ATOM      1  C   UNL     1      47.256   3.378  16.861  0.00  0.00    +0.000 C 
ENDROOT
BRANCH   1   5
ATOM      2  C   UNL     1      51.501   3.636  17.684  0.00  0.00    +0.000 A 
ATOM      3  C   UNL     1      50.911   2.404  17.371  0.00  0.00    +0.000 A 
ATOM      4  C   UNL     1      49.536   2.314  17.131  0.00  0.00    +0.000 A 
ATOM      5  C   UNL     1      48.727   3.458  17.173  0.00  0.00    +0.000 A 
ATOM      6  C   UNL     1      49.310   4.680  17.530  0.00  0.00    +0.000 A 
ATOM      7  C   UNL     1      50.681   4.769  17.781  0.00  0.00    +0.000 A 
BRANCH   2   8
ATOM      8  C   UNL     1      53.000   3.743  17.873  0.00  0.00    +0.000 C 
BRANCH   8  14
ATOM      9  C   UNL     1      54.876  -0.710  16.450  0.00  0.00    +0.000 C 
ATOM     10  C   UNL     1      54.608   0.307  17.514  0.00  0.00    +0.000 A 
ATOM     11  C   UNL     1      55.006   0.103  18.833  0.00  0.00    +0.000 A 
ATOM     12  C   UNL     1      54.724   1.085  19.770  0.00  0.00    +0.000 A 
ATOM     13  N   UNL     1      54.080   2.242  19.482  0.00  0.00    +0.000 NA
ATOM     14  C   UNL     1      53.690   2.436  18.197  0.00  0.00    +0.000 A 
ATOM     15  C   UNL     1      53.947   1.499  17.195  0.00  0.00    +0.000 A 
ENDBRANCH   8  14
ENDBRANCH   2   8
ENDBRANCH   1   5
BRANCH   1  16
ATOM     16  N   UNL     1      46.862   4.392  15.919  0.00  0.00    +0.000 N 
ATOM     17  C   UNL     1      46.947   4.176  14.565  0.00  0.00    +0.000 C 
ATOM     18  O   UNL     1      47.317   3.105  14.095  0.00  0.00    +0.000 OA
ATOM     19  H   UNL     1      46.781   5.340  16.270  0.00  0.00    +0.000 HD
BRANCH  17  20
ATOM     20  C   UNL     1      46.504   5.281  13.706  0.00  0.00    +0.000 A 
ATOM     21  C   UNL     1      47.340   6.369  13.493  0.00  0.00    +0.000 A 
ATOM     22  S   UNL     1      46.699   7.517  12.407  0.00  0.00    +0.000 S 
ATOM     23  C   UNL     1      45.261   6.628  12.229  0.00  0.00    +0.000 A 
ATOM     24  N   UNL     1      44.254   7.073  11.427  0.00  0.00    +0.000 NA
ATOM     25  C   UNL     1      43.210   6.314  11.410  0.00  0.00    +0.000 A 
ATOM     26  N   UNL     1      43.077   5.153  12.127  0.00  0.00    +0.000 N 
ATOM     27  C   UNL     1      44.073   4.654  12.929  0.00  0.00    +0.000 A 
ATOM     28  O   UNL     1      43.934   3.593  13.530  0.00  0.00    +0.000 OA
ATOM     29  C   UNL     1      45.270   5.468  12.982  0.00  0.00    +0.000 A 
ATOM     30  H   UNL     1      42.232   4.602  12.069  0.00  0.00    +0.000 HD
ENDBRANCH  17  20
ENDBRANCH   1  16
TORSDOF 5
ENDMDL
MODEL 8
REMARK VINA RESULT:    -7.229      2.292      3.414
REMARK INTER + INTRA:         -10.118
REMARK INTER:                  -9.979
REMARK INTRA:                  -0.139
REMARK UNBOUND:                -0.776
REMARK  Name = 
REMARK  6 active torsions:
REMARK  status: ('A' for Active; 'I' for Inactive)
REMARK    1  A    between atoms: C_1  and  C_2
REMARK    2  A    between atoms: C_6  and  C_7
REMARK    3  A    between atoms: C_7  and  C_8
REMARK    4  A    between atoms: C_11  and  C_12
REMARK    5  A    between atoms: C_12  and  N_13
REMARK    6  A    between atoms: C_14  and  C_16
REMARK                            x       y       z     vdW  Elec       q    Type
REMARK                         _______ _______ _______ _____ _____    ______ ____
ROOT
ATOM      1  C   UNL     1      46.305   7.891  13.247  0.00  0.00    +0.000 C 
ENDROOT
BRANCH   1   5
ATOM      2  C   UNL     1      44.678   4.866  10.607  0.00  0.00    +0.000 A 
ATOM      3  C   UNL     1      45.839   5.567  10.255  0.00  0.00    +0.000 A 
ATOM      4  C   UNL     1      46.352   6.562  11.094  0.00  0.00    +0.000 A 
ATOM      5  C   UNL     1      45.728   6.860  12.313  0.00  0.00    +0.000 A 
ATOM      6  C   UNL     1      44.542   6.191  12.642  0.00  0.00    +0.000 A 
ATOM      7  C   UNL     1      44.024   5.204  11.800  0.00  0.00    +0.000 A 
BRANCH   2   8
ATOM      8  C   UNL     1      44.167   3.740   9.733  0.00  0.00    +0.000 C 
BRANCH   8  14
ATOM      9  C   UNL     1      46.833  -0.017   7.695  0.00  0.00    +0.000 C 
ATOM     10  C   UNL     1      46.429   1.424   7.723  0.00  0.00    +0.000 A 
ATOM     11  C   UNL     1      46.933   2.340   6.804  0.00  0.00    +0.000 A 
ATOM     12  C   UNL     1      46.521   3.660   6.889  0.00  0.00    +0.000 A 
ATOM     13  N   UNL     1      45.650   4.122   7.819  0.00  0.00    +0.000 NA
ATOM     14  C   UNL     1      45.164   3.227   8.716  0.00  0.00    +0.000 A 
ATOM     15  C   UNL     1      45.523   1.880   8.689  0.00  0.00    +0.000 A 
ENDBRANCH   8  14
ENDBRANCH   2   8
ENDBRANCH   1   5
BRANCH   1  16
ATOM     16  N   UNL     1      47.360   7.339  14.054  0.00  0.00    +0.000 N 
ATOM     17  C   UNL     1      48.255   8.151  14.706  0.00  0.00    +0.000 C 
ATOM     18  O   UNL     1      48.175   9.374  14.670  0.00  0.00    +0.000 OA
ATOM     19  H   UNL     1      47.584   6.360  13.911  0.00  0.00    +0.000 HD
BRANCH  17  20
ATOM     20  C   UNL     1      49.279   7.470  15.508  0.00  0.00    +0.000 A 
ATOM     21  C   UNL     1      48.904   6.728  16.620  0.00  0.00    +0.000 A 
ATOM     22  S   UNL     1      50.210   5.941  17.384  0.00  0.00    +0.000 S 
ATOM     23  C   UNL     1      51.327   6.608  16.288  0.00  0.00    +0.000 A 
ATOM     24  N   UNL     1      52.658   6.342  16.391  0.00  0.00    +0.000 NA
ATOM     25  C   UNL     1      53.391   6.940  15.513  0.00  0.00    +0.000 A 
ATOM     26  N   UNL     1      52.915   7.786  14.544  0.00  0.00    +0.000 N 
ATOM     27  C   UNL     1      51.581   8.066  14.389  0.00  0.00    +0.000 A 
ATOM     28  O   UNL     1      51.186   8.801  13.489  0.00  0.00    +0.000 OA
ATOM     29  C   UNL     1      50.712   7.417  15.349  0.00  0.00    +0.000 A 
ATOM     30  H   UNL     1      53.544   8.223  13.885  0.00  0.00    +0.000 HD
ENDBRANCH  17  20
ENDBRANCH   1  16
TORSDOF 5
ENDMDL
MODEL 9
REMARK VINA RESULT:    -7.210      3.977      8.714
REMARK INTER + INTRA:         -10.093
REMARK INTER:                  -9.226
REMARK INTRA:                  -0.867
REMARK UNBOUND:                -0.776
REMARK  Name = 
REMARK  6 active torsions:
REMARK  status: ('A' for Active; 'I' for Inactive)
REMARK    1  A    between atoms: C_1  and  C_2
REMARK    2  A    between atoms: C_6  and  C_7
REMARK    3  A    between atoms: C_7  and  C_8
REMARK    4  A    between atoms: C_11  and  C_12
REMARK    5  A    between atoms: C_12  and  N_13
REMARK    6  A    between atoms: C_14  and  C_16
REMARK                            x       y       z     vdW  Elec       q    Type
REMARK                         _______ _______ _______ _____ _____    ______ ____
ROOT
ATOM      1  C   UNL     1      47.301   3.501  16.637  0.00  0.00    +0.000 C 
ENDROOT
BRANCH   1   5
ATOM      2  C   UNL     1      51.318   4.584  17.842  0.00  0.00    +0.000 A 
ATOM      3  C   UNL     1      50.385   5.575  17.506  0.00  0.00    +0.000 A 
ATOM      4  C   UNL     1      49.096   5.226  17.092  0.00  0.00    +0.000 A 
ATOM      5  C   UNL     1      48.705   3.882  17.028  0.00  0.00    +0.000 A 
ATOM      6  C   UNL     1      49.651   2.892  17.320  0.00  0.00    +0.000 A 
ATOM      7  C   UNL     1      50.943   3.239  17.723  0.00  0.00    +0.000 A 
BRANCH   2   8
ATOM      8  C   UNL     1      52.690   4.965  18.359  0.00  0.00    +0.000 C 
BRANCH   8  14
ATOM      9  C   UNL     1      54.590   7.267  14.301  0.00  0.00    +0.000 C 
ATOM     10  C   UNL     1      54.678   6.208  15.355  0.00  0.00    +0.000 A 
ATOM     11  C   UNL     1      55.751   5.321  15.409  0.00  0.00    +0.000 A 
ATOM     12  C   UNL     1      55.768   4.362  16.409  0.00  0.00    +0.000 A 
ATOM     13  N   UNL     1      54.799   4.231  17.348  0.00  0.00    +0.000 NA
ATOM     14  C   UNL     1      53.754   5.094  17.290  0.00  0.00    +0.000 A 
ATOM     15  C   UNL     1      53.670   6.093  16.320  0.00  0.00    +0.000 A 
ENDBRANCH   8  14
ENDBRANCH   2   8
ENDBRANCH   1   5
BRANCH   1  16
ATOM     16  N   UNL     1      46.736   4.449  15.714  0.00  0.00    +0.000 N 
ATOM     17  C   UNL     1      46.743   4.215  14.361  0.00  0.00    +0.000 C 
ATOM     18  O   UNL     1      47.187   3.179  13.879  0.00  0.00    +0.000 OA
ATOM     19  H   UNL     1      46.582   5.391  16.059  0.00  0.00    +0.000 HD
BRANCH  17  20
ATOM     20  C   UNL     1      46.126   5.251  13.524  0.00  0.00    +0.000 A 
ATOM     21  C   UNL     1      46.814   6.429  13.262  0.00  0.00    +0.000 A 
ATOM     22  S   UNL     1      45.983   7.481  12.208  0.00  0.00    +0.000 S 
ATOM     23  C   UNL     1      44.653   6.425  12.111  0.00  0.00    +0.000 A 
ATOM     24  N   UNL     1      43.559   6.740  11.363  0.00  0.00    +0.000 NA
ATOM     25  C   UNL     1      42.614   5.861  11.406  0.00  0.00    +0.000 A 
ATOM     26  N   UNL     1      42.659   4.700  12.133  0.00  0.00    +0.000 N 
ATOM     27  C   UNL     1      43.748   4.332  12.882  0.00  0.00    +0.000 A 
ATOM     28  O   UNL     1      43.770   3.268  13.494  0.00  0.00    +0.000 OA
ATOM     29  C   UNL     1      44.841   5.282  12.867  0.00  0.00    +0.000 A 
ATOM     30  H   UNL     1      41.884   4.052  12.123  0.00  0.00    +0.000 HD
ENDBRANCH  17  20
ENDBRANCH   1  16
TORSDOF 5
ENDMDL
