MODEL 1
REMARK VINA RESULT:    -8.874      0.000      0.000
REMARK INTER + INTRA:         -11.749
REMARK INTER:                 -10.950
REMARK INTRA:                  -0.799
REMARK UNBOUND:                -0.799
REMARK  Name = 
REMARK  4 active torsions:
REMARK  status: ('A' for Active; 'I' for Inactive)
REMARK    1  A    between atoms: C_2  and  C_4
REMARK    2  A    between atoms: N_8  and  C_9
REMARK    3  A    between atoms: C_9  and  C_10
REMARK    4  A    between atoms: C_14  and  C_15
REMARK                            x       y       z     vdW  Elec       q    Type
REMARK                         _______ _______ _______ _____ _____    ______ ____
ROOT
ATOM      1  C   UNL     1      46.360   2.274   7.646  0.00  0.00    +0.000 A 
ATOM      2  C   UNL     1      45.684   1.821   8.773  0.00  0.00    +0.000 A 
ATOM      3  C   UNL     1      44.848   2.700   9.465  0.00  0.00    +0.000 A 
ATOM      4  C   UNL     1      44.712   4.016   9.026  0.00  0.00    +0.000 A 
ATOM      5  N   UNL     1      43.864   4.931   9.605  0.00  0.00    +0.000 N 
ATOM      6  N   UNL     1      45.371   4.464   7.939  0.00  0.00    +0.000 NA
ATOM      7  C   UNL     1      46.183   3.597   7.279  0.00  0.00    +0.000 A 
ATOM      8  H   UNL     1      43.991   5.835   9.159  0.00  0.00    +0.000 HD
ENDROOT
BRANCH   1  10
ATOM      9  N   UNL     1      48.346   2.013   6.267  0.00  0.00    +0.000 N 
ATOM     10  C   UNL     1      47.260   1.417   6.847  0.00  0.00    +0.000 C 
ATOM     11  O   UNL     1      47.063   0.214   6.733  0.00  0.00    +0.000 OA
ATOM     12  H   UNL     1      49.004   1.395   5.810  0.00  0.00    +0.000 HD
ATOM     13  H   UNL     1      48.681   2.924   6.547  0.00  0.00    +0.000 HD
ENDBRANCH   1  10
BRANCH   5  14
ATOM     14  C   UNL     1      43.575   4.968  11.023  0.00  0.00    +0.000 C 
BRANCH  14  15
ATOM     15  C   UNL     1      44.772   5.186  11.927  0.00  0.00    +0.000 A 
ATOM     16  C   UNL     1      45.203   4.269  12.891  0.00  0.00    +0.000 A 
ATOM     17  C   UNL     1      46.338   4.534  13.656  0.00  0.00    +0.000 A 
ATOM     18  C   UNL     1      47.062   5.712  13.458  0.00  0.00    +0.000 A 
ATOM     19  C   UNL     1      46.686   6.651  12.484  0.00  0.00    +0.000 A 
ATOM     20  C   UNL     1      45.517   6.374  11.749  0.00  0.00    +0.000 A 
BRANCH  19  21
ATOM     21  C   UNL     1      47.520   7.844  12.206  0.00  0.00    +0.000 A 
ATOM     22  C   UNL     1      48.880   7.710  11.886  0.00  0.00    +0.000 A 
ATOM     23  C   UNL     1      49.636   8.836  11.605  0.00  0.00    +0.000 A 
ATOM     24  N   UNL     1      49.143  10.091  11.606  0.00  0.00    +0.000 NA
ATOM     25  C   UNL     1      47.834  10.215  11.907  0.00  0.00    +0.000 A 
ATOM     26  C   UNL     1      47.000   9.147  12.210  0.00  0.00    +0.000 A 
ENDBRANCH  19  21
ENDBRANCH  14  15
ENDBRANCH   5  14
TORSDOF 4
ENDMDL
MODEL 2
REMARK VINA RESULT:    -8.301      2.075      3.353
REMARK INTER + INTRA:         -11.041
REMARK INTER:                 -10.258
REMARK INTRA:                  -0.783
REMARK UNBOUND:                -0.799
REMARK  Name = 
REMARK  4 active torsions:
REMARK  status: ('A' for Active; 'I' for Inactive)
REMARK    1  A    between atoms: C_2  and  C_4
REMARK    2  A    between atoms: N_8  and  C_9
REMARK    3  A    between atoms: C_9  and  C_10
REMARK    4  A    between atoms: C_14  and  C_15
REMARK                            x       y       z     vdW  Elec       q    Type
REMARK                         _______ _______ _______ _____ _____    ______ ____
ROOT
ATOM      1  C   UNL     1      46.384   2.261   7.685  0.00  0.00    +0.000 A 
ATOM      2  C   UNL     1      45.837   1.889   8.908  0.00  0.00    +0.000 A 
ATOM      3  C   UNL     1      44.997   2.781   9.578  0.00  0.00    +0.000 A 
ATOM      4  C   UNL     1      44.728   4.031   9.021  0.00  0.00    +0.000 A 
ATOM      5  N   UNL     1      43.865   4.945   9.576  0.00  0.00    +0.000 N 
ATOM      6  N   UNL     1      45.262   4.402   7.841  0.00  0.00    +0.000 NA
ATOM      7  C   UNL     1      46.081   3.523   7.203  0.00  0.00    +0.000 A 
ATOM      8  H   UNL     1      43.887   5.803   9.032  0.00  0.00    +0.000 HD
ENDROOT
BRANCH   1  10
ATOM      9  N   UNL     1      48.410   1.946   6.378  0.00  0.00    +0.000 N 
ATOM     10  C   UNL     1      47.278   1.385   6.901  0.00  0.00    +0.000 C 
ATOM     11  O   UNL     1      47.034   0.194   6.750  0.00  0.00    +0.000 OA
ATOM     12  H   UNL     1      49.059   1.310   5.932  0.00  0.00    +0.000 HD
ATOM     13  H   UNL     1      48.773   2.834   6.693  0.00  0.00    +0.000 HD
ENDBRANCH   1  10
BRANCH   5  14
ATOM     14  C   UNL     1      43.689   5.115  11.004  0.00  0.00    +0.000 C 
BRANCH  14  15
ATOM     15  C   UNL     1      44.768   5.918  11.703  0.00  0.00    +0.000 A 
ATOM     16  C   UNL     1      45.013   7.274  11.465  0.00  0.00    +0.000 A 
ATOM     17  C   UNL     1      46.004   7.945  12.181  0.00  0.00    +0.000 A 
ATOM     18  C   UNL     1      46.751   7.274  13.150  0.00  0.00    +0.000 A 
ATOM     19  C   UNL     1      46.524   5.919  13.445  0.00  0.00    +0.000 A 
ATOM     20  C   UNL     1      45.541   5.257  12.685  0.00  0.00    +0.000 A 
BRANCH  19  21
ATOM     21  C   UNL     1      47.246   5.243  14.549  0.00  0.00    +0.000 A 
ATOM     22  C   UNL     1      48.087   5.968  15.407  0.00  0.00    +0.000 A 
ATOM     23  C   UNL     1      48.733   5.322  16.448  0.00  0.00    +0.000 A 
ATOM     24  N   UNL     1      48.600   4.007  16.712  0.00  0.00    +0.000 NA
ATOM     25  C   UNL     1      47.784   3.315  15.890  0.00  0.00    +0.000 A 
ATOM     26  C   UNL     1      47.103   3.873  14.818  0.00  0.00    +0.000 A 
ENDBRANCH  19  21
ENDBRANCH  14  15
ENDBRANCH   5  14
TORSDOF 4
ENDMDL
MODEL 3
REMARK VINA RESULT:    -7.740      2.394      3.162
REMARK INTER + INTRA:         -10.349
REMARK INTER:                  -9.796
REMARK INTRA:                  -0.554
REMARK UNBOUND:                -0.799
REMARK  Name = 
REMARK  4 active torsions:
REMARK  status: ('A' for Active; 'I' for Inactive)
REMARK    1  A    between atoms: C_2  and  C_4
REMARK    2  A    between atoms: N_8  and  C_9
REMARK    3  A    between atoms: C_9  and  C_10
REMARK    4  A    between atoms: C_14  and  C_15
REMARK                            x       y       z     vdW  Elec       q    Type
REMARK                         _______ _______ _______ _____ _____    ______ ____
ROOT
ATOM      1  C   UNL     1      46.686   2.454   7.199  0.00  0.00    +0.000 A 
ATOM      2  C   UNL     1      46.357   3.669   7.789  0.00  0.00    +0.000 A 
ATOM      3  C   UNL     1      45.566   3.677   8.939  0.00  0.00    +0.000 A 
ATOM      4  C   UNL     1      45.108   2.473   9.472  0.00  0.00    +0.000 A 
ATOM      5  N   UNL     1      44.379   2.380  10.635  0.00  0.00    +0.000 N 
ATOM      6  N   UNL     1      45.415   1.291   8.902  0.00  0.00    +0.000 NA
ATOM      7  C   UNL     1      46.184   1.302   7.781  0.00  0.00    +0.000 A 
ATOM      8  H   UNL     1      44.102   1.414  10.781  0.00  0.00    +0.000 HD
ENDROOT
BRANCH   1  10
ATOM      9  N   UNL     1      47.303   3.253   4.987  0.00  0.00    +0.000 N 
ATOM     10  C   UNL     1      47.521   2.345   5.986  0.00  0.00    +0.000 C 
ATOM     11  O   UNL     1      48.398   1.495   5.888  0.00  0.00    +0.000 OA
ATOM     12  H   UNL     1      47.950   3.227   4.210  0.00  0.00    +0.000 HD
ATOM     13  H   UNL     1      46.786   4.109   5.134  0.00  0.00    +0.000 HD
ENDBRANCH   1  10
BRANCH   5  14
ATOM     14  C   UNL     1      43.420   3.378  11.059  0.00  0.00    +0.000 C 
BRANCH  14  15
ATOM     15  C   UNL     1      44.011   4.691  11.533  0.00  0.00    +0.000 A 
ATOM     16  C   UNL     1      43.518   5.948  11.169  0.00  0.00    +0.000 A 
ATOM     17  C   UNL     1      44.100   7.107  11.680  0.00  0.00    +0.000 A 
ATOM     18  C   UNL     1      45.172   7.023  12.571  0.00  0.00    +0.000 A 
ATOM     19  C   UNL     1      45.685   5.784  12.988  0.00  0.00    +0.000 A 
ATOM     20  C   UNL     1      45.101   4.631  12.431  0.00  0.00    +0.000 A 
BRANCH  19  21
ATOM     21  C   UNL     1      46.750   5.701  14.016  0.00  0.00    +0.000 A 
ATOM     22  C   UNL     1      46.828   4.599  14.882  0.00  0.00    +0.000 A 
ATOM     23  C   UNL     1      47.845   4.529  15.820  0.00  0.00    +0.000 A 
ATOM     24  N   UNL     1      48.803   5.467  15.958  0.00  0.00    +0.000 NA
ATOM     25  C   UNL     1      48.730   6.521  15.119  0.00  0.00    +0.000 A 
ATOM     26  C   UNL     1      47.744   6.682  14.155  0.00  0.00    +0.000 A 
ENDBRANCH  19  21
ENDBRANCH  14  15
ENDBRANCH   5  14
TORSDOF 4
ENDMDL
MODEL 4
REMARK VINA RESULT:    -7.326      3.357      7.308
REMARK INTER + INTRA:          -9.838
REMARK INTER:                  -9.344
REMARK INTRA:                  -0.494
REMARK UNBOUND:                -0.799
REMARK  Name = 
REMARK  4 active torsions:
REMARK  status: ('A' for Active; 'I' for Inactive)
REMARK    1  A    between atoms: C_2  and  C_4
REMARK    2  A    between atoms: N_8  and  C_9
REMARK    3  A    between atoms: C_9  and  C_10
REMARK    4  A    between atoms: C_14  and  C_15
REMARK                            x       y       z     vdW  Elec       q    Type
REMARK                         _______ _______ _______ _____ _____    ______ ____
ROOT
ATOM      1  C   UNL     1      48.013   5.637  15.336  0.00  0.00    +0.000 A 
ATOM      2  C   UNL     1      47.034   4.824  14.777  0.00  0.00    +0.000 A 
ATOM      3  C   UNL     1      46.431   5.210  13.577  0.00  0.00    +0.000 A 
ATOM      4  C   UNL     1      46.808   6.405  12.966  0.00  0.00    +0.000 A 
ATOM      5  N   UNL     1      46.316   6.832  11.755  0.00  0.00    +0.000 N 
ATOM      6  N   UNL     1      47.750   7.202  13.507  0.00  0.00    +0.000 NA
ATOM      7  C   UNL     1      48.325   6.813  14.676  0.00  0.00    +0.000 A 
ATOM      8  H   UNL     1      46.683   7.757  11.551  0.00  0.00    +0.000 HD
ENDROOT
BRANCH   1  10
ATOM      9  N   UNL     1      47.949   5.203  17.728  0.00  0.00    +0.000 N 
ATOM     10  C   UNL     1      48.710   5.310  16.596  0.00  0.00    +0.000 C 
ATOM     11  O   UNL     1      49.918   5.110  16.625  0.00  0.00    +0.000 OA
ATOM     12  H   UNL     1      48.427   4.880  18.559  0.00  0.00    +0.000 HD
ATOM     13  H   UNL     1      46.944   5.101  17.700  0.00  0.00    +0.000 HD
ENDBRANCH   1  10
BRANCH   5  14
ATOM     14  C   UNL     1      44.961   6.583  11.309  0.00  0.00    +0.000 C 
BRANCH  14  15
ATOM     15  C   UNL     1      44.648   5.145  10.944  0.00  0.00    +0.000 A 
ATOM     16  C   UNL     1      43.642   4.385  11.548  0.00  0.00    +0.000 A 
ATOM     17  C   UNL     1      43.397   3.079  11.125  0.00  0.00    +0.000 A 
ATOM     18  C   UNL     1      44.145   2.523  10.086  0.00  0.00    +0.000 A 
ATOM     19  C   UNL     1      45.148   3.256   9.429  0.00  0.00    +0.000 A 
ATOM     20  C   UNL     1      45.397   4.559   9.898  0.00  0.00    +0.000 A 
BRANCH  19  21
ATOM     21  C   UNL     1      45.862   2.697   8.255  0.00  0.00    +0.000 A 
ATOM     22  C   UNL     1      46.161   3.504   7.146  0.00  0.00    +0.000 A 
ATOM     23  C   UNL     1      46.851   2.970   6.071  0.00  0.00    +0.000 A 
ATOM     24  N   UNL     1      47.279   1.693   6.014  0.00  0.00    +0.000 NA
ATOM     25  C   UNL     1      46.997   0.923   7.085  0.00  0.00    +0.000 A 
ATOM     26  C   UNL     1      46.304   1.367   8.203  0.00  0.00    +0.000 A 
ENDBRANCH  19  21
ENDBRANCH  14  15
ENDBRANCH   5  14
TORSDOF 4
ENDMDL
MODEL 5
REMARK VINA RESULT:    -7.031      1.577      2.263
REMARK INTER + INTRA:          -9.474
REMARK INTER:                  -8.862
REMARK INTRA:                  -0.612
REMARK UNBOUND:                -0.799
REMARK  Name = 
REMARK  4 active torsions:
REMARK  status: ('A' for Active; 'I' for Inactive)
REMARK    1  A    between atoms: C_2  and  C_4
REMARK    2  A    between atoms: N_8  and  C_9
REMARK    3  A    between atoms: C_9  and  C_10
REMARK    4  A    between atoms: C_14  and  C_15
REMARK                            x       y       z     vdW  Elec       q    Type
REMARK                         _______ _______ _______ _____ _____    ______ ____
ROOT
ATOM      1  C   UNL     1      46.411   2.080   7.943  0.00  0.00    +0.000 A 
ATOM      2  C   UNL     1      45.672   1.944   9.113  0.00  0.00    +0.000 A 
ATOM      3  C   UNL     1      45.123   3.081   9.709  0.00  0.00    +0.000 A 
ATOM      4  C   UNL     1      45.331   4.333   9.133  0.00  0.00    +0.000 A 
ATOM      5  N   UNL     1      44.777   5.497   9.613  0.00  0.00    +0.000 N 
ATOM      6  N   UNL     1      46.054   4.475   8.005  0.00  0.00    +0.000 NA
ATOM      7  C   UNL     1      46.584   3.358   7.439  0.00  0.00    +0.000 A 
ATOM      8  H   UNL     1      45.128   6.283   9.074  0.00  0.00    +0.000 HD
ENDROOT
BRANCH   1  10
ATOM      9  N   UNL     1      46.636  -0.319   7.617  0.00  0.00    +0.000 N 
ATOM     10  C   UNL     1      47.025   0.937   7.239  0.00  0.00    +0.000 C 
ATOM     11  O   UNL     1      47.827   1.103   6.328  0.00  0.00    +0.000 OA
ATOM     12  H   UNL     1      46.990  -1.084   7.057  0.00  0.00    +0.000 HD
ATOM     13  H   UNL     1      45.805  -0.489   8.165  0.00  0.00    +0.000 HD
ENDBRANCH   1  10
BRANCH   5  14
ATOM     14  C   UNL     1      44.550   5.754  11.020  0.00  0.00    +0.000 C 
BRANCH  14  15
ATOM     15  C   UNL     1      45.159   7.035  11.555  0.00  0.00    +0.000 A 
ATOM     16  C   UNL     1      44.412   8.136  11.988  0.00  0.00    +0.000 A 
ATOM     17  C   UNL     1      45.053   9.262  12.501  0.00  0.00    +0.000 A 
ATOM     18  C   UNL     1      46.446   9.297  12.600  0.00  0.00    +0.000 A 
ATOM     19  C   UNL     1      47.238   8.207  12.206  0.00  0.00    +0.000 A 
ATOM     20  C   UNL     1      46.568   7.095  11.660  0.00  0.00    +0.000 A 
BRANCH  19  21
ATOM     21  C   UNL     1      48.705   8.208  12.416  0.00  0.00    +0.000 A 
ATOM     22  C   UNL     1      49.582   7.923  11.357  0.00  0.00    +0.000 A 
ATOM     23  C   UNL     1      50.951   7.953  11.568  0.00  0.00    +0.000 A 
ATOM     24  N   UNL     1      51.521   8.258  12.751  0.00  0.00    +0.000 NA
ATOM     25  C   UNL     1      50.675   8.539  13.764  0.00  0.00    +0.000 A 
ATOM     26  C   UNL     1      49.292   8.525  13.650  0.00  0.00    +0.000 A 
ENDBRANCH  19  21
ENDBRANCH  14  15
ENDBRANCH   5  14
TORSDOF 4
ENDMDL
MODEL 6
REMARK VINA RESULT:    -6.998      3.101      7.223
REMARK INTER + INTRA:          -9.433
REMARK INTER:                  -8.784
REMARK INTRA:                  -0.649
REMARK UNBOUND:                -0.799
REMARK  Name = 
REMARK  4 active torsions:
REMARK  status: ('A' for Active; 'I' for Inactive)
REMARK    1  A    between atoms: C_2  and  C_4
REMARK    2  A    between atoms: N_8  and  C_9
REMARK    3  A    between atoms: C_9  and  C_10
REMARK    4  A    between atoms: C_14  and  C_15
REMARK                            x       y       z     vdW  Elec       q    Type
REMARK                         _______ _______ _______ _____ _____    ______ ____
ROOT
ATOM      1  C   UNL     1      49.431   7.874  13.296  0.00  0.00    +0.000 A 
ATOM      2  C   UNL     1      48.876   8.297  12.094  0.00  0.00    +0.000 A 
ATOM      3  C   UNL     1      47.536   8.010  11.824  0.00  0.00    +0.000 A 
ATOM      4  C   UNL     1      46.780   7.296  12.752  0.00  0.00    +0.000 A 
ATOM      5  N   UNL     1      45.441   7.024  12.599  0.00  0.00    +0.000 N 
ATOM      6  N   UNL     1      47.314   6.875  13.915  0.00  0.00    +0.000 NA
ATOM      7  C   UNL     1      48.620   7.160  14.162  0.00  0.00    +0.000 A 
ATOM      8  H   UNL     1      45.128   6.434  13.365  0.00  0.00    +0.000 HD
ENDROOT
BRANCH   1  10
ATOM      9  N   UNL     1      51.343   7.437  14.734  0.00  0.00    +0.000 N 
ATOM     10  C   UNL     1      50.835   8.135  13.673  0.00  0.00    +0.000 C 
ATOM     11  O   UNL     1      51.530   8.923  13.043  0.00  0.00    +0.000 OA
ATOM     12  H   UNL     1      52.332   7.554  14.913  0.00  0.00    +0.000 HD
ATOM     13  H   UNL     1      50.898   6.609  15.103  0.00  0.00    +0.000 HD
ENDBRANCH   1  10
BRANCH   5  14
ATOM     14  C   UNL     1      44.818   6.768  11.318  0.00  0.00    +0.000 C 
BRANCH  14  15
ATOM     15  C   UNL     1      44.567   5.308  10.995  0.00  0.00    +0.000 A 
ATOM     16  C   UNL     1      43.597   4.521  11.626  0.00  0.00    +0.000 A 
ATOM     17  C   UNL     1      43.408   3.195  11.242  0.00  0.00    +0.000 A 
ATOM     18  C   UNL     1      44.176   2.642  10.215  0.00  0.00    +0.000 A 
ATOM     19  C   UNL     1      45.143   3.398   9.532  0.00  0.00    +0.000 A 
ATOM     20  C   UNL     1      45.336   4.725   9.962  0.00  0.00    +0.000 A 
BRANCH  19  21
ATOM     21  C   UNL     1      45.876   2.838   8.371  0.00  0.00    +0.000 A 
ATOM     22  C   UNL     1      46.206   1.475   8.321  0.00  0.00    +0.000 A 
ATOM     23  C   UNL     1      46.870   0.966   7.217  0.00  0.00    +0.000 A 
ATOM     24  N   UNL     1      47.225   1.707   6.148  0.00  0.00    +0.000 NA
ATOM     25  C   UNL     1      46.900   3.015   6.197  0.00  0.00    +0.000 A 
ATOM     26  C   UNL     1      46.243   3.616   7.263  0.00  0.00    +0.000 A 
ENDBRANCH  19  21
ENDBRANCH  14  15
ENDBRANCH   5  14
TORSDOF 4
ENDMDL
MODEL 7
REMARK VINA RESULT:    -6.830      4.767      7.914
REMARK INTER + INTRA:          -9.226
REMARK INTER:                  -8.758
REMARK INTRA:                  -0.468
REMARK UNBOUND:                -0.799
REMARK  Name = 
REMARK  4 active torsions:
REMARK  status: ('A' for Active; 'I' for Inactive)
REMARK    1  A    between atoms: C_2  and  C_4
REMARK    2  A    between atoms: N_8  and  C_9
REMARK    3  A    between atoms: C_9  and  C_10
REMARK    4  A    between atoms: C_14  and  C_15
REMARK                            x       y       z     vdW  Elec       q    Type
REMARK                         _______ _______ _______ _____ _____    ______ ____
ROOT
ATOM      1  C   UNL     1      49.632   3.959  17.374  0.00  0.00    +0.000 A 
ATOM      2  C   UNL     1      49.241   5.250  17.036  0.00  0.00    +0.000 A 
ATOM      3  C   UNL     1      48.139   5.430  16.197  0.00  0.00    +0.000 A 
ATOM      4  C   UNL     1      47.456   4.319  15.703  0.00  0.00    +0.000 A 
ATOM      5  N   UNL     1      46.325   4.401  14.925  0.00  0.00    +0.000 N 
ATOM      6  N   UNL     1      47.835   3.065  16.020  0.00  0.00    +0.000 NA
ATOM      7  C   UNL     1      48.911   2.907  16.835  0.00  0.00    +0.000 A 
ATOM      8  H   UNL     1      46.051   3.468  14.631  0.00  0.00    +0.000 HD
ENDROOT
BRANCH   1  10
ATOM      9  N   UNL     1      51.395   2.457  18.115  0.00  0.00    +0.000 N 
ATOM     10  C   UNL     1      50.779   3.670  18.258  0.00  0.00    +0.000 C 
ATOM     11  O   UNL     1      51.186   4.494  19.068  0.00  0.00    +0.000 OA
ATOM     12  H   UNL     1      52.239   2.318  18.656  0.00  0.00    +0.000 HD
ATOM     13  H   UNL     1      51.262   1.873  17.302  0.00  0.00    +0.000 HD
ENDBRANCH   1  10
BRANCH   5  14
ATOM     14  C   UNL     1      46.092   5.455  13.960  0.00  0.00    +0.000 C 
BRANCH  14  15
ATOM     15  C   UNL     1      45.103   5.125  12.861  0.00  0.00    +0.000 A 
ATOM     16  C   UNL     1      43.751   5.485  12.889  0.00  0.00    +0.000 A 
ATOM     17  C   UNL     1      42.917   5.173  11.817  0.00  0.00    +0.000 A 
ATOM     18  C   UNL     1      43.426   4.511  10.698  0.00  0.00    +0.000 A 
ATOM     19  C   UNL     1      44.782   4.153  10.609  0.00  0.00    +0.000 A 
ATOM     20  C   UNL     1      45.594   4.450  11.720  0.00  0.00    +0.000 A 
BRANCH  19  21
ATOM     21  C   UNL     1      45.337   3.549   9.374  0.00  0.00    +0.000 A 
ATOM     22  C   UNL     1      45.400   2.155   9.223  0.00  0.00    +0.000 A 
ATOM     23  C   UNL     1      45.899   1.610   8.051  0.00  0.00    +0.000 A 
ATOM     24  N   UNL     1      46.333   2.345   7.008  0.00  0.00    +0.000 NA
ATOM     25  C   UNL     1      46.264   3.684   7.154  0.00  0.00    +0.000 A 
ATOM     26  C   UNL     1      45.788   4.320   8.292  0.00  0.00    +0.000 A 
ENDBRANCH  19  21
ENDBRANCH  14  15
ENDBRANCH   5  14
TORSDOF 4
ENDMDL
MODEL 8
REMARK VINA RESULT:    -6.806      2.886      7.104
REMARK INTER + INTRA:          -9.196
REMARK INTER:                  -8.696
REMARK INTRA:                  -0.500
REMARK UNBOUND:                -0.799
REMARK  Name = 
REMARK  4 active torsions:
REMARK  status: ('A' for Active; 'I' for Inactive)
REMARK    1  A    between atoms: C_2  and  C_4
REMARK    2  A    between atoms: N_8  and  C_9
REMARK    3  A    between atoms: C_9  and  C_10
REMARK    4  A    between atoms: C_14  and  C_15
REMARK                            x       y       z     vdW  Elec       q    Type
REMARK                         _______ _______ _______ _____ _____    ______ ____
ROOT
ATOM      1  C   UNL     1      47.637   7.542  13.068  0.00  0.00    +0.000 A 
ATOM      2  C   UNL     1      46.252   7.429  13.044  0.00  0.00    +0.000 A 
ATOM      3  C   UNL     1      45.669   6.165  13.160  0.00  0.00    +0.000 A 
ATOM      4  C   UNL     1      46.480   5.038  13.285  0.00  0.00    +0.000 A 
ATOM      5  N   UNL     1      45.995   3.764  13.469  0.00  0.00    +0.000 N 
ATOM      6  N   UNL     1      47.824   5.139  13.300  0.00  0.00    +0.000 NA
ATOM      7  C   UNL     1      48.375   6.376  13.183  0.00  0.00    +0.000 A 
ATOM      8  H   UNL     1      46.769   3.106  13.461  0.00  0.00    +0.000 HD
ENDROOT
BRANCH   1  10
ATOM      9  N   UNL     1      47.750   9.927  13.529  0.00  0.00    +0.000 N 
ATOM     10  C   UNL     1      48.343   8.835  12.958  0.00  0.00    +0.000 C 
ATOM     11  O   UNL     1      49.432   8.923  12.405  0.00  0.00    +0.000 OA
ATOM     12  H   UNL     1      48.294  10.781  13.532  0.00  0.00    +0.000 HD
ATOM     13  H   UNL     1      47.003   9.850  14.205  0.00  0.00    +0.000 HD
ENDBRANCH   1  10
BRANCH   5  14
ATOM     14  C   UNL     1      44.761   3.286  12.882  0.00  0.00    +0.000 C 
BRANCH  14  15
ATOM     15  C   UNL     1      44.551   3.643  11.424  0.00  0.00    +0.000 A 
ATOM     16  C   UNL     1      43.687   4.649  10.979  0.00  0.00    +0.000 A 
ATOM     17  C   UNL     1      43.583   4.936   9.620  0.00  0.00    +0.000 A 
ATOM     18  C   UNL     1      44.348   4.231   8.689  0.00  0.00    +0.000 A 
ATOM     19  C   UNL     1      45.250   3.231   9.087  0.00  0.00    +0.000 A 
ATOM     20  C   UNL     1      45.312   2.938  10.463  0.00  0.00    +0.000 A 
BRANCH  19  21
ATOM     21  C   UNL     1      46.138   2.563   8.106  0.00  0.00    +0.000 A 
ATOM     22  C   UNL     1      46.857   3.313   7.161  0.00  0.00    +0.000 A 
ATOM     23  C   UNL     1      47.700   2.672   6.268  0.00  0.00    +0.000 A 
ATOM     24  N   UNL     1      47.896   1.339   6.247  0.00  0.00    +0.000 NA
ATOM     25  C   UNL     1      47.209   0.622   7.161  0.00  0.00    +0.000 A 
ATOM     26  C   UNL     1      46.336   1.174   8.089  0.00  0.00    +0.000 A 
ENDBRANCH  19  21
ENDBRANCH  14  15
ENDBRANCH   5  14
TORSDOF 4
ENDMDL
MODEL 9
REMARK VINA RESULT:    -6.630      5.401      8.113
REMARK INTER + INTRA:          -8.979
REMARK INTER:                  -8.332
REMARK INTRA:                  -0.647
REMARK UNBOUND:                -0.799
REMARK  Name = 
REMARK  4 active torsions:
REMARK  status: ('A' for Active; 'I' for Inactive)
REMARK    1  A    between atoms: C_2  and  C_4
REMARK    2  A    between atoms: N_8  and  C_9
REMARK    3  A    between atoms: C_9  and  C_10
REMARK    4  A    between atoms: C_14  and  C_15
REMARK                            x       y       z     vdW  Elec       q    Type
REMARK                         _______ _______ _______ _____ _____    ______ ____
ROOT
ATOM      1  C   UNL     1      51.144   2.517  17.416  0.00  0.00    +0.000 A 
ATOM      2  C   UNL     1      51.419   3.876  17.508  0.00  0.00    +0.000 A 
ATOM      3  C   UNL     1      50.436   4.798  17.141  0.00  0.00    +0.000 A 
ATOM      4  C   UNL     1      49.202   4.345  16.677  0.00  0.00    +0.000 A 
ATOM      5  N   UNL     1      48.155   5.177  16.354  0.00  0.00    +0.000 N 
ATOM      6  N   UNL     1      48.931   3.029  16.577  0.00  0.00    +0.000 NA
ATOM      7  C   UNL     1      49.899   2.146  16.936  0.00  0.00    +0.000 A 
ATOM      8  H   UNL     1      47.392   4.624  15.976  0.00  0.00    +0.000 HD
ENDROOT
BRANCH   1  10
ATOM      9  N   UNL     1      51.619   0.252  18.162  0.00  0.00    +0.000 N 
ATOM     10  C   UNL     1      52.116   1.470  17.787  0.00  0.00    +0.000 C 
ATOM     11  O   UNL     1      53.324   1.670  17.732  0.00  0.00    +0.000 OA
ATOM     12  H   UNL     1      52.300  -0.481  18.314  0.00  0.00    +0.000 HD
ATOM     13  H   UNL     1      50.668  -0.029  17.971  0.00  0.00    +0.000 HD
ENDBRANCH   1  10
BRANCH   5  14
ATOM     14  C   UNL     1      48.328   6.489  15.768  0.00  0.00    +0.000 C 
BRANCH  14  15
ATOM     15  C   UNL     1      47.938   6.608  14.308  0.00  0.00    +0.000 A 
ATOM     16  C   UNL     1      48.628   7.386  13.373  0.00  0.00    +0.000 A 
ATOM     17  C   UNL     1      48.222   7.409  12.040  0.00  0.00    +0.000 A 
ATOM     18  C   UNL     1      47.131   6.645  11.622  0.00  0.00    +0.000 A 
ATOM     19  C   UNL     1      46.422   5.826  12.517  0.00  0.00    +0.000 A 
ATOM     20  C   UNL     1      46.832   5.847  13.863  0.00  0.00    +0.000 A 
BRANCH  19  21
ATOM     21  C   UNL     1      45.335   4.936  12.045  0.00  0.00    +0.000 A 
ATOM     22  C   UNL     1      45.131   4.716  10.673  0.00  0.00    +0.000 A 
ATOM     23  C   UNL     1      44.125   3.861  10.254  0.00  0.00    +0.000 A 
ATOM     24  N   UNL     1      43.308   3.195  11.094  0.00  0.00    +0.000 NA
ATOM     25  C   UNL     1      43.511   3.403  12.411  0.00  0.00    +0.000 A 
ATOM     26  C   UNL     1      44.487   4.247  12.925  0.00  0.00    +0.000 A 
ENDBRANCH  19  21
ENDBRANCH  14  15
ENDBRANCH   5  14
TORSDOF 4
ENDMDL
