MODEL 1
REMARK VINA RESULT:    -9.231      0.000      0.000
REMARK INTER + INTRA:         -12.734
REMARK INTER:                 -13.008
REMARK INTRA:                   0.274
REMARK UNBOUND:                 0.274
REMARK  Name = 
REMARK  7 active torsions:
REMARK  status: ('A' for Active; 'I' for Inactive)
REMARK    1  A    between atoms: C_2  and  C_4
REMARK    2  A    between atoms: N_8  and  C_9
REMARK    3  A    between atoms: C_9  and  C_10
REMARK    4  A    between atoms: C_10  and  C_13
REMARK    5  A    between atoms: C_17  and  N_18
REMARK    6  A    between atoms: N_18  and  C_19
REMARK    7  A    between atoms: N_21  and  C_22
REMARK                            x       y       z     vdW  Elec       q    Type
REMARK                         _______ _______ _______ _____ _____    ______ ____
ROOT
ATOM      1  C   UNL     1      43.345   5.438  12.080  0.00  0.00    +0.000 C 
ATOM      2  F   UNL     1      42.831   6.664  11.726  0.00  0.00    +0.000 F 
ATOM      3  F   UNL     1      42.512   4.987  13.068  0.00  0.00    +0.000 F 
ENDROOT
BRANCH   1   4
ATOM      4  C   UNL     1      44.768   5.572  12.597  0.00  0.00    +0.000 A 
ATOM      5  C   UNL     1      45.556   6.643  12.156  0.00  0.00    +0.000 A 
ATOM      6  C   UNL     1      46.861   6.801  12.628  0.00  0.00    +0.000 A 
ATOM      7  C   UNL     1      47.401   5.886  13.539  0.00  0.00    +0.000 A 
ATOM      8  C   UNL     1      46.639   4.810  13.987  0.00  0.00    +0.000 A 
ATOM      9  C   UNL     1      45.329   4.671  13.518  0.00  0.00    +0.000 A 
BRANCH   8  10
ATOM     10  N   UNL     1      47.081   3.868  14.939  0.00  0.00    +0.000 N 
ATOM     11  H   UNL     1      46.338   3.186  15.107  0.00  0.00    +0.000 HD
BRANCH  10  12
ATOM     12  C   UNL     1      47.859   4.155  16.110  0.00  0.00    +0.000 C 
ATOM     13  C   UNL     1      48.317   2.870  16.841  0.00  0.00    +0.000 C 
ATOM     14  N   UNL     1      47.813   3.417  18.119  0.00  0.00    +0.000 NA
ATOM     15  C   UNL     1      47.050   4.444  17.382  0.00  0.00    +0.000 C 
BRANCH  14  16
ATOM     16  C   UNL     1      48.889   4.002  18.906  0.00  0.00    +0.000 C 
ATOM     17  F   UNL     1      50.111   3.503  18.615  0.00  0.00    +0.000 F 
ATOM     18  F   UNL     1      48.963   5.346  18.766  0.00  0.00    +0.000 F 
ATOM     19  F   UNL     1      48.658   3.757  20.217  0.00  0.00    +0.000 F 
ENDBRANCH  14  16
ENDBRANCH  10  12
ENDBRANCH   8  10
ENDBRANCH   1   4
BRANCH   1  20
ATOM     20  C   UNL     1      43.193   4.510  10.850  0.00  0.00    +0.000 C 
BRANCH  20  25
ATOM     21  C   UNL     1      46.328   2.064   7.873  0.00  0.00    +0.000 A 
ATOM     22  C   UNL     1      46.350   3.374   7.391  0.00  0.00    +0.000 A 
ATOM     23  C   UNL     1      45.560   4.336   8.016  0.00  0.00    +0.000 A 
ATOM     24  C   UNL     1      44.771   3.984   9.107  0.00  0.00    +0.000 A 
ATOM     25  N   UNL     1      43.941   4.968   9.667  0.00  0.00    +0.000 N 
ATOM     26  N   UNL     1      44.733   2.715   9.571  0.00  0.00    +0.000 NA
ATOM     27  C   UNL     1      45.501   1.785   8.946  0.00  0.00    +0.000 A 
ATOM     28  H   UNL     1      44.455   5.828   9.844  0.00  0.00    +0.000 HD
BRANCH  21  30
ATOM     29  N   UNL     1      46.817  -0.304   7.652  0.00  0.00    +0.000 N 
ATOM     30  C   UNL     1      47.119   0.973   7.271  0.00  0.00    +0.000 C 
ATOM     31  O   UNL     1      47.985   1.199   6.436  0.00  0.00    +0.000 OA
ATOM     32  H   UNL     1      47.296  -1.047   7.158  0.00  0.00    +0.000 HD
ATOM     33  H   UNL     1      45.962  -0.542   8.136  0.00  0.00    +0.000 HD
ENDBRANCH  21  30
ENDBRANCH  20  25
ENDBRANCH   1  20
TORSDOF 7
ENDMDL
MODEL 2
REMARK VINA RESULT:    -8.997      1.057      1.306
REMARK INTER + INTRA:         -12.404
REMARK INTER:                 -12.634
REMARK INTRA:                   0.230
REMARK UNBOUND:                 0.274
REMARK  Name = 
REMARK  7 active torsions:
REMARK  status: ('A' for Active; 'I' for Inactive)
REMARK    1  A    between atoms: C_2  and  C_4
REMARK    2  A    between atoms: N_8  and  C_9
REMARK    3  A    between atoms: C_9  and  C_10
REMARK    4  A    between atoms: C_10  and  C_13
REMARK    5  A    between atoms: C_17  and  N_18
REMARK    6  A    between atoms: N_18  and  C_19
REMARK    7  A    between atoms: N_21  and  C_22
REMARK                            x       y       z     vdW  Elec       q    Type
REMARK                         _______ _______ _______ _____ _____    ______ ____
ROOT
ATOM      1  C   UNL     1      43.552   5.918  11.679  0.00  0.00    +0.000 C 
ATOM      2  F   UNL     1      43.219   7.228  11.426  0.00  0.00    +0.000 F 
ATOM      3  F   UNL     1      42.623   5.495  12.591  0.00  0.00    +0.000 F 
ENDROOT
BRANCH   1   4
ATOM      4  C   UNL     1      44.955   5.813  12.253  0.00  0.00    +0.000 A 
ATOM      5  C   UNL     1      45.982   6.584  11.691  0.00  0.00    +0.000 A 
ATOM      6  C   UNL     1      47.277   6.520  12.210  0.00  0.00    +0.000 A 
ATOM      7  C   UNL     1      47.568   5.680  13.290  0.00  0.00    +0.000 A 
ATOM      8  C   UNL     1      46.566   4.900  13.862  0.00  0.00    +0.000 A 
ATOM      9  C   UNL     1      45.270   4.983  13.342  0.00  0.00    +0.000 A 
BRANCH   8  10
ATOM     10  N   UNL     1      46.754   4.062  14.980  0.00  0.00    +0.000 N 
ATOM     11  H   UNL     1      45.845   3.736  15.313  0.00  0.00    +0.000 HD
BRANCH  10  12
ATOM     12  C   UNL     1      47.700   4.271  16.039  0.00  0.00    +0.000 C 
ATOM     13  C   UNL     1      48.209   2.941  16.644  0.00  0.00    +0.000 C 
ATOM     14  N   UNL     1      47.912   3.444  18.002  0.00  0.00    +0.000 NA
ATOM     15  C   UNL     1      47.091   4.527  17.424  0.00  0.00    +0.000 C 
BRANCH  14  16
ATOM     16  C   UNL     1      49.110   3.958  18.650  0.00  0.00    +0.000 C 
ATOM     17  F   UNL     1      50.238   3.291  18.319  0.00  0.00    +0.000 F 
ATOM     18  F   UNL     1      49.326   5.267  18.379  0.00  0.00    +0.000 F 
ATOM     19  F   UNL     1      48.962   3.856  19.992  0.00  0.00    +0.000 F 
ENDBRANCH  14  16
ENDBRANCH  10  12
ENDBRANCH   8  10
ENDBRANCH   1   4
BRANCH   1  20
ATOM     20  C   UNL     1      43.337   5.132  10.362  0.00  0.00    +0.000 C 
BRANCH  20  25
ATOM     21  C   UNL     1      46.496   2.612   7.473  0.00  0.00    +0.000 A 
ATOM     22  C   UNL     1      46.020   1.658   8.374  0.00  0.00    +0.000 A 
ATOM     23  C   UNL     1      45.098   2.046   9.344  0.00  0.00    +0.000 A 
ATOM     24  C   UNL     1      44.661   3.367   9.398  0.00  0.00    +0.000 A 
ATOM     25  N   UNL     1      43.782   3.730  10.429  0.00  0.00    +0.000 N 
ATOM     26  N   UNL     1      45.128   4.300   8.539  0.00  0.00    +0.000 NA
ATOM     27  C   UNL     1      46.034   3.909   7.604  0.00  0.00    +0.000 A 
ATOM     28  H   UNL     1      43.002   3.080  10.497  0.00  0.00    +0.000 HD
BRANCH  21  30
ATOM     29  N   UNL     1      47.514   3.124   5.330  0.00  0.00    +0.000 N 
ATOM     30  C   UNL     1      47.482   2.301   6.421  0.00  0.00    +0.000 C 
ATOM     31  O   UNL     1      48.264   1.367   6.535  0.00  0.00    +0.000 OA
ATOM     32  H   UNL     1      48.260   2.961   4.665  0.00  0.00    +0.000 HD
ATOM     33  H   UNL     1      47.066   4.029   5.316  0.00  0.00    +0.000 HD
ENDBRANCH  21  30
ENDBRANCH  20  25
ENDBRANCH   1  20
TORSDOF 7
ENDMDL
MODEL 3
REMARK VINA RESULT:    -8.290      4.298      9.150
REMARK INTER + INTRA:         -11.408
REMARK INTER:                 -11.911
REMARK INTRA:                   0.504
REMARK UNBOUND:                 0.274
REMARK  Name = 
REMARK  7 active torsions:
REMARK  status: ('A' for Active; 'I' for Inactive)
REMARK    1  A    between atoms: C_2  and  C_4
REMARK    2  A    between atoms: N_8  and  C_9
REMARK    3  A    between atoms: C_9  and  C_10
REMARK    4  A    between atoms: C_10  and  C_13
REMARK    5  A    between atoms: C_17  and  N_18
REMARK    6  A    between atoms: N_18  and  C_19
REMARK    7  A    between atoms: N_21  and  C_22
REMARK                            x       y       z     vdW  Elec       q    Type
REMARK                         _______ _______ _______ _____ _____    ______ ____
ROOT
ATOM      1  C   UNL     1      46.501   6.305  12.543  0.00  0.00    +0.000 C 
ATOM      2  F   UNL     1      45.859   7.335  13.190  0.00  0.00    +0.000 F 
ATOM      3  F   UNL     1      47.186   6.909  11.524  0.00  0.00    +0.000 F 
ENDROOT
BRANCH   1   4
ATOM      4  C   UNL     1      45.503   5.298  11.996  0.00  0.00    +0.000 A 
ATOM      5  C   UNL     1      44.799   4.480  12.890  0.00  0.00    +0.000 A 
ATOM      6  C   UNL     1      43.862   3.558  12.416  0.00  0.00    +0.000 A 
ATOM      7  C   UNL     1      43.622   3.434  11.043  0.00  0.00    +0.000 A 
ATOM      8  C   UNL     1      44.313   4.232  10.135  0.00  0.00    +0.000 A 
ATOM      9  C   UNL     1      45.238   5.160  10.623  0.00  0.00    +0.000 A 
BRANCH   8  10
ATOM     10  N   UNL     1      44.103   4.210   8.741  0.00  0.00    +0.000 N 
ATOM     11  H   UNL     1      43.098   4.202   8.552  0.00  0.00    +0.000 HD
BRANCH  10  12
ATOM     12  C   UNL     1      44.862   3.454   7.786  0.00  0.00    +0.000 C 
ATOM     13  C   UNL     1      45.650   2.297   8.445  0.00  0.00    +0.000 C 
ATOM     14  N   UNL     1      46.879   2.738   7.751  0.00  0.00    +0.000 NA
ATOM     15  C   UNL     1      46.240   4.031   7.436  0.00  0.00    +0.000 C 
BRANCH  14  16
ATOM     16  C   UNL     1      47.123   1.948   6.553  0.00  0.00    +0.000 C 
ATOM     17  F   UNL     1      46.748   0.654   6.667  0.00  0.00    +0.000 F 
ATOM     18  F   UNL     1      46.498   2.450   5.463  0.00  0.00    +0.000 F 
ATOM     19  F   UNL     1      48.450   1.958   6.282  0.00  0.00    +0.000 F 
ENDBRANCH  14  16
ENDBRANCH  10  12
ENDBRANCH   8  10
ENDBRANCH   1   4
BRANCH   1  20
ATOM     20  C   UNL     1      47.528   5.713  13.540  0.00  0.00    +0.000 C 
BRANCH  20  25
ATOM     21  C   UNL     1      49.063   5.190  18.235  0.00  0.00    +0.000 A 
ATOM     22  C   UNL     1      49.185   6.558  17.985  0.00  0.00    +0.000 A 
ATOM     23  C   UNL     1      48.833   7.049  16.730  0.00  0.00    +0.000 A 
ATOM     24  C   UNL     1      48.359   6.179  15.752  0.00  0.00    +0.000 A 
ATOM     25  N   UNL     1      48.077   6.704  14.482  0.00  0.00    +0.000 N 
ATOM     26  N   UNL     1      48.251   4.851  15.981  0.00  0.00    +0.000 NA
ATOM     27  C   UNL     1      48.608   4.385  17.206  0.00  0.00    +0.000 A 
ATOM     28  H   UNL     1      47.496   7.537  14.547  0.00  0.00    +0.000 HD
BRANCH  21  30
ATOM     29  N   UNL     1      48.518   3.717  20.086  0.00  0.00    +0.000 N 
ATOM     30  C   UNL     1      49.423   4.575  19.526  0.00  0.00    +0.000 C 
ATOM     31  O   UNL     1      50.503   4.793  20.059  0.00  0.00    +0.000 OA
ATOM     32  H   UNL     1      48.819   3.225  20.918  0.00  0.00    +0.000 HD
ATOM     33  H   UNL     1      47.743   3.327  19.568  0.00  0.00    +0.000 HD
ENDBRANCH  21  30
ENDBRANCH  20  25
ENDBRANCH   1  20
TORSDOF 7
ENDMDL
MODEL 4
REMARK VINA RESULT:    -8.084      3.431      4.619
REMARK INTER + INTRA:         -11.118
REMARK INTER:                 -11.452
REMARK INTRA:                   0.334
REMARK UNBOUND:                 0.274
REMARK  Name = 
REMARK  7 active torsions:
REMARK  status: ('A' for Active; 'I' for Inactive)
REMARK    1  A    between atoms: C_2  and  C_4
REMARK    2  A    between atoms: N_8  and  C_9
REMARK    3  A    between atoms: C_9  and  C_10
REMARK    4  A    between atoms: C_10  and  C_13
REMARK    5  A    between atoms: C_17  and  N_18
REMARK    6  A    between atoms: N_18  and  C_19
REMARK    7  A    between atoms: N_21  and  C_22
REMARK                            x       y       z     vdW  Elec       q    Type
REMARK                         _______ _______ _______ _____ _____    ______ ____
ROOT
ATOM      1  C   UNL     1      43.421   5.288  12.282  0.00  0.00    +0.000 C 
ATOM      2  F   UNL     1      43.007   6.573  12.020  0.00  0.00    +0.000 F 
ATOM      3  F   UNL     1      42.546   4.830  13.231  0.00  0.00    +0.000 F 
ENDROOT
BRANCH   1   4
ATOM      4  C   UNL     1      44.844   5.271  12.812  0.00  0.00    +0.000 A 
ATOM      5  C   UNL     1      45.461   4.039  13.073  0.00  0.00    +0.000 A 
ATOM      6  C   UNL     1      46.775   3.993  13.544  0.00  0.00    +0.000 A 
ATOM      7  C   UNL     1      47.489   5.175  13.770  0.00  0.00    +0.000 A 
ATOM      8  C   UNL     1      46.897   6.410  13.523  0.00  0.00    +0.000 A 
ATOM      9  C   UNL     1      45.585   6.443  13.039  0.00  0.00    +0.000 A 
BRANCH   8  10
ATOM     10  N   UNL     1      47.554   7.649  13.675  0.00  0.00    +0.000 N 
ATOM     11  H   UNL     1      46.871   8.405  13.589  0.00  0.00    +0.000 HD
BRANCH  10  12
ATOM     12  C   UNL     1      48.842   7.990  13.141  0.00  0.00    +0.000 C 
ATOM     13  C   UNL     1      49.002   9.514  12.923  0.00  0.00    +0.000 C 
ATOM     14  N   UNL     1      49.477   9.266  11.544  0.00  0.00    +0.000 NA
ATOM     15  C   UNL     1      48.971   7.881  11.616  0.00  0.00    +0.000 C 
BRANCH  14  16
ATOM     16  C   UNL     1      50.930   9.310  11.468  0.00  0.00    +0.000 C 
ATOM     17  F   UNL     1      51.403   9.603  10.236  0.00  0.00    +0.000 F 
ATOM     18  F   UNL     1      51.468  10.207  12.326  0.00  0.00    +0.000 F 
ATOM     19  F   UNL     1      51.425   8.097  11.809  0.00  0.00    +0.000 F 
ENDBRANCH  14  16
ENDBRANCH  10  12
ENDBRANCH   8  10
ENDBRANCH   1   4
BRANCH   1  20
ATOM     20  C   UNL     1      43.208   4.469  10.986  0.00  0.00    +0.000 C 
BRANCH  20  25
ATOM     21  C   UNL     1      46.308   2.098   7.913  0.00  0.00    +0.000 A 
ATOM     22  C   UNL     1      46.373   3.431   7.503  0.00  0.00    +0.000 A 
ATOM     23  C   UNL     1      45.602   4.380   8.170  0.00  0.00    +0.000 A 
ATOM     24  C   UNL     1      44.791   3.993   9.233  0.00  0.00    +0.000 A 
ATOM     25  N   UNL     1      43.982   4.968   9.837  0.00  0.00    +0.000 N 
ATOM     26  N   UNL     1      44.711   2.703   9.627  0.00  0.00    +0.000 NA
ATOM     27  C   UNL     1      45.461   1.786   8.961  0.00  0.00    +0.000 A 
ATOM     28  H   UNL     1      44.519   5.803  10.066  0.00  0.00    +0.000 HD
BRANCH  21  30
ATOM     29  N   UNL     1      46.795  -0.265   7.638  0.00  0.00    +0.000 N 
ATOM     30  C   UNL     1      47.074   1.019   7.260  0.00  0.00    +0.000 C 
ATOM     31  O   UNL     1      47.901   1.260   6.390  0.00  0.00    +0.000 OA
ATOM     32  H   UNL     1      47.254  -0.998   7.112  0.00  0.00    +0.000 HD
ATOM     33  H   UNL     1      45.965  -0.512   8.157  0.00  0.00    +0.000 HD
ENDBRANCH  21  30
ENDBRANCH  20  25
ENDBRANCH   1  20
TORSDOF 7
ENDMDL
MODEL 5
REMARK VINA RESULT:    -7.639      4.562      8.435
REMARK INTER + INTRA:         -10.491
REMARK INTER:                 -10.966
REMARK INTRA:                   0.476
REMARK UNBOUND:                 0.274
REMARK  Name = 
REMARK  7 active torsions:
REMARK  status: ('A' for Active; 'I' for Inactive)
REMARK    1  A    between atoms: C_2  and  C_4
REMARK    2  A    between atoms: N_8  and  C_9
REMARK    3  A    between atoms: C_9  and  C_10
REMARK    4  A    between atoms: C_10  and  C_13
REMARK    5  A    between atoms: C_17  and  N_18
REMARK    6  A    between atoms: N_18  and  C_19
REMARK    7  A    between atoms: N_21  and  C_22
REMARK                            x       y       z     vdW  Elec       q    Type
REMARK                         _______ _______ _______ _____ _____    ______ ____
ROOT
ATOM      1  C   UNL     1      46.577   5.563  12.836  0.00  0.00    +0.000 C 
ATOM      2  F   UNL     1      47.635   4.786  13.249  0.00  0.00    +0.000 F 
ATOM      3  F   UNL     1      46.090   6.123  13.986  0.00  0.00    +0.000 F 
ENDROOT
BRANCH   1   4
ATOM      4  C   UNL     1      45.512   4.718  12.157  0.00  0.00    +0.000 A 
ATOM      5  C   UNL     1      44.691   3.895  12.942  0.00  0.00    +0.000 A 
ATOM      6  C   UNL     1      43.693   3.121  12.346  0.00  0.00    +0.000 A 
ATOM      7  C   UNL     1      43.505   3.150  10.960  0.00  0.00    +0.000 A 
ATOM      8  C   UNL     1      44.311   3.955  10.159  0.00  0.00    +0.000 A 
ATOM      9  C   UNL     1      45.299   4.736  10.768  0.00  0.00    +0.000 A 
BRANCH   8  10
ATOM     10  N   UNL     1      44.164   4.084   8.763  0.00  0.00    +0.000 N 
ATOM     11  H   UNL     1      43.172   4.181   8.536  0.00  0.00    +0.000 HD
BRANCH  10  12
ATOM     12  C   UNL     1      44.901   3.359   7.767  0.00  0.00    +0.000 C 
ATOM     13  C   UNL     1      45.747   2.217   8.379  0.00  0.00    +0.000 C 
ATOM     14  N   UNL     1      46.933   2.698   7.637  0.00  0.00    +0.000 NA
ATOM     15  C   UNL     1      46.247   3.977   7.366  0.00  0.00    +0.000 C 
BRANCH  14  16
ATOM     16  C   UNL     1      47.146   1.927   6.421  0.00  0.00    +0.000 C 
ATOM     17  F   UNL     1      46.766   0.634   6.521  0.00  0.00    +0.000 F 
ATOM     18  F   UNL     1      46.498   2.451   5.354  0.00  0.00    +0.000 F 
ATOM     19  F   UNL     1      48.466   1.935   6.121  0.00  0.00    +0.000 F 
ENDBRANCH  14  16
ENDBRANCH  10  12
ENDBRANCH   8  10
ENDBRANCH   1   4
BRANCH   1  20
ATOM     20  C   UNL     1      47.161   6.692  11.951  0.00  0.00    +0.000 C 
BRANCH  20  25
ATOM     21  C   UNL     1      43.333   9.726  11.052  0.00  0.00    +0.000 A 
ATOM     22  C   UNL     1      44.182  10.478  11.865  0.00  0.00    +0.000 A 
ATOM     23  C   UNL     1      45.372   9.906  12.310  0.00  0.00    +0.000 A 
ATOM     24  C   UNL     1      45.701   8.607  11.934  0.00  0.00    +0.000 A 
ATOM     25  N   UNL     1      46.876   8.046  12.455  0.00  0.00    +0.000 N 
ATOM     26  N   UNL     1      44.877   7.867  11.159  0.00  0.00    +0.000 NA
ATOM     27  C   UNL     1      43.715   8.434  10.740  0.00  0.00    +0.000 A 
ATOM     28  H   UNL     1      47.669   8.675  12.341  0.00  0.00    +0.000 HD
BRANCH  21  30
ATOM     29  N   UNL     1      40.908   9.789  11.152  0.00  0.00    +0.000 N 
ATOM     30  C   UNL     1      42.046  10.239  10.543  0.00  0.00    +0.000 C 
ATOM     31  O   UNL     1      41.999  11.061   9.638  0.00  0.00    +0.000 OA
ATOM     32  H   UNL     1      40.041  10.224  10.863  0.00  0.00    +0.000 HD
ATOM     33  H   UNL     1      40.917   9.315  12.045  0.00  0.00    +0.000 HD
ENDBRANCH  21  30
ENDBRANCH  20  25
ENDBRANCH   1  20
TORSDOF 7
ENDMDL
MODEL 6
REMARK VINA RESULT:    -7.580      4.289      7.835
REMARK INTER + INTRA:         -10.407
REMARK INTER:                 -10.468
REMARK INTRA:                   0.061
REMARK UNBOUND:                 0.274
REMARK  Name = 
REMARK  7 active torsions:
REMARK  status: ('A' for Active; 'I' for Inactive)
REMARK    1  A    between atoms: C_2  and  C_4
REMARK    2  A    between atoms: N_8  and  C_9
REMARK    3  A    between atoms: C_9  and  C_10
REMARK    4  A    between atoms: C_10  and  C_13
REMARK    5  A    between atoms: C_17  and  N_18
REMARK    6  A    between atoms: N_18  and  C_19
REMARK    7  A    between atoms: N_21  and  C_22
REMARK                            x       y       z     vdW  Elec       q    Type
REMARK                         _______ _______ _______ _____ _____    ______ ____
ROOT
ATOM      1  C   UNL     1      48.477   8.909  12.352  0.00  0.00    +0.000 C 
ATOM      2  F   UNL     1      49.002   9.779  13.279  0.00  0.00    +0.000 F 
ATOM      3  F   UNL     1      49.263   9.071  11.242  0.00  0.00    +0.000 F 
ENDROOT
BRANCH   1   4
ATOM      4  C   UNL     1      47.030   9.252  12.040  0.00  0.00    +0.000 A 
ATOM      5  C   UNL     1      46.643  10.599  11.994  0.00  0.00    +0.000 A 
ATOM      6  C   UNL     1      45.323  10.944  11.692  0.00  0.00    +0.000 A 
ATOM      7  C   UNL     1      44.370   9.950  11.441  0.00  0.00    +0.000 A 
ATOM      8  C   UNL     1      44.729   8.605  11.486  0.00  0.00    +0.000 A 
ATOM      9  C   UNL     1      46.057   8.273  11.776  0.00  0.00    +0.000 A 
BRANCH   8  10
ATOM     10  N   UNL     1      43.851   7.540  11.201  0.00  0.00    +0.000 N 
ATOM     11  H   UNL     1      42.898   7.901  11.127  0.00  0.00    +0.000 HD
BRANCH  10  12
ATOM     12  C   UNL     1      43.913   6.223  11.767  0.00  0.00    +0.000 C 
ATOM     13  C   UNL     1      44.479   5.181  10.772  0.00  0.00    +0.000 C 
ATOM     14  N   UNL     1      43.333   4.290  11.053  0.00  0.00    +0.000 NA
ATOM     15  C   UNL     1      42.613   5.411  11.687  0.00  0.00    +0.000 C 
BRANCH  14  16
ATOM     16  C   UNL     1      43.688   3.258  12.016  0.00  0.00    +0.000 C 
ATOM     17  F   UNL     1      45.004   2.949  12.025  0.00  0.00    +0.000 F 
ATOM     18  F   UNL     1      43.348   3.592  13.283  0.00  0.00    +0.000 F 
ATOM     19  F   UNL     1      43.013   2.124  11.716  0.00  0.00    +0.000 F 
ENDBRANCH  14  16
ENDBRANCH  10  12
ENDBRANCH   8  10
ENDBRANCH   1   4
BRANCH   1  20
ATOM     20  C   UNL     1      48.694   7.477  12.899  0.00  0.00    +0.000 C 
BRANCH  20  25
ATOM     21  C   UNL     1      48.044   4.515  16.833  0.00  0.00    +0.000 A 
ATOM     22  C   UNL     1      49.033   5.412  17.240  0.00  0.00    +0.000 A 
ATOM     23  C   UNL     1      49.460   6.395  16.350  0.00  0.00    +0.000 A 
ATOM     24  C   UNL     1      48.895   6.475  15.080  0.00  0.00    +0.000 A 
ATOM     25  N   UNL     1      49.398   7.437  14.192  0.00  0.00    +0.000 N 
ATOM     26  N   UNL     1      47.947   5.601  14.673  0.00  0.00    +0.000 NA
ATOM     27  C   UNL     1      47.547   4.641  15.548  0.00  0.00    +0.000 A 
ATOM     28  H   UNL     1      49.449   8.354  14.631  0.00  0.00    +0.000 HD
BRANCH  21  30
ATOM     29  N   UNL     1      48.270   3.125  18.811  0.00  0.00    +0.000 N 
ATOM     30  C   UNL     1      47.538   3.432  17.698  0.00  0.00    +0.000 C 
ATOM     31  O   UNL     1      46.486   2.857  17.452  0.00  0.00    +0.000 OA
ATOM     32  H   UNL     1      47.861   2.453  19.447  0.00  0.00    +0.000 HD
ATOM     33  H   UNL     1      48.993   3.731  19.173  0.00  0.00    +0.000 HD
ENDBRANCH  21  30
ENDBRANCH  20  25
ENDBRANCH   1  20
TORSDOF 7
ENDMDL
MODEL 7
REMARK VINA RESULT:    -7.225      4.726      8.587
REMARK INTER + INTRA:          -9.908
REMARK INTER:                 -10.439
REMARK INTRA:                   0.531
REMARK UNBOUND:                 0.274
REMARK  Name = 
REMARK  7 active torsions:
REMARK  status: ('A' for Active; 'I' for Inactive)
REMARK    1  A    between atoms: C_2  and  C_4
REMARK    2  A    between atoms: N_8  and  C_9
REMARK    3  A    between atoms: C_9  and  C_10
REMARK    4  A    between atoms: C_10  and  C_13
REMARK    5  A    between atoms: C_17  and  N_18
REMARK    6  A    between atoms: N_18  and  C_19
REMARK    7  A    between atoms: N_21  and  C_22
REMARK                            x       y       z     vdW  Elec       q    Type
REMARK                         _______ _______ _______ _____ _____    ______ ____
ROOT
ATOM      1  C   UNL     1      46.349   5.138  13.282  0.00  0.00    +0.000 C 
ATOM      2  F   UNL     1      47.608   4.615  13.104  0.00  0.00    +0.000 F 
ATOM      3  F   UNL     1      46.066   4.919  14.603  0.00  0.00    +0.000 F 
ENDROOT
BRANCH   1   4
ATOM      4  C   UNL     1      45.336   4.436  12.393  0.00  0.00    +0.000 A 
ATOM      5  C   UNL     1      44.415   3.552  12.974  0.00  0.00    +0.000 A 
ATOM      6  C   UNL     1      43.462   2.906  12.183  0.00  0.00    +0.000 A 
ATOM      7  C   UNL     1      43.420   3.125  10.801  0.00  0.00    +0.000 A 
ATOM      8  C   UNL     1      44.328   3.994  10.201  0.00  0.00    +0.000 A 
ATOM      9  C   UNL     1      45.268   4.645  11.005  0.00  0.00    +0.000 A 
BRANCH   8  10
ATOM     10  N   UNL     1      44.330   4.312   8.827  0.00  0.00    +0.000 N 
ATOM     11  H   UNL     1      43.400   4.637   8.555  0.00  0.00    +0.000 HD
BRANCH  10  12
ATOM     12  C   UNL     1      44.993   3.571   7.792  0.00  0.00    +0.000 C 
ATOM     13  C   UNL     1      45.768   2.352   8.346  0.00  0.00    +0.000 C 
ATOM     14  N   UNL     1      46.970   2.773   7.595  0.00  0.00    +0.000 NA
ATOM     15  C   UNL     1      46.372   4.106   7.381  0.00  0.00    +0.000 C 
BRANCH  14  16
ATOM     16  C   UNL     1      47.103   2.032   6.349  0.00  0.00    +0.000 C 
ATOM     17  F   UNL     1      46.792   0.721   6.458  0.00  0.00    +0.000 F 
ATOM     18  F   UNL     1      46.336   2.542   5.357  0.00  0.00    +0.000 F 
ATOM     19  F   UNL     1      48.388   2.105   5.928  0.00  0.00    +0.000 F 
ENDBRANCH  14  16
ENDBRANCH  10  12
ENDBRANCH   8  10
ENDBRANCH   1   4
BRANCH   1  20
ATOM     20  C   UNL     1      46.455   6.666  13.051  0.00  0.00    +0.000 C 
BRANCH  20  25
ATOM     21  C   UNL     1      51.124   8.359  13.058  0.00  0.00    +0.000 A 
ATOM     22  C   UNL     1      50.757   8.374  11.711  0.00  0.00    +0.000 A 
ATOM     23  C   UNL     1      49.480   7.945  11.356  0.00  0.00    +0.000 A 
ATOM     24  C   UNL     1      48.591   7.519  12.339  0.00  0.00    +0.000 A 
ATOM     25  N   UNL     1      47.339   7.036  11.933  0.00  0.00    +0.000 N 
ATOM     26  N   UNL     1      48.944   7.488  13.644  0.00  0.00    +0.000 NA
ATOM     27  C   UNL     1      50.196   7.900  13.975  0.00  0.00    +0.000 A 
ATOM     28  H   UNL     1      46.889   7.675  11.280  0.00  0.00    +0.000 HD
BRANCH  21  30
ATOM     29  N   UNL     1      53.350   7.794  13.848  0.00  0.00    +0.000 N 
ATOM     30  C   UNL     1      52.457   8.780  13.531  0.00  0.00    +0.000 C 
ATOM     31  O   UNL     1      52.765   9.962  13.603  0.00  0.00    +0.000 OA
ATOM     32  H   UNL     1      54.290   8.094  14.073  0.00  0.00    +0.000 HD
ATOM     33  H   UNL     1      53.221   6.831  13.570  0.00  0.00    +0.000 HD
ENDBRANCH  21  30
ENDBRANCH  20  25
ENDBRANCH   1  20
TORSDOF 7
ENDMDL
MODEL 8
REMARK VINA RESULT:    -6.717      4.778      8.439
REMARK INTER + INTRA:          -9.191
REMARK INTER:                  -9.354
REMARK INTRA:                   0.163
REMARK UNBOUND:                 0.274
REMARK  Name = 
REMARK  7 active torsions:
REMARK  status: ('A' for Active; 'I' for Inactive)
REMARK    1  A    between atoms: C_2  and  C_4
REMARK    2  A    between atoms: N_8  and  C_9
REMARK    3  A    between atoms: C_9  and  C_10
REMARK    4  A    between atoms: C_10  and  C_13
REMARK    5  A    between atoms: C_17  and  N_18
REMARK    6  A    between atoms: N_18  and  C_19
REMARK    7  A    between atoms: N_21  and  C_22
REMARK                            x       y       z     vdW  Elec       q    Type
REMARK                         _______ _______ _______ _____ _____    ______ ____
ROOT
ATOM      1  C   UNL     1      49.115   8.487  12.239  0.00  0.00    +0.000 C 
ATOM      2  F   UNL     1      49.930   9.472  12.748  0.00  0.00    +0.000 F 
ATOM      3  F   UNL     1      49.644   8.201  11.009  0.00  0.00    +0.000 F 
ENDROOT
BRANCH   1   4
ATOM      4  C   UNL     1      47.683   8.979  12.106  0.00  0.00    +0.000 A 
ATOM      5  C   UNL     1      47.448  10.343  11.886  0.00  0.00    +0.000 A 
ATOM      6  C   UNL     1      46.143  10.820  11.742  0.00  0.00    +0.000 A 
ATOM      7  C   UNL     1      45.054   9.944  11.824  0.00  0.00    +0.000 A 
ATOM      8  C   UNL     1      45.263   8.585  12.047  0.00  0.00    +0.000 A 
ATOM      9  C   UNL     1      46.574   8.118  12.176  0.00  0.00    +0.000 A 
BRANCH   8  10
ATOM     10  N   UNL     1      44.233   7.623  12.096  0.00  0.00    +0.000 N 
ATOM     11  H   UNL     1      43.702   7.743  12.961  0.00  0.00    +0.000 HD
BRANCH  10  12
ATOM     12  C   UNL     1      44.341   6.252  11.687  0.00  0.00    +0.000 C 
ATOM     13  C   UNL     1      42.962   5.616  11.392  0.00  0.00    +0.000 C 
ATOM     14  N   UNL     1      43.308   4.465  12.254  0.00  0.00    +0.000 NA
ATOM     15  C   UNL     1      44.432   5.231  12.829  0.00  0.00    +0.000 C 
BRANCH  14  16
ATOM     16  C   UNL     1      43.770   3.332  11.466  0.00  0.00    +0.000 C 
ATOM     17  F   UNL     1      43.759   3.555  10.132  0.00  0.00    +0.000 F 
ATOM     18  F   UNL     1      45.025   2.947  11.795  0.00  0.00    +0.000 F 
ATOM     19  F   UNL     1      42.960   2.273  11.702  0.00  0.00    +0.000 F 
ENDBRANCH  14  16
ENDBRANCH  10  12
ENDBRANCH   8  10
ENDBRANCH   1   4
BRANCH   1  20
ATOM     20  C   UNL     1      49.285   7.244  13.146  0.00  0.00    +0.000 C 
BRANCH  20  25
ATOM     21  C   UNL     1      49.338   5.483  17.790  0.00  0.00    +0.000 A 
ATOM     22  C   UNL     1      50.465   6.304  17.723  0.00  0.00    +0.000 A 
ATOM     23  C   UNL     1      50.749   6.963  16.529  0.00  0.00    +0.000 A 
ATOM     24  C   UNL     1      49.910   6.801  15.430  0.00  0.00    +0.000 A 
ATOM     25  N   UNL     1      50.267   7.430  14.228  0.00  0.00    +0.000 N 
ATOM     26  N   UNL     1      48.825   5.997  15.482  0.00  0.00    +0.000 NA
ATOM     27  C   UNL     1      48.565   5.353  16.651  0.00  0.00    +0.000 A 
ATOM     28  H   UNL     1      50.496   8.411  14.377  0.00  0.00    +0.000 HD
BRANCH  21  30
ATOM     29  N   UNL     1      47.812   3.998  18.956  0.00  0.00    +0.000 N 
ATOM     30  C   UNL     1      48.962   4.735  19.005  0.00  0.00    +0.000 C 
ATOM     31  O   UNL     1      49.669   4.743  20.005  0.00  0.00    +0.000 OA
ATOM     32  H   UNL     1      47.619   3.410  19.758  0.00  0.00    +0.000 HD
ATOM     33  H   UNL     1      47.345   3.771  18.089  0.00  0.00    +0.000 HD
ENDBRANCH  21  30
ENDBRANCH  20  25
ENDBRANCH   1  20
TORSDOF 7
ENDMDL
MODEL 9
REMARK VINA RESULT:    -6.652      3.674      6.529
REMARK INTER + INTRA:          -9.101
REMARK INTER:                  -9.415
REMARK INTRA:                   0.314
REMARK UNBOUND:                 0.274
REMARK  Name = 
REMARK  7 active torsions:
REMARK  status: ('A' for Active; 'I' for Inactive)
REMARK    1  A    between atoms: C_2  and  C_4
REMARK    2  A    between atoms: N_8  and  C_9
REMARK    3  A    between atoms: C_9  and  C_10
REMARK    4  A    between atoms: C_10  and  C_13
REMARK    5  A    between atoms: C_17  and  N_18
REMARK    6  A    between atoms: N_18  and  C_19
REMARK    7  A    between atoms: N_21  and  C_22
REMARK                            x       y       z     vdW  Elec       q    Type
REMARK                         _______ _______ _______ _____ _____    ______ ____
ROOT
ATOM      1  C   UNL     1      47.776   4.195  17.140  0.00  0.00    +0.000 C 
ATOM      2  F   UNL     1      46.866   5.002  17.783  0.00  0.00    +0.000 F 
ATOM      3  F   UNL     1      47.817   3.053  17.894  0.00  0.00    +0.000 F 
ENDROOT
BRANCH   1   4
ATOM      4  C   UNL     1      49.145   4.851  17.084  0.00  0.00    +0.000 A 
ATOM      5  C   UNL     1      50.207   4.276  17.795  0.00  0.00    +0.000 A 
ATOM      6  C   UNL     1      51.480   4.848  17.748  0.00  0.00    +0.000 A 
ATOM      7  C   UNL     1      51.709   6.008  16.999  0.00  0.00    +0.000 A 
ATOM      8  C   UNL     1      50.669   6.602  16.289  0.00  0.00    +0.000 A 
ATOM      9  C   UNL     1      49.402   6.011  16.333  0.00  0.00    +0.000 A 
BRANCH   8  10
ATOM     10  N   UNL     1      50.815   7.741  15.471  0.00  0.00    +0.000 N 
ATOM     11  H   UNL     1      50.658   8.580  16.032  0.00  0.00    +0.000 HD
BRANCH  10  12
ATOM     12  C   UNL     1      50.353   7.871  14.118  0.00  0.00    +0.000 C 
ATOM     13  C   UNL     1      51.040   9.040  13.373  0.00  0.00    +0.000 C 
ATOM     14  N   UNL     1      49.717   9.542  12.940  0.00  0.00    +0.000 NA
ATOM     15  C   UNL     1      49.060   8.679  13.941  0.00  0.00    +0.000 C 
BRANCH  14  16
ATOM     16  C   UNL     1      49.412   9.124  11.579  0.00  0.00    +0.000 C 
ATOM     17  F   UNL     1      50.495   8.723  10.876  0.00  0.00    +0.000 F 
ATOM     18  F   UNL     1      48.512   8.114  11.536  0.00  0.00    +0.000 F 
ATOM     19  F   UNL     1      48.864  10.167  10.912  0.00  0.00    +0.000 F 
ENDBRANCH  14  16
ENDBRANCH  10  12
ENDBRANCH   8  10
ENDBRANCH   1   4
BRANCH   1  20
ATOM     20  C   UNL     1      47.175   3.846  15.756  0.00  0.00    +0.000 C 
BRANCH  20  25
ATOM     21  C   UNL     1      45.115   4.170  11.247  0.00  0.00    +0.000 A 
ATOM     22  C   UNL     1      45.394   5.494  11.593  0.00  0.00    +0.000 A 
ATOM     23  C   UNL     1      45.984   5.760  12.826  0.00  0.00    +0.000 A 
ATOM     24  C   UNL     1      46.294   4.711  13.688  0.00  0.00    +0.000 A 
ATOM     25  N   UNL     1      46.829   5.026  14.946  0.00  0.00    +0.000 N 
ATOM     26  N   UNL     1      46.015   3.428  13.367  0.00  0.00    +0.000 NA
ATOM     27  C   UNL     1      45.430   3.184  12.165  0.00  0.00    +0.000 A 
ATOM     28  H   UNL     1      47.605   5.680  14.865  0.00  0.00    +0.000 HD
BRANCH  21  30
ATOM     29  N   UNL     1      44.652   4.634   8.910  0.00  0.00    +0.000 N 
ATOM     30  C   UNL     1      44.480   3.790   9.972  0.00  0.00    +0.000 C 
ATOM     31  O   UNL     1      43.854   2.745   9.856  0.00  0.00    +0.000 OA
ATOM     32  H   UNL     1      44.298   4.313   8.018  0.00  0.00    +0.000 HD
ATOM     33  H   UNL     1      45.353   5.362   8.899  0.00  0.00    +0.000 HD
ENDBRANCH  21  30
ENDBRANCH  20  25
ENDBRANCH   1  20
TORSDOF 7
ENDMDL
