MODEL 1
REMARK VINA RESULT:    -8.701      0.000      0.000
REMARK INTER + INTRA:         -12.639
REMARK INTER:                 -11.753
REMARK INTRA:                  -0.886
REMARK UNBOUND:                -0.886
REMARK  Name = 
REMARK  6 active torsions:
REMARK  status: ('A' for Active; 'I' for Inactive)
REMARK    1  A    between atoms: C_2  and  C_4
REMARK    2  A    between atoms: C_7  and  N_8
REMARK    3  A    between atoms: N_8  and  C_9
REMARK    4  A    between atoms: C_9  and  C_10
REMARK    5  A    between atoms: C_10  and  C_11
REMARK    6  A    between atoms: C_15  and  C_16
REMARK                            x       y       z     vdW  Elec       q    Type
REMARK                         _______ _______ _______ _____ _____    ______ ____
ROOT
ATOM      1  C   UNL     1      43.198   4.291  11.383  0.00  0.00    +0.000 C 
ENDROOT
BRANCH   1   2
ATOM      2  N   UNL     1      43.769   4.776  10.131  0.00  0.00    +0.000 N 
ATOM      3  H   UNL     1      43.162   5.375   9.578  0.00  0.00    +0.000 HD
BRANCH   2   7
ATOM      4  C   UNL     1      46.327   2.327   7.829  0.00  0.00    +0.000 A 
ATOM      5  C   UNL     1      45.455   1.736   8.746  0.00  0.00    +0.000 A 
ATOM      6  C   UNL     1      44.584   2.535   9.498  0.00  0.00    +0.000 A 
ATOM      7  C   UNL     1      44.542   3.925   9.336  0.00  0.00    +0.000 A 
ATOM      8  C   UNL     1      45.426   4.500   8.413  0.00  0.00    +0.000 A 
ATOM      9  C   UNL     1      46.316   3.713   7.669  0.00  0.00    +0.000 A 
BRANCH   4  11
ATOM     10  N   UNL     1      48.409   2.178   6.570  0.00  0.00    +0.000 N 
ATOM     11  C   UNL     1      47.316   1.525   7.063  0.00  0.00    +0.000 C 
ATOM     12  O   UNL     1      47.174   0.319   6.898  0.00  0.00    +0.000 OA
ATOM     13  H   UNL     1      49.112   1.603   6.123  0.00  0.00    +0.000 HD
ATOM     14  H   UNL     1      48.683   3.098   6.885  0.00  0.00    +0.000 HD
ENDBRANCH   4  11
ENDBRANCH   2   7
ENDBRANCH   1   2
BRANCH   1  15
ATOM     15  C   UNL     1      43.344   5.337  12.491  0.00  0.00    +0.000 C 
BRANCH  15  16
ATOM     16  C   UNL     1      44.795   5.578  12.815  0.00  0.00    +0.000 A 
ATOM     17  C   UNL     1      45.539   4.636  13.513  0.00  0.00    +0.000 A 
ATOM     18  N   UNL     1      46.853   4.766  13.778  0.00  0.00    +0.000 NA
ATOM     19  C   UNL     1      47.455   5.897  13.332  0.00  0.00    +0.000 A 
ATOM     20  C   UNL     1      46.825   6.930  12.633  0.00  0.00    +0.000 A 
ATOM     21  C   UNL     1      45.458   6.733  12.378  0.00  0.00    +0.000 A 
BRANCH  20  22
ATOM     22  C   UNL     1      47.543   8.151  12.204  0.00  0.00    +0.000 A 
ATOM     23  C   UNL     1      46.919   9.414  12.202  0.00  0.00    +0.000 A 
ATOM     24  C   UNL     1      47.611  10.572  11.831  0.00  0.00    +0.000 A 
ATOM     25  C   UNL     1      48.943  10.495  11.438  0.00  0.00    +0.000 A 
ATOM     26  C   UNL     1      49.581   9.260  11.414  0.00  0.00    +0.000 A 
ATOM     27  C   UNL     1      48.890   8.105  11.796  0.00  0.00    +0.000 A 
ENDBRANCH  20  22
ENDBRANCH  15  16
ENDBRANCH   1  15
TORSDOF 6
ENDMDL
MODEL 2
REMARK VINA RESULT:    -8.223      2.057      3.875
REMARK INTER + INTRA:         -11.993
REMARK INTER:                 -11.129
REMARK INTRA:                  -0.863
REMARK UNBOUND:                -0.886
REMARK  Name = 
REMARK  6 active torsions:
REMARK  status: ('A' for Active; 'I' for Inactive)
REMARK    1  A    between atoms: C_2  and  C_4
REMARK    2  A    between atoms: C_7  and  N_8
REMARK    3  A    between atoms: N_8  and  C_9
REMARK    4  A    between atoms: C_9  and  C_10
REMARK    5  A    between atoms: C_10  and  C_11
REMARK    6  A    between atoms: C_15  and  C_16
REMARK                            x       y       z     vdW  Elec       q    Type
REMARK                         _______ _______ _______ _____ _____    ______ ____
ROOT
ATOM      1  C   UNL     1      43.494   4.122  11.518  0.00  0.00    +0.000 C 
ENDROOT
BRANCH   1   2
ATOM      2  N   UNL     1      43.560   4.337  10.076  0.00  0.00    +0.000 N 
ATOM      3  H   UNL     1      42.669   4.299   9.589  0.00  0.00    +0.000 HD
BRANCH   2   7
ATOM      4  C   UNL     1      46.515   2.482   7.696  0.00  0.00    +0.000 A 
ATOM      5  C   UNL     1      46.329   3.863   7.605  0.00  0.00    +0.000 A 
ATOM      6  C   UNL     1      45.369   4.494   8.406  0.00  0.00    +0.000 A 
ATOM      7  C   UNL     1      44.599   3.775   9.329  0.00  0.00    +0.000 A 
ATOM      8  C   UNL     1      44.799   2.391   9.405  0.00  0.00    +0.000 A 
ATOM      9  C   UNL     1      45.742   1.745   8.594  0.00  0.00    +0.000 A 
BRANCH   4  11
ATOM     10  N   UNL     1      48.594   2.436   6.424  0.00  0.00    +0.000 N 
ATOM     11  C   UNL     1      47.471   1.763   6.815  0.00  0.00    +0.000 C 
ATOM     12  O   UNL     1      47.279   0.604   6.470  0.00  0.00    +0.000 OA
ATOM     13  H   UNL     1      49.274   1.905   5.894  0.00  0.00    +0.000 HD
ATOM     14  H   UNL     1      48.906   3.285   6.874  0.00  0.00    +0.000 HD
ENDBRANCH   4  11
ENDBRANCH   2   7
ENDBRANCH   1   2
BRANCH   1  15
ATOM     15  C   UNL     1      43.721   5.432  12.277  0.00  0.00    +0.000 C 
BRANCH  15  16
ATOM     16  C   UNL     1      45.180   5.621  12.600  0.00  0.00    +0.000 A 
ATOM     17  C   UNL     1      46.010   6.354  11.764  0.00  0.00    +0.000 A 
ATOM     18  N   UNL     1      47.306   6.609  12.029  0.00  0.00    +0.000 NA
ATOM     19  C   UNL     1      47.802   6.101  13.186  0.00  0.00    +0.000 A 
ATOM     20  C   UNL     1      47.083   5.336  14.109  0.00  0.00    +0.000 A 
ATOM     21  C   UNL     1      45.736   5.112  13.782  0.00  0.00    +0.000 A 
BRANCH  20  22
ATOM     22  C   UNL     1      47.703   4.788  15.337  0.00  0.00    +0.000 A 
ATOM     23  C   UNL     1      48.491   5.588  16.187  0.00  0.00    +0.000 A 
ATOM     24  C   UNL     1      49.045   5.078  17.366  0.00  0.00    +0.000 A 
ATOM     25  C   UNL     1      48.837   3.748  17.718  0.00  0.00    +0.000 A 
ATOM     26  C   UNL     1      48.077   2.930  16.891  0.00  0.00    +0.000 A 
ATOM     27  C   UNL     1      47.514   3.446  15.718  0.00  0.00    +0.000 A 
ENDBRANCH  20  22
ENDBRANCH  15  16
ENDBRANCH   1  15
TORSDOF 6
ENDMDL
MODEL 3
REMARK VINA RESULT:    -7.927      2.931      6.893
REMARK INTER + INTRA:         -11.593
REMARK INTER:                 -10.749
REMARK INTRA:                  -0.845
REMARK UNBOUND:                -0.886
REMARK  Name = 
REMARK  6 active torsions:
REMARK  status: ('A' for Active; 'I' for Inactive)
REMARK    1  A    between atoms: C_2  and  C_4
REMARK    2  A    between atoms: C_7  and  N_8
REMARK    3  A    between atoms: N_8  and  C_9
REMARK    4  A    between atoms: C_9  and  C_10
REMARK    5  A    between atoms: C_10  and  C_11
REMARK    6  A    between atoms: C_15  and  C_16
REMARK                            x       y       z     vdW  Elec       q    Type
REMARK                         _______ _______ _______ _____ _____    ______ ____
ROOT
ATOM      1  C   UNL     1      44.452   6.402  12.742  0.00  0.00    +0.000 C 
ENDROOT
BRANCH   1   2
ATOM      2  N   UNL     1      45.028   7.722  12.973  0.00  0.00    +0.000 N 
ATOM      3  H   UNL     1      44.436   8.508  12.715  0.00  0.00    +0.000 HD
BRANCH   2   7
ATOM      4  C   UNL     1      49.083   8.257  11.917  0.00  0.00    +0.000 A 
ATOM      5  C   UNL     1      48.215   9.350  11.878  0.00  0.00    +0.000 A 
ATOM      6  C   UNL     1      46.873   9.192  12.249  0.00  0.00    +0.000 A 
ATOM      7  C   UNL     1      46.376   7.959  12.690  0.00  0.00    +0.000 A 
ATOM      8  C   UNL     1      47.262   6.874  12.721  0.00  0.00    +0.000 A 
ATOM      9  C   UNL     1      48.601   7.015  12.334  0.00  0.00    +0.000 A 
BRANCH   4  11
ATOM     10  N   UNL     1      51.153   7.202  11.180  0.00  0.00    +0.000 N 
ATOM     11  C   UNL     1      50.494   8.364  11.466  0.00  0.00    +0.000 C 
ATOM     12  O   UNL     1      51.044   9.450  11.330  0.00  0.00    +0.000 OA
ATOM     13  H   UNL     1      52.084   7.296  10.795  0.00  0.00    +0.000 HD
ATOM     14  H   UNL     1      50.674   6.322  11.044  0.00  0.00    +0.000 HD
ENDBRANCH   4  11
ENDBRANCH   2   7
ENDBRANCH   1   2
BRANCH   1  15
ATOM     15  C   UNL     1      44.001   6.250  11.286  0.00  0.00    +0.000 C 
BRANCH  15  16
ATOM     16  C   UNL     1      44.111   4.817  10.836  0.00  0.00    +0.000 A 
ATOM     17  C   UNL     1      43.381   3.813  11.456  0.00  0.00    +0.000 A 
ATOM     18  N   UNL     1      43.390   2.526  11.060  0.00  0.00    +0.000 NA
ATOM     19  C   UNL     1      44.175   2.222   9.995  0.00  0.00    +0.000 A 
ATOM     20  C   UNL     1      44.970   3.129   9.289  0.00  0.00    +0.000 A 
ATOM     21  C   UNL     1      44.911   4.456   9.743  0.00  0.00    +0.000 A 
BRANCH  20  22
ATOM     22  C   UNL     1      45.826   2.716   8.154  0.00  0.00    +0.000 A 
ATOM     23  C   UNL     1      46.137   3.601   7.103  0.00  0.00    +0.000 A 
ATOM     24  C   UNL     1      46.976   3.220   6.050  0.00  0.00    +0.000 A 
ATOM     25  C   UNL     1      47.513   1.938   6.012  0.00  0.00    +0.000 A 
ATOM     26  C   UNL     1      47.211   1.037   7.027  0.00  0.00    +0.000 A 
ATOM     27  C   UNL     1      46.381   1.424   8.085  0.00  0.00    +0.000 A 
ENDBRANCH  20  22
ENDBRANCH  15  16
ENDBRANCH   1  15
TORSDOF 6
ENDMDL
MODEL 4
REMARK VINA RESULT:    -7.865      1.370      2.216
REMARK INTER + INTRA:         -11.510
REMARK INTER:                 -10.764
REMARK INTRA:                  -0.746
REMARK UNBOUND:                -0.886
REMARK  Name = 
REMARK  6 active torsions:
REMARK  status: ('A' for Active; 'I' for Inactive)
REMARK    1  A    between atoms: C_2  and  C_4
REMARK    2  A    between atoms: C_7  and  N_8
REMARK    3  A    between atoms: N_8  and  C_9
REMARK    4  A    between atoms: C_9  and  C_10
REMARK    5  A    between atoms: C_10  and  C_11
REMARK    6  A    between atoms: C_15  and  C_16
REMARK                            x       y       z     vdW  Elec       q    Type
REMARK                         _______ _______ _______ _____ _____    ______ ____
ROOT
ATOM      1  C   UNL     1      43.979   5.080  11.280  0.00  0.00    +0.000 C 
ENDROOT
BRANCH   1   2
ATOM      2  N   UNL     1      43.785   3.930  10.404  0.00  0.00    +0.000 N 
ATOM      3  H   UNL     1      43.342   3.123  10.835  0.00  0.00    +0.000 HD
BRANCH   2   7
ATOM      4  C   UNL     1      46.605   2.680   7.518  0.00  0.00    +0.000 A 
ATOM      5  C   UNL     1      46.325   4.041   7.659  0.00  0.00    +0.000 A 
ATOM      6  C   UNL     1      45.410   4.471   8.628  0.00  0.00    +0.000 A 
ATOM      7  C   UNL     1      44.779   3.566   9.491  0.00  0.00    +0.000 A 
ATOM      8  C   UNL     1      45.072   2.205   9.334  0.00  0.00    +0.000 A 
ATOM      9  C   UNL     1      45.970   1.761   8.355  0.00  0.00    +0.000 A 
BRANCH   4  11
ATOM     10  N   UNL     1      47.767   3.002   5.400  0.00  0.00    +0.000 N 
ATOM     11  C   UNL     1      47.514   2.175   6.458  0.00  0.00    +0.000 C 
ATOM     12  O   UNL     1      48.040   1.072   6.535  0.00  0.00    +0.000 OA
ATOM     13  H   UNL     1      48.452   2.677   4.729  0.00  0.00    +0.000 HD
ATOM     14  H   UNL     1      47.556   3.990   5.417  0.00  0.00    +0.000 HD
ENDBRANCH   4  11
ENDBRANCH   2   7
ENDBRANCH   1   2
BRANCH   1  15
ATOM     15  C   UNL     1      45.384   5.069  11.891  0.00  0.00    +0.000 C 
BRANCH  15  16
ATOM     16  C   UNL     1      45.896   6.472  12.088  0.00  0.00    +0.000 A 
ATOM     17  C   UNL     1      45.100   7.450  12.666  0.00  0.00    +0.000 A 
ATOM     18  N   UNL     1      45.521   8.703  12.924  0.00  0.00    +0.000 NA
ATOM     19  C   UNL     1      46.800   8.999  12.580  0.00  0.00    +0.000 A 
ATOM     20  C   UNL     1      47.702   8.116  11.979  0.00  0.00    +0.000 A 
ATOM     21  C   UNL     1      47.209   6.823  11.744  0.00  0.00    +0.000 A 
BRANCH  20  22
ATOM     22  C   UNL     1      49.076   8.521  11.604  0.00  0.00    +0.000 A 
ATOM     23  C   UNL     1      49.448   9.876  11.509  0.00  0.00    +0.000 A 
ATOM     24  C   UNL     1      50.756  10.256  11.190  0.00  0.00    +0.000 A 
ATOM     25  C   UNL     1      51.724   9.288  10.941  0.00  0.00    +0.000 A 
ATOM     26  C   UNL     1      51.382   7.942  11.010  0.00  0.00    +0.000 A 
ATOM     27  C   UNL     1      50.076   7.565  11.341  0.00  0.00    +0.000 A 
ENDBRANCH  20  22
ENDBRANCH  15  16
ENDBRANCH   1  15
TORSDOF 6
ENDMDL
MODEL 5
REMARK VINA RESULT:    -7.757      3.252      7.158
REMARK INTER + INTRA:         -11.364
REMARK INTER:                 -10.758
REMARK INTRA:                  -0.606
REMARK UNBOUND:                -0.886
REMARK  Name = 
REMARK  6 active torsions:
REMARK  status: ('A' for Active; 'I' for Inactive)
REMARK    1  A    between atoms: C_2  and  C_4
REMARK    2  A    between atoms: C_7  and  N_8
REMARK    3  A    between atoms: N_8  and  C_9
REMARK    4  A    between atoms: C_9  and  C_10
REMARK    5  A    between atoms: C_10  and  C_11
REMARK    6  A    between atoms: C_15  and  C_16
REMARK                            x       y       z     vdW  Elec       q    Type
REMARK                         _______ _______ _______ _____ _____    ______ ____
ROOT
ATOM      1  C   UNL     1      46.248   6.924  11.436  0.00  0.00    +0.000 C 
ENDROOT
BRANCH   1   2
ATOM      2  N   UNL     1      46.669   7.233  12.799  0.00  0.00    +0.000 N 
ATOM      3  H   UNL     1      47.253   8.059  12.898  0.00  0.00    +0.000 HD
BRANCH   2   7
ATOM      4  C   UNL     1      47.724   4.273  15.622  0.00  0.00    +0.000 A 
ATOM      5  C   UNL     1      46.853   3.947  14.579  0.00  0.00    +0.000 A 
ATOM      6  C   UNL     1      46.514   4.912  13.623  0.00  0.00    +0.000 A 
ATOM      7  C   UNL     1      47.052   6.205  13.665  0.00  0.00    +0.000 A 
ATOM      8  C   UNL     1      47.922   6.513  14.719  0.00  0.00    +0.000 A 
ATOM      9  C   UNL     1      48.253   5.562  15.694  0.00  0.00    +0.000 A 
BRANCH   4  11
ATOM     10  N   UNL     1      47.040   2.911  17.524  0.00  0.00    +0.000 N 
ATOM     11  C   UNL     1      48.054   3.301  16.696  0.00  0.00    +0.000 C 
ATOM     12  O   UNL     1      49.183   2.845  16.824  0.00  0.00    +0.000 OA
ATOM     13  H   UNL     1      47.263   2.187  18.196  0.00  0.00    +0.000 HD
ATOM     14  H   UNL     1      46.066   3.068  17.306  0.00  0.00    +0.000 HD
ENDBRANCH   4  11
ENDBRANCH   2   7
ENDBRANCH   1   2
BRANCH   1  15
ATOM     15  C   UNL     1      44.755   6.586  11.391  0.00  0.00    +0.000 C 
BRANCH  15  16
ATOM     16  C   UNL     1      44.537   5.178  10.903  0.00  0.00    +0.000 A 
ATOM     17  C   UNL     1      43.568   4.364  11.474  0.00  0.00    +0.000 A 
ATOM     18  N   UNL     1      43.285   3.120  11.042  0.00  0.00    +0.000 NA
ATOM     19  C   UNL     1      44.011   2.660   9.992  0.00  0.00    +0.000 A 
ATOM     20  C   UNL     1      45.022   3.366   9.334  0.00  0.00    +0.000 A 
ATOM     21  C   UNL     1      45.265   4.659   9.824  0.00  0.00    +0.000 A 
BRANCH  20  22
ATOM     22  C   UNL     1      45.794   2.784   8.212  0.00  0.00    +0.000 A 
ATOM     23  C   UNL     1      46.126   3.543   7.072  0.00  0.00    +0.000 A 
ATOM     24  C   UNL     1      46.885   3.002   6.030  0.00  0.00    +0.000 A 
ATOM     25  C   UNL     1      47.321   1.683   6.093  0.00  0.00    +0.000 A 
ATOM     26  C   UNL     1      46.995   0.904   7.198  0.00  0.00    +0.000 A 
ATOM     27  C   UNL     1      46.245   1.451   8.245  0.00  0.00    +0.000 A 
ENDBRANCH  20  22
ENDBRANCH  15  16
ENDBRANCH   1  15
TORSDOF 6
ENDMDL
MODEL 6
REMARK VINA RESULT:    -7.585      3.347      7.147
REMARK INTER + INTRA:         -11.132
REMARK INTER:                 -10.364
REMARK INTRA:                  -0.768
REMARK UNBOUND:                -0.886
REMARK  Name = 
REMARK  6 active torsions:
REMARK  status: ('A' for Active; 'I' for Inactive)
REMARK    1  A    between atoms: C_2  and  C_4
REMARK    2  A    between atoms: C_7  and  N_8
REMARK    3  A    between atoms: N_8  and  C_9
REMARK    4  A    between atoms: C_9  and  C_10
REMARK    5  A    between atoms: C_10  and  C_11
REMARK    6  A    between atoms: C_15  and  C_16
REMARK                            x       y       z     vdW  Elec       q    Type
REMARK                         _______ _______ _______ _____ _____    ______ ____
ROOT
ATOM      1  C   UNL     1      44.624   7.146  11.135  0.00  0.00    +0.000 C 
ENDROOT
BRANCH   1   2
ATOM      2  N   UNL     1      45.044   7.755  12.392  0.00  0.00    +0.000 N 
ATOM      3  H   UNL     1      44.582   8.629  12.630  0.00  0.00    +0.000 HD
BRANCH   2   7
ATOM      4  C   UNL     1      49.042   7.700  13.753  0.00  0.00    +0.000 A 
ATOM      5  C   UNL     1      48.631   6.770  12.797  0.00  0.00    +0.000 A 
ATOM      6  C   UNL     1      47.314   6.792  12.319  0.00  0.00    +0.000 A 
ATOM      7  C   UNL     1      46.393   7.752  12.758  0.00  0.00    +0.000 A 
ATOM      8  C   UNL     1      46.824   8.676  13.719  0.00  0.00    +0.000 A 
ATOM      9  C   UNL     1      48.132   8.651  14.219  0.00  0.00    +0.000 A 
BRANCH   4  11
ATOM     10  N   UNL     1      51.455   7.935  13.504  0.00  0.00    +0.000 N 
ATOM     11  C   UNL     1      50.407   7.668  14.338  0.00  0.00    +0.000 C 
ATOM     12  O   UNL     1      50.591   7.435  15.527  0.00  0.00    +0.000 OA
ATOM     13  H   UNL     1      52.370   7.991  13.935  0.00  0.00    +0.000 HD
ATOM     14  H   UNL     1      51.335   8.364  12.597  0.00  0.00    +0.000 HD
ENDBRANCH   4  11
ENDBRANCH   2   7
ENDBRANCH   1   2
BRANCH   1  15
ATOM     15  C   UNL     1      43.385   6.269  11.340  0.00  0.00    +0.000 C 
BRANCH  15  16
ATOM     16  C   UNL     1      43.679   4.834  10.991  0.00  0.00    +0.000 A 
ATOM     17  C   UNL     1      43.094   3.792  11.696  0.00  0.00    +0.000 A 
ATOM     18  N   UNL     1      43.268   2.491  11.392  0.00  0.00    +0.000 NA
ATOM     19  C   UNL     1      44.075   2.215  10.336  0.00  0.00    +0.000 A 
ATOM     20  C   UNL     1      44.736   3.163   9.551  0.00  0.00    +0.000 A 
ATOM     21  C   UNL     1      44.507   4.502   9.910  0.00  0.00    +0.000 A 
BRANCH  20  22
ATOM     22  C   UNL     1      45.626   2.784   8.430  0.00  0.00    +0.000 A 
ATOM     23  C   UNL     1      46.166   1.487   8.321  0.00  0.00    +0.000 A 
ATOM     24  C   UNL     1      46.977   1.121   7.242  0.00  0.00    +0.000 A 
ATOM     25  C   UNL     1      47.282   2.047   6.251  0.00  0.00    +0.000 A 
ATOM     26  C   UNL     1      46.777   3.340   6.339  0.00  0.00    +0.000 A 
ATOM     27  C   UNL     1      45.956   3.700   7.414  0.00  0.00    +0.000 A 
ENDBRANCH  20  22
ENDBRANCH  15  16
ENDBRANCH   1  15
TORSDOF 6
ENDMDL
MODEL 7
REMARK VINA RESULT:    -7.350      3.665      7.689
REMARK INTER + INTRA:         -10.815
REMARK INTER:                 -10.140
REMARK INTRA:                  -0.674
REMARK UNBOUND:                -0.886
REMARK  Name = 
REMARK  6 active torsions:
REMARK  status: ('A' for Active; 'I' for Inactive)
REMARK    1  A    between atoms: C_2  and  C_4
REMARK    2  A    between atoms: C_7  and  N_8
REMARK    3  A    between atoms: N_8  and  C_9
REMARK    4  A    between atoms: C_9  and  C_10
REMARK    5  A    between atoms: C_10  and  C_11
REMARK    6  A    between atoms: C_15  and  C_16
REMARK                            x       y       z     vdW  Elec       q    Type
REMARK                         _______ _______ _______ _____ _____    ______ ____
ROOT
ATOM      1  C   UNL     1      46.148   7.193  13.183  0.00  0.00    +0.000 C 
ENDROOT
BRANCH   1   2
ATOM      2  N   UNL     1      47.355   6.376  13.257  0.00  0.00    +0.000 N 
ATOM      3  H   UNL     1      47.531   5.784  12.450  0.00  0.00    +0.000 HD
BRANCH   2   7
ATOM      4  C   UNL     1      48.334   4.721  17.018  0.00  0.00    +0.000 A 
ATOM      5  C   UNL     1      47.429   4.054  16.190  0.00  0.00    +0.000 A 
ATOM      6  C   UNL     1      47.114   4.579  14.930  0.00  0.00    +0.000 A 
ATOM      7  C   UNL     1      47.709   5.756  14.459  0.00  0.00    +0.000 A 
ATOM      8  C   UNL     1      48.613   6.412  15.304  0.00  0.00    +0.000 A 
ATOM      9  C   UNL     1      48.921   5.907  16.575  0.00  0.00    +0.000 A 
BRANCH   4  11
ATOM     10  N   UNL     1      47.926   3.172  18.855  0.00  0.00    +0.000 N 
ATOM     11  C   UNL     1      48.642   4.237  18.388  0.00  0.00    +0.000 C 
ATOM     12  O   UNL     1      49.521   4.753  19.069  0.00  0.00    +0.000 OA
ATOM     13  H   UNL     1      48.205   2.803  19.756  0.00  0.00    +0.000 HD
ATOM     14  H   UNL     1      47.378   2.576  18.251  0.00  0.00    +0.000 HD
ENDBRANCH   4  11
ENDBRANCH   2   7
ENDBRANCH   1   2
BRANCH   1  15
ATOM     15  C   UNL     1      45.777   7.487  11.726  0.00  0.00    +0.000 C 
BRANCH  15  16
ATOM     16  C   UNL     1      45.067   6.314  11.105  0.00  0.00    +0.000 A 
ATOM     17  C   UNL     1      43.730   6.060  11.376  0.00  0.00    +0.000 A 
ATOM     18  N   UNL     1      43.024   5.065  10.805  0.00  0.00    +0.000 NA
ATOM     19  C   UNL     1      43.688   4.277   9.922  0.00  0.00    +0.000 A 
ATOM     20  C   UNL     1      45.034   4.410   9.569  0.00  0.00    +0.000 A 
ATOM     21  C   UNL     1      45.714   5.471  10.190  0.00  0.00    +0.000 A 
BRANCH  20  22
ATOM     22  C   UNL     1      45.699   3.490   8.619  0.00  0.00    +0.000 A 
ATOM     23  C   UNL     1      46.380   3.967   7.482  0.00  0.00    +0.000 A 
ATOM     24  C   UNL     1      47.039   3.098   6.605  0.00  0.00    +0.000 A 
ATOM     25  C   UNL     1      47.021   1.727   6.836  0.00  0.00    +0.000 A 
ATOM     26  C   UNL     1      46.343   1.225   7.941  0.00  0.00    +0.000 A 
ATOM     27  C   UNL     1      45.695   2.097   8.822  0.00  0.00    +0.000 A 
ENDBRANCH  20  22
ENDBRANCH  15  16
ENDBRANCH   1  15
TORSDOF 6
ENDMDL
MODEL 8
REMARK VINA RESULT:    -7.040      2.728      6.960
REMARK INTER + INTRA:         -10.395
REMARK INTER:                  -9.407
REMARK INTRA:                  -0.988
REMARK UNBOUND:                -0.886
REMARK  Name = 
REMARK  6 active torsions:
REMARK  status: ('A' for Active; 'I' for Inactive)
REMARK    1  A    between atoms: C_2  and  C_4
REMARK    2  A    between atoms: C_7  and  N_8
REMARK    3  A    between atoms: N_8  and  C_9
REMARK    4  A    between atoms: C_9  and  C_10
REMARK    5  A    between atoms: C_10  and  C_11
REMARK    6  A    between atoms: C_15  and  C_16
REMARK                            x       y       z     vdW  Elec       q    Type
REMARK                         _______ _______ _______ _____ _____    ______ ____
ROOT
ATOM      1  C   UNL     1      44.184   4.018  13.654  0.00  0.00    +0.000 C 
ENDROOT
BRANCH   1   2
ATOM      2  N   UNL     1      45.629   4.220  13.710  0.00  0.00    +0.000 N 
ATOM      3  H   UNL     1      46.084   3.883  14.554  0.00  0.00    +0.000 HD
BRANCH   2   7
ATOM      4  C   UNL     1      47.201   7.951  12.506  0.00  0.00    +0.000 A 
ATOM      5  C   UNL     1      48.075   6.913  12.836  0.00  0.00    +0.000 A 
ATOM      6  C   UNL     1      47.567   5.664  13.214  0.00  0.00    +0.000 A 
ATOM      7  C   UNL     1      46.189   5.412  13.243  0.00  0.00    +0.000 A 
ATOM      8  C   UNL     1      45.328   6.466  12.910  0.00  0.00    +0.000 A 
ATOM      9  C   UNL     1      45.824   7.727  12.551  0.00  0.00    +0.000 A 
BRANCH   4  11
ATOM     10  N   UNL     1      47.026  10.374  12.707  0.00  0.00    +0.000 N 
ATOM     11  C   UNL     1      47.694   9.311  12.169  0.00  0.00    +0.000 C 
ATOM     12  O   UNL     1      48.677   9.479  11.457  0.00  0.00    +0.000 OA
ATOM     13  H   UNL     1      47.425  11.289  12.535  0.00  0.00    +0.000 HD
ATOM     14  H   UNL     1      46.380  10.279  13.478  0.00  0.00    +0.000 HD
ENDBRANCH   4  11
ENDBRANCH   2   7
ENDBRANCH   1   2
BRANCH   1  15
ATOM     15  C   UNL     1      43.823   2.941  12.627  0.00  0.00    +0.000 C 
BRANCH  15  16
ATOM     16  C   UNL     1      43.970   3.465  11.223  0.00  0.00    +0.000 A 
ATOM     17  C   UNL     1      43.301   4.609  10.813  0.00  0.00    +0.000 A 
ATOM     18  N   UNL     1      43.440   5.161   9.592  0.00  0.00    +0.000 NA
ATOM     19  C   UNL     1      44.283   4.534   8.733  0.00  0.00    +0.000 A 
ATOM     20  C   UNL     1      45.006   3.371   9.010  0.00  0.00    +0.000 A 
ATOM     21  C   UNL     1      44.827   2.848  10.301  0.00  0.00    +0.000 A 
BRANCH  20  22
ATOM     22  C   UNL     1      45.886   2.726   8.009  0.00  0.00    +0.000 A 
ATOM     23  C   UNL     1      46.358   3.425   6.881  0.00  0.00    +0.000 A 
ATOM     24  C   UNL     1      47.218   2.824   5.955  0.00  0.00    +0.000 A 
ATOM     25  C   UNL     1      47.617   1.503   6.127  0.00  0.00    +0.000 A 
ATOM     26  C   UNL     1      47.153   0.782   7.221  0.00  0.00    +0.000 A 
ATOM     27  C   UNL     1      46.302   1.389   8.152  0.00  0.00    +0.000 A 
ENDBRANCH  20  22
ENDBRANCH  15  16
ENDBRANCH   1  15
TORSDOF 6
ENDMDL
MODEL 9
REMARK VINA RESULT:    -6.153      3.544      6.113
REMARK INTER + INTRA:          -9.197
REMARK INTER:                  -8.000
REMARK INTRA:                  -1.197
REMARK UNBOUND:                -0.886
REMARK  Name = 
REMARK  6 active torsions:
REMARK  status: ('A' for Active; 'I' for Inactive)
REMARK    1  A    between atoms: C_2  and  C_4
REMARK    2  A    between atoms: C_7  and  N_8
REMARK    3  A    between atoms: N_8  and  C_9
REMARK    4  A    between atoms: C_9  and  C_10
REMARK    5  A    between atoms: C_10  and  C_11
REMARK    6  A    between atoms: C_15  and  C_16
REMARK                            x       y       z     vdW  Elec       q    Type
REMARK                         _______ _______ _______ _____ _____    ______ ____
ROOT
ATOM      1  C   UNL     1      48.983   7.521  11.873  0.00  0.00    +0.000 C 
ENDROOT
BRANCH   1   2
ATOM      2  N   UNL     1      47.543   7.753  11.848  0.00  0.00    +0.000 N 
ATOM      3  H   UNL     1      47.221   8.556  12.382  0.00  0.00    +0.000 HD
BRANCH   2   7
ATOM      4  C   UNL     1      45.024   4.363  11.902  0.00  0.00    +0.000 A 
ATOM      5  C   UNL     1      45.619   4.794  13.089  0.00  0.00    +0.000 A 
ATOM      6  C   UNL     1      46.437   5.931  13.090  0.00  0.00    +0.000 A 
ATOM      7  C   UNL     1      46.657   6.675  11.924  0.00  0.00    +0.000 A 
ATOM      8  C   UNL     1      46.053   6.226  10.742  0.00  0.00    +0.000 A 
ATOM      9  C   UNL     1      45.249   5.079  10.725  0.00  0.00    +0.000 A 
BRANCH   4  11
ATOM     10  N   UNL     1      44.170   2.452  10.653  0.00  0.00    +0.000 N 
ATOM     11  C   UNL     1      44.207   3.124  11.842  0.00  0.00    +0.000 C 
ATOM     12  O   UNL     1      43.608   2.702  12.823  0.00  0.00    +0.000 OA
ATOM     13  H   UNL     1      43.677   1.567  10.652  0.00  0.00    +0.000 HD
ATOM     14  H   UNL     1      44.830   2.624   9.907  0.00  0.00    +0.000 HD
ENDBRANCH   4  11
ENDBRANCH   2   7
ENDBRANCH   1   2
BRANCH   1  15
ATOM     15  C   UNL     1      49.688   8.556  12.756  0.00  0.00    +0.000 C 
BRANCH  15  16
ATOM     16  C   UNL     1      49.385   8.316  14.211  0.00  0.00    +0.000 A 
ATOM     17  C   UNL     1      49.154   9.375  15.078  0.00  0.00    +0.000 A 
ATOM     18  N   UNL     1      48.818   9.224  16.374  0.00  0.00    +0.000 NA
ATOM     19  C   UNL     1      48.714   7.950  16.831  0.00  0.00    +0.000 A 
ATOM     20  C   UNL     1      48.932   6.796  16.073  0.00  0.00    +0.000 A 
ATOM     21  C   UNL     1      49.270   7.018  14.728  0.00  0.00    +0.000 A 
BRANCH  20  22
ATOM     22  C   UNL     1      48.829   5.437  16.650  0.00  0.00    +0.000 A 
ATOM     23  C   UNL     1      49.869   4.880  17.420  0.00  0.00    +0.000 A 
ATOM     24  C   UNL     1      49.754   3.609  17.994  0.00  0.00    +0.000 A 
ATOM     25  C   UNL     1      48.601   2.857  17.802  0.00  0.00    +0.000 A 
ATOM     26  C   UNL     1      47.564   3.373  17.033  0.00  0.00    +0.000 A 
ATOM     27  C   UNL     1      47.677   4.648  16.469  0.00  0.00    +0.000 A 
ENDBRANCH  20  22
ENDBRANCH  15  16
ENDBRANCH   1  15
TORSDOF 6
ENDMDL
