MODEL 1
REMARK VINA RESULT:    -8.518      0.000      0.000
REMARK INTER + INTRA:         -13.207
REMARK INTER:                 -12.004
REMARK INTRA:                  -1.203
REMARK UNBOUND:                -1.203
REMARK  Name = 
REMARK  8 active torsions:
REMARK  status: ('A' for Active; 'I' for Inactive)
REMARK    1  A    between atoms: N_1  and  C_2
REMARK    2  A    between atoms: C_2  and  N_3
REMARK    3  A    between atoms: C_2  and  C_16
REMARK    4  A    between atoms: C_4  and  C_6
REMARK    5  A    between atoms: C_19  and  C_20
REMARK    6  A    between atoms: C_20  and  N_21
REMARK    7  A    between atoms: C_22  and  C_24
REMARK    8  A    between atoms: C_28  and  O_29
REMARK                            x       y       z     vdW  Elec       q    Type
REMARK                         _______ _______ _______ _____ _____    ______ ____
ROOT
ATOM      1  C   UNL     1      47.069   7.791  13.425  0.00  0.00    +0.000 C 
ENDROOT
BRANCH   1   2
ATOM      2  C   UNL     1      46.107   6.812  12.775  0.00  0.00    +0.000 A 
ATOM      3  C   UNL     1      46.377   5.436  12.874  0.00  0.00    +0.000 A 
ATOM      4  C   UNL     1      45.597   4.491  12.200  0.00  0.00    +0.000 A 
ATOM      5  C   UNL     1      44.530   4.895  11.390  0.00  0.00    +0.000 A 
ATOM      6  C   UNL     1      44.232   6.263  11.308  0.00  0.00    +0.000 A 
ATOM      7  C   UNL     1      45.018   7.210  11.981  0.00  0.00    +0.000 A 
BRANCH   5   8
ATOM      8  C   UNL     1      43.776   3.889  10.564  0.00  0.00    +0.000 C 
BRANCH   8   9
ATOM      9  N   UNL     1      44.619   2.957   9.866  0.00  0.00    +0.000 N 
ATOM     10  C   UNL     1      45.245   3.344   8.696  0.00  0.00    +0.000 C 
ATOM     11  O   UNL     1      45.083   4.457   8.204  0.00  0.00    +0.000 OA
ATOM     12  H   UNL     1      44.859   2.051  10.252  0.00  0.00    +0.000 HD
BRANCH  10  13
ATOM     13  C   UNL     1      46.103   2.312   8.114  0.00  0.00    +0.000 A 
ATOM     14  N   UNL     1      45.937   0.951   8.367  0.00  0.00    +0.000 NA
ATOM     15  C   UNL     1      46.862   0.349   7.658  0.00  0.00    +0.000 A 
ATOM     16  N   UNL     1      47.632   1.242   6.966  0.00  0.00    +0.000 N 
ATOM     17  C   UNL     1      47.171   2.502   7.247  0.00  0.00    +0.000 A 
ATOM     18  H   UNL     1      48.396   1.002   6.353  0.00  0.00    +0.000 HD
BRANCH  17  19
ATOM     19  O   UNL     1      47.716   3.595   6.728  0.00  0.00    +0.000 OA
ATOM     20  H   UNL     1      47.455   4.388   7.224  0.00  0.00    +0.000 HD
ENDBRANCH  17  19
ENDBRANCH  10  13
ENDBRANCH   8   9
ENDBRANCH   5   8
ENDBRANCH   1   2
BRANCH   1  21
ATOM     21  N   UNL     1      47.568   7.362  14.701  0.00  0.00    +0.000 N 
ATOM     22  C   UNL     1      48.861   6.913  14.856  0.00  0.00    +0.000 C 
ATOM     23  O   UNL     1      49.682   6.956  13.943  0.00  0.00    +0.000 OA
ATOM     24  H   UNL     1      46.874   6.941  15.312  0.00  0.00    +0.000 HD
BRANCH  22  25
ATOM     25  C   UNL     1      49.255   6.495  16.205  0.00  0.00    +0.000 A 
ATOM     26  C   UNL     1      50.242   7.202  16.879  0.00  0.00    +0.000 A 
ATOM     27  S   UNL     1      50.555   6.612  18.448  0.00  0.00    +0.000 S 
ATOM     28  C   UNL     1      49.413   5.363  18.263  0.00  0.00    +0.000 A 
ATOM     29  N   UNL     1      49.206   4.453  19.249  0.00  0.00    +0.000 NA
ATOM     30  C   UNL     1      48.331   3.545  18.960  0.00  0.00    +0.000 A 
ATOM     31  N   UNL     1      47.638   3.474  17.779  0.00  0.00    +0.000 N 
ATOM     32  C   UNL     1      47.797   4.390  16.764  0.00  0.00    +0.000 A 
ATOM     33  O   UNL     1      47.136   4.333  15.734  0.00  0.00    +0.000 OA
ATOM     34  C   UNL     1      48.784   5.415  17.031  0.00  0.00    +0.000 A 
ATOM     35  H   UNL     1      46.960   2.743  17.622  0.00  0.00    +0.000 HD
ENDBRANCH  22  25
ENDBRANCH   1  21
BRANCH   1  36
ATOM     36  N   UNL     1      46.381   9.042  13.667  0.00  0.00    +0.000 NA
ATOM     37  H   UNL     1      45.463   8.795  14.043  0.00  0.00    +0.000 HD
ATOM     38  H   UNL     1      46.197   9.466  12.762  0.00  0.00    +0.000 HD
ENDBRANCH   1  36
TORSDOF 8
ENDMDL
MODEL 2
REMARK VINA RESULT:    -8.023      2.038      3.573
REMARK INTER + INTRA:         -12.509
REMARK INTER:                 -11.321
REMARK INTRA:                  -1.188
REMARK UNBOUND:                -1.203
REMARK  Name = 
REMARK  8 active torsions:
REMARK  status: ('A' for Active; 'I' for Inactive)
REMARK    1  A    between atoms: N_1  and  C_2
REMARK    2  A    between atoms: C_2  and  N_3
REMARK    3  A    between atoms: C_2  and  C_16
REMARK    4  A    between atoms: C_4  and  C_6
REMARK    5  A    between atoms: C_19  and  C_20
REMARK    6  A    between atoms: C_20  and  N_21
REMARK    7  A    between atoms: C_22  and  C_24
REMARK    8  A    between atoms: C_28  and  O_29
REMARK                            x       y       z     vdW  Elec       q    Type
REMARK                         _______ _______ _______ _____ _____    ______ ____
ROOT
ATOM      1  C   UNL     1      46.735   4.409  14.821  0.00  0.00    +0.000 C 
ENDROOT
BRANCH   1   2
ATOM      2  C   UNL     1      45.846   4.451  13.589  0.00  0.00    +0.000 A 
ATOM      3  C   UNL     1      45.658   3.267  12.854  0.00  0.00    +0.000 A 
ATOM      4  C   UNL     1      44.949   3.265  11.649  0.00  0.00    +0.000 A 
ATOM      5  C   UNL     1      44.419   4.453  11.132  0.00  0.00    +0.000 A 
ATOM      6  C   UNL     1      44.574   5.633  11.872  0.00  0.00    +0.000 A 
ATOM      7  C   UNL     1      45.289   5.635  13.078  0.00  0.00    +0.000 A 
BRANCH   5   8
ATOM      8  C   UNL     1      43.772   4.471   9.773  0.00  0.00    +0.000 C 
BRANCH   8   9
ATOM      9  N   UNL     1      44.474   3.702   8.782  0.00  0.00    +0.000 N 
ATOM     10  C   UNL     1      45.647   4.191   8.242  0.00  0.00    +0.000 C 
ATOM     11  O   UNL     1      46.107   5.286   8.554  0.00  0.00    +0.000 OA
ATOM     12  H   UNL     1      44.196   2.759   8.533  0.00  0.00    +0.000 HD
BRANCH  10  13
ATOM     13  C   UNL     1      46.276   3.289   7.275  0.00  0.00    +0.000 A 
ATOM     14  N   UNL     1      46.751   3.713   6.035  0.00  0.00    +0.000 NA
ATOM     15  C   UNL     1      47.261   2.642   5.473  0.00  0.00    +0.000 A 
ATOM     16  N   UNL     1      47.132   1.540   6.272  0.00  0.00    +0.000 N 
ATOM     17  C   UNL     1      46.500   1.927   7.424  0.00  0.00    +0.000 A 
ATOM     18  H   UNL     1      47.459   0.614   6.044  0.00  0.00    +0.000 HD
BRANCH  17  19
ATOM     19  O   UNL     1      46.222   1.079   8.407  0.00  0.00    +0.000 OA
ATOM     20  H   UNL     1      47.033   0.748   8.826  0.00  0.00    +0.000 HD
ENDBRANCH  17  19
ENDBRANCH  10  13
ENDBRANCH   8   9
ENDBRANCH   5   8
ENDBRANCH   1   2
BRANCH   1  21
ATOM     21  N   UNL     1      47.568   5.567  14.982  0.00  0.00    +0.000 N 
ATOM     22  C   UNL     1      48.505   5.647  15.989  0.00  0.00    +0.000 C 
ATOM     23  O   UNL     1      48.751   4.698  16.731  0.00  0.00    +0.000 OA
ATOM     24  H   UNL     1      47.140   6.444  14.702  0.00  0.00    +0.000 HD
BRANCH  22  25
ATOM     25  C   UNL     1      49.292   6.881  16.059  0.00  0.00    +0.000 A 
ATOM     26  C   UNL     1      49.589   7.433  17.298  0.00  0.00    +0.000 A 
ATOM     27  S   UNL     1      50.543   8.843  17.207  0.00  0.00    +0.000 S 
ATOM     28  C   UNL     1      50.554   8.790  15.505  0.00  0.00    +0.000 A 
ATOM     29  N   UNL     1      51.181   9.750  14.779  0.00  0.00    +0.000 NA
ATOM     30  C   UNL     1      51.085   9.598  13.499  0.00  0.00    +0.000 A 
ATOM     31  N   UNL     1      50.426   8.565  12.881  0.00  0.00    +0.000 N 
ATOM     32  C   UNL     1      49.801   7.556  13.578  0.00  0.00    +0.000 A 
ATOM     33  O   UNL     1      49.256   6.619  13.006  0.00  0.00    +0.000 OA
ATOM     34  C   UNL     1      49.862   7.694  15.018  0.00  0.00    +0.000 A 
ATOM     35  H   UNL     1      50.397   8.500  11.875  0.00  0.00    +0.000 HD
ENDBRANCH  22  25
ENDBRANCH   1  21
BRANCH   1  36
ATOM     36  N   UNL     1      47.636   3.281  14.717  0.00  0.00    +0.000 NA
ATOM     37  H   UNL     1      47.585   2.792  15.614  0.00  0.00    +0.000 HD
ATOM     38  H   UNL     1      48.580   3.651  14.664  0.00  0.00    +0.000 HD
ENDBRANCH   1  36
TORSDOF 8
ENDMDL
MODEL 3
REMARK VINA RESULT:    -7.623      2.233      3.200
REMARK INTER + INTRA:         -11.945
REMARK INTER:                 -10.766
REMARK INTRA:                  -1.179
REMARK UNBOUND:                -1.203
REMARK  Name = 
REMARK  8 active torsions:
REMARK  status: ('A' for Active; 'I' for Inactive)
REMARK    1  A    between atoms: N_1  and  C_2
REMARK    2  A    between atoms: C_2  and  N_3
REMARK    3  A    between atoms: C_2  and  C_16
REMARK    4  A    between atoms: C_4  and  C_6
REMARK    5  A    between atoms: C_19  and  C_20
REMARK    6  A    between atoms: C_20  and  N_21
REMARK    7  A    between atoms: C_22  and  C_24
REMARK    8  A    between atoms: C_28  and  O_29
REMARK                            x       y       z     vdW  Elec       q    Type
REMARK                         _______ _______ _______ _____ _____    ______ ____
ROOT
ATOM      1  C   UNL     1      47.015   4.203  15.413  0.00  0.00    +0.000 C 
ENDROOT
BRANCH   1   2
ATOM      2  C   UNL     1      46.492   4.771  14.104  0.00  0.00    +0.000 A 
ATOM      3  C   UNL     1      45.243   4.331  13.631  0.00  0.00    +0.000 A 
ATOM      4  C   UNL     1      44.761   4.725  12.379  0.00  0.00    +0.000 A 
ATOM      5  C   UNL     1      45.522   5.560  11.553  0.00  0.00    +0.000 A 
ATOM      6  C   UNL     1      46.754   6.030  12.027  0.00  0.00    +0.000 A 
ATOM      7  C   UNL     1      47.239   5.630  13.281  0.00  0.00    +0.000 A 
BRANCH   5   8
ATOM      8  C   UNL     1      45.060   5.876  10.155  0.00  0.00    +0.000 C 
BRANCH   8   9
ATOM      9  N   UNL     1      45.727   5.115   9.134  0.00  0.00    +0.000 N 
ATOM     10  C   UNL     1      45.228   3.880   8.765  0.00  0.00    +0.000 C 
ATOM     11  O   UNL     1      44.243   3.384   9.304  0.00  0.00    +0.000 OA
ATOM     12  H   UNL     1      46.498   5.493   8.595  0.00  0.00    +0.000 HD
BRANCH  10  13
ATOM     13  C   UNL     1      45.981   3.235   7.689  0.00  0.00    +0.000 A 
ATOM     14  N   UNL     1      46.451   3.921   6.570  0.00  0.00    +0.000 NA
ATOM     15  C   UNL     1      47.090   3.025   5.855  0.00  0.00    +0.000 A 
ATOM     16  N   UNL     1      47.051   1.789   6.438  0.00  0.00    +0.000 N 
ATOM     17  C   UNL     1      46.342   1.896   7.606  0.00  0.00    +0.000 A 
ATOM     18  H   UNL     1      47.481   0.956   6.067  0.00  0.00    +0.000 HD
BRANCH  17  19
ATOM     19  O   UNL     1      46.123   0.861   8.407  0.00  0.00    +0.000 OA
ATOM     20  H   UNL     1      45.236   0.903   8.801  0.00  0.00    +0.000 HD
ENDBRANCH  17  19
ENDBRANCH  10  13
ENDBRANCH   8   9
ENDBRANCH   5   8
ENDBRANCH   1   2
BRANCH   1  21
ATOM     21  N   UNL     1      47.826   5.117  16.166  0.00  0.00    +0.000 N 
ATOM     22  C   UNL     1      47.597   5.352  17.503  0.00  0.00    +0.000 C 
ATOM     23  O   UNL     1      46.762   4.719  18.145  0.00  0.00    +0.000 OA
ATOM     24  H   UNL     1      48.195   5.899  15.633  0.00  0.00    +0.000 HD
BRANCH  22  25
ATOM     25  C   UNL     1      48.486   6.312  18.165  0.00  0.00    +0.000 A 
ATOM     26  C   UNL     1      47.940   7.387  18.853  0.00  0.00    +0.000 A 
ATOM     27  S   UNL     1      49.106   8.385  19.597  0.00  0.00    +0.000 S 
ATOM     28  C   UNL     1      50.382   7.440  18.985  0.00  0.00    +0.000 A 
ATOM     29  N   UNL     1      51.677   7.772  19.227  0.00  0.00    +0.000 NA
ATOM     30  C   UNL     1      52.540   6.981  18.678  0.00  0.00    +0.000 A 
ATOM     31  N   UNL     1      52.224   5.883  17.919  0.00  0.00    +0.000 N 
ATOM     32  C   UNL     1      50.927   5.495  17.673  0.00  0.00    +0.000 A 
ATOM     33  O   UNL     1      50.667   4.484  17.029  0.00  0.00    +0.000 OA
ATOM     34  C   UNL     1      49.921   6.363  18.248  0.00  0.00    +0.000 A 
ATOM     35  H   UNL     1      52.949   5.301  17.528  0.00  0.00    +0.000 HD
ENDBRANCH  22  25
ENDBRANCH   1  21
BRANCH   1  36
ATOM     36  N   UNL     1      47.859   3.061  15.131  0.00  0.00    +0.000 NA
ATOM     37  H   UNL     1      47.931   2.537  16.006  0.00  0.00    +0.000 HD
ATOM     38  H   UNL     1      48.794   3.413  14.948  0.00  0.00    +0.000 HD
ENDBRANCH   1  36
TORSDOF 8
ENDMDL
MODEL 4
REMARK VINA RESULT:    -7.411      1.811      2.433
REMARK INTER + INTRA:         -11.646
REMARK INTER:                 -10.530
REMARK INTRA:                  -1.116
REMARK UNBOUND:                -1.203
REMARK  Name = 
REMARK  8 active torsions:
REMARK  status: ('A' for Active; 'I' for Inactive)
REMARK    1  A    between atoms: N_1  and  C_2
REMARK    2  A    between atoms: C_2  and  N_3
REMARK    3  A    between atoms: C_2  and  C_16
REMARK    4  A    between atoms: C_4  and  C_6
REMARK    5  A    between atoms: C_19  and  C_20
REMARK    6  A    between atoms: C_20  and  N_21
REMARK    7  A    between atoms: C_22  and  C_24
REMARK    8  A    between atoms: C_28  and  O_29
REMARK                            x       y       z     vdW  Elec       q    Type
REMARK                         _______ _______ _______ _____ _____    ______ ____
ROOT
ATOM      1  C   UNL     1      47.910   8.088  14.139  0.00  0.00    +0.000 C 
ENDROOT
BRANCH   1   2
ATOM      2  C   UNL     1      46.905   7.381  13.246  0.00  0.00    +0.000 A 
ATOM      3  C   UNL     1      46.991   5.985  13.109  0.00  0.00    +0.000 A 
ATOM      4  C   UNL     1      46.172   5.290  12.213  0.00  0.00    +0.000 A 
ATOM      5  C   UNL     1      45.251   5.975  11.413  0.00  0.00    +0.000 A 
ATOM      6  C   UNL     1      45.134   7.364  11.563  0.00  0.00    +0.000 A 
ATOM      7  C   UNL     1      45.960   8.060  12.459  0.00  0.00    +0.000 A 
BRANCH   5   8
ATOM      8  C   UNL     1      44.465   5.243  10.358  0.00  0.00    +0.000 C 
BRANCH   8   9
ATOM      9  N   UNL     1      45.272   4.442   9.479  0.00  0.00    +0.000 N 
ATOM     10  C   UNL     1      44.965   3.109   9.291  0.00  0.00    +0.000 C 
ATOM     11  O   UNL     1      44.035   2.562   9.878  0.00  0.00    +0.000 OA
ATOM     12  H   UNL     1      46.006   4.843   8.904  0.00  0.00    +0.000 HD
BRANCH  10  13
ATOM     13  C   UNL     1      45.844   2.426   8.341  0.00  0.00    +0.000 A 
ATOM     14  N   UNL     1      46.058   1.048   8.356  0.00  0.00    +0.000 NA
ATOM     15  C   UNL     1      46.872   0.811   7.354  0.00  0.00    +0.000 A 
ATOM     16  N   UNL     1      47.211   1.960   6.694  0.00  0.00    +0.000 N 
ATOM     17  C   UNL     1      46.574   3.004   7.311  0.00  0.00    +0.000 A 
ATOM     18  H   UNL     1      47.818   2.013   5.890  0.00  0.00    +0.000 HD
BRANCH  17  19
ATOM     19  O   UNL     1      46.704   4.261   6.905  0.00  0.00    +0.000 OA
ATOM     20  H   UNL     1      45.839   4.663   6.721  0.00  0.00    +0.000 HD
ENDBRANCH  17  19
ENDBRANCH  10  13
ENDBRANCH   8   9
ENDBRANCH   5   8
ENDBRANCH   1   2
BRANCH   1  21
ATOM     21  N   UNL     1      48.007   7.539  15.462  0.00  0.00    +0.000 N 
ATOM     22  C   UNL     1      49.108   6.817  15.865  0.00  0.00    +0.000 C 
ATOM     23  O   UNL     1      50.105   6.695  15.157  0.00  0.00    +0.000 OA
ATOM     24  H   UNL     1      47.120   7.269  15.878  0.00  0.00    +0.000 HD
BRANCH  22  25
ATOM     25  C   UNL     1      49.090   6.299  17.237  0.00  0.00    +0.000 A 
ATOM     26  C   UNL     1      48.587   5.028  17.481  0.00  0.00    +0.000 A 
ATOM     27  S   UNL     1      48.674   4.563  19.119  0.00  0.00    +0.000 S 
ATOM     28  C   UNL     1      49.345   6.062  19.565  0.00  0.00    +0.000 A 
ATOM     29  N   UNL     1      49.635   6.342  20.861  0.00  0.00    +0.000 NA
ATOM     30  C   UNL     1      50.113   7.527  21.057  0.00  0.00    +0.000 A 
ATOM     31  N   UNL     1      50.337   8.453  20.069  0.00  0.00    +0.000 N 
ATOM     32  C   UNL     1      50.084   8.202  18.740  0.00  0.00    +0.000 A 
ATOM     33  O   UNL     1      50.333   9.028  17.869  0.00  0.00    +0.000 OA
ATOM     34  C   UNL     1      49.525   6.893  18.472  0.00  0.00    +0.000 A 
ATOM     35  H   UNL     1      50.723   9.358  20.290  0.00  0.00    +0.000 HD
ENDBRANCH  22  25
ENDBRANCH   1  21
BRANCH   1  36
ATOM     36  N   UNL     1      47.506   9.468  14.309  0.00  0.00    +0.000 NA
ATOM     37  H   UNL     1      48.179  10.030  13.783  0.00  0.00    +0.000 HD
ATOM     38  H   UNL     1      47.656   9.710  15.285  0.00  0.00    +0.000 HD
ENDBRANCH   1  36
TORSDOF 8
ENDMDL
MODEL 5
REMARK VINA RESULT:    -7.160      1.639      2.020
REMARK INTER + INTRA:         -11.292
REMARK INTER:                  -9.875
REMARK INTRA:                  -1.417
REMARK UNBOUND:                -1.203
REMARK  Name = 
REMARK  8 active torsions:
REMARK  status: ('A' for Active; 'I' for Inactive)
REMARK    1  A    between atoms: N_1  and  C_2
REMARK    2  A    between atoms: C_2  and  N_3
REMARK    3  A    between atoms: C_2  and  C_16
REMARK    4  A    between atoms: C_4  and  C_6
REMARK    5  A    between atoms: C_19  and  C_20
REMARK    6  A    between atoms: C_20  and  N_21
REMARK    7  A    between atoms: C_22  and  C_24
REMARK    8  A    between atoms: C_28  and  O_29
REMARK                            x       y       z     vdW  Elec       q    Type
REMARK                         _______ _______ _______ _____ _____    ______ ____
ROOT
ATOM      1  C   UNL     1      48.162   8.280  14.359  0.00  0.00    +0.000 C 
ENDROOT
BRANCH   1   2
ATOM      2  C   UNL     1      47.461   7.389  13.348  0.00  0.00    +0.000 A 
ATOM      3  C   UNL     1      46.746   7.993  12.299  0.00  0.00    +0.000 A 
ATOM      4  C   UNL     1      45.984   7.233  11.406  0.00  0.00    +0.000 A 
ATOM      5  C   UNL     1      45.899   5.844  11.546  0.00  0.00    +0.000 A 
ATOM      6  C   UNL     1      46.633   5.227  12.569  0.00  0.00    +0.000 A 
ATOM      7  C   UNL     1      47.393   5.991  13.467  0.00  0.00    +0.000 A 
BRANCH   5   8
ATOM      8  C   UNL     1      44.976   5.044  10.666  0.00  0.00    +0.000 C 
BRANCH   8   9
ATOM      9  N   UNL     1      45.653   4.263   9.667  0.00  0.00    +0.000 N 
ATOM     10  C   UNL     1      45.182   3.004   9.347  0.00  0.00    +0.000 C 
ATOM     11  O   UNL     1      44.213   2.504   9.911  0.00  0.00    +0.000 OA
ATOM     12  H   UNL     1      46.411   4.640   9.108  0.00  0.00    +0.000 HD
BRANCH  10  13
ATOM     13  C   UNL     1      45.942   2.339   8.288  0.00  0.00    +0.000 A 
ATOM     14  N   UNL     1      46.188   0.967   8.274  0.00  0.00    +0.000 NA
ATOM     15  C   UNL     1      46.866   0.745   7.172  0.00  0.00    +0.000 A 
ATOM     16  N   UNL     1      47.086   1.899   6.472  0.00  0.00    +0.000 N 
ATOM     17  C   UNL     1      46.513   2.930   7.168  0.00  0.00    +0.000 A 
ATOM     18  H   UNL     1      47.579   1.963   5.594  0.00  0.00    +0.000 HD
BRANCH  17  19
ATOM     19  O   UNL     1      46.558   4.189   6.749  0.00  0.00    +0.000 OA
ATOM     20  H   UNL     1      47.326   4.655   7.116  0.00  0.00    +0.000 HD
ENDBRANCH  17  19
ENDBRANCH  10  13
ENDBRANCH   8   9
ENDBRANCH   5   8
ENDBRANCH   1   2
BRANCH   1  21
ATOM     21  N   UNL     1      48.032   7.840  15.719  0.00  0.00    +0.000 N 
ATOM     22  C   UNL     1      48.967   8.167  16.676  0.00  0.00    +0.000 C 
ATOM     23  O   UNL     1      49.898   8.935  16.446  0.00  0.00    +0.000 OA
ATOM     24  H   UNL     1      47.571   6.942  15.835  0.00  0.00    +0.000 HD
BRANCH  22  25
ATOM     25  C   UNL     1      48.731   7.654  18.029  0.00  0.00    +0.000 A 
ATOM     26  C   UNL     1      48.459   8.544  19.060  0.00  0.00    +0.000 A 
ATOM     27  S   UNL     1      48.172   7.785  20.559  0.00  0.00    +0.000 S 
ATOM     28  C   UNL     1      48.445   6.243  19.892  0.00  0.00    +0.000 A 
ATOM     29  N   UNL     1      48.388   5.127  20.662  0.00  0.00    +0.000 NA
ATOM     30  C   UNL     1      48.644   4.029  20.029  0.00  0.00    +0.000 A 
ATOM     31  N   UNL     1      48.941   3.948  18.692  0.00  0.00    +0.000 N 
ATOM     32  C   UNL     1      48.982   5.050  17.869  0.00  0.00    +0.000 A 
ATOM     33  O   UNL     1      49.206   4.950  16.668  0.00  0.00    +0.000 OA
ATOM     34  C   UNL     1      48.724   6.308  18.537  0.00  0.00    +0.000 A 
ATOM     35  H   UNL     1      49.121   3.056  18.257  0.00  0.00    +0.000 HD
ENDBRANCH  22  25
ENDBRANCH   1  21
BRANCH   1  36
ATOM     36  N   UNL     1      47.577   9.604  14.311  0.00  0.00    +0.000 NA
ATOM     37  H   UNL     1      46.794   9.546  13.655  0.00  0.00    +0.000 HD
ATOM     38  H   UNL     1      48.255  10.219  13.870  0.00  0.00    +0.000 HD
ENDBRANCH   1  36
TORSDOF 8
ENDMDL
MODEL 6
REMARK VINA RESULT:    -6.841      4.541      7.598
REMARK INTER + INTRA:         -10.844
REMARK INTER:                 -10.175
REMARK INTRA:                  -0.669
REMARK UNBOUND:                -1.203
REMARK  Name = 
REMARK  8 active torsions:
REMARK  status: ('A' for Active; 'I' for Inactive)
REMARK    1  A    between atoms: N_1  and  C_2
REMARK    2  A    between atoms: C_2  and  N_3
REMARK    3  A    between atoms: C_2  and  C_16
REMARK    4  A    between atoms: C_4  and  C_6
REMARK    5  A    between atoms: C_19  and  C_20
REMARK    6  A    between atoms: C_20  and  N_21
REMARK    7  A    between atoms: C_22  and  C_24
REMARK    8  A    between atoms: C_28  and  O_29
REMARK                            x       y       z     vdW  Elec       q    Type
REMARK                         _______ _______ _______ _____ _____    ______ ____
ROOT
ATOM      1  C   UNL     1      46.330   8.242  13.305  0.00  0.00    +0.000 C 
ENDROOT
BRANCH   1   2
ATOM      2  C   UNL     1      47.603   8.618  12.567  0.00  0.00    +0.000 A 
ATOM      3  C   UNL     1      48.460   7.590  12.136  0.00  0.00    +0.000 A 
ATOM      4  C   UNL     1      49.701   7.873  11.556  0.00  0.00    +0.000 A 
ATOM      5  C   UNL     1      50.130   9.196  11.404  0.00  0.00    +0.000 A 
ATOM      6  C   UNL     1      49.271  10.229  11.800  0.00  0.00    +0.000 A 
ATOM      7  C   UNL     1      48.029   9.944  12.386  0.00  0.00    +0.000 A 
BRANCH   5   8
ATOM      8  C   UNL     1      51.517   9.494  10.901  0.00  0.00    +0.000 C 
BRANCH   8   9
ATOM      9  N   UNL     1      52.063   8.470  10.052  0.00  0.00    +0.000 N 
ATOM     10  C   UNL     1      53.028   7.614  10.546  0.00  0.00    +0.000 C 
ATOM     11  O   UNL     1      53.470   7.712  11.688  0.00  0.00    +0.000 OA
ATOM     12  H   UNL     1      51.693   8.281   9.127  0.00  0.00    +0.000 HD
BRANCH  10  13
ATOM     13  C   UNL     1      53.465   6.597   9.588  0.00  0.00    +0.000 A 
ATOM     14  N   UNL     1      53.426   6.785   8.207  0.00  0.00    +0.000 NA
ATOM     15  C   UNL     1      53.915   5.682   7.691  0.00  0.00    +0.000 A 
ATOM     16  N   UNL     1      54.258   4.779   8.659  0.00  0.00    +0.000 N 
ATOM     17  C   UNL     1      53.973   5.338   9.877  0.00  0.00    +0.000 A 
ATOM     18  H   UNL     1      54.659   3.869   8.491  0.00  0.00    +0.000 HD
BRANCH  17  19
ATOM     19  O   UNL     1      54.192   4.705  11.023  0.00  0.00    +0.000 OA
ATOM     20  H   UNL     1      54.576   5.300  11.687  0.00  0.00    +0.000 HD
ENDBRANCH  17  19
ENDBRANCH  10  13
ENDBRANCH   8   9
ENDBRANCH   5   8
ENDBRANCH   1   2
BRANCH   1  21
ATOM     21  N   UNL     1      45.835   6.931  12.991  0.00  0.00    +0.000 N 
ATOM     22  C   UNL     1      45.054   6.702  11.880  0.00  0.00    +0.000 C 
ATOM     23  O   UNL     1      44.829   7.577  11.046  0.00  0.00    +0.000 OA
ATOM     24  H   UNL     1      45.648   6.341  13.796  0.00  0.00    +0.000 HD
BRANCH  22  25
ATOM     25  C   UNL     1      44.601   5.324  11.666  0.00  0.00    +0.000 A 
ATOM     26  C   UNL     1      43.877   4.681  12.661  0.00  0.00    +0.000 A 
ATOM     27  S   UNL     1      43.393   3.101  12.241  0.00  0.00    +0.000 S 
ATOM     28  C   UNL     1      44.174   3.206  10.732  0.00  0.00    +0.000 A 
ATOM     29  N   UNL     1      44.177   2.156   9.870  0.00  0.00    +0.000 NA
ATOM     30  C   UNL     1      44.831   2.368   8.776  0.00  0.00    +0.000 A 
ATOM     31  N   UNL     1      45.473   3.539   8.461  0.00  0.00    +0.000 N 
ATOM     32  C   UNL     1      45.473   4.636   9.292  0.00  0.00    +0.000 A 
ATOM     33  O   UNL     1      46.015   5.687   8.973  0.00  0.00    +0.000 OA
ATOM     34  C   UNL     1      44.770   4.441  10.544  0.00  0.00    +0.000 A 
ATOM     35  H   UNL     1      45.958   3.641   7.583  0.00  0.00    +0.000 HD
ENDBRANCH  22  25
ENDBRANCH   1  21
BRANCH   1  36
ATOM     36  N   UNL     1      45.277   9.164  12.935  0.00  0.00    +0.000 NA
ATOM     37  H   UNL     1      44.403   8.749  13.267  0.00  0.00    +0.000 HD
ATOM     38  H   UNL     1      45.211   9.158  11.921  0.00  0.00    +0.000 HD
ENDBRANCH   1  36
TORSDOF 8
ENDMDL
MODEL 7
REMARK VINA RESULT:    -6.622      2.341      3.455
REMARK INTER + INTRA:         -10.534
REMARK INTER:                  -9.990
REMARK INTRA:                  -0.544
REMARK UNBOUND:                -1.203
REMARK  Name = 
REMARK  8 active torsions:
REMARK  status: ('A' for Active; 'I' for Inactive)
REMARK    1  A    between atoms: N_1  and  C_2
REMARK    2  A    between atoms: C_2  and  N_3
REMARK    3  A    between atoms: C_2  and  C_16
REMARK    4  A    between atoms: C_4  and  C_6
REMARK    5  A    between atoms: C_19  and  C_20
REMARK    6  A    between atoms: C_20  and  N_21
REMARK    7  A    between atoms: C_22  and  C_24
REMARK    8  A    between atoms: C_28  and  O_29
REMARK                            x       y       z     vdW  Elec       q    Type
REMARK                         _______ _______ _______ _____ _____    ______ ____
ROOT
ATOM      1  C   UNL     1      46.987   4.179  15.550  0.00  0.00    +0.000 C 
ENDROOT
BRANCH   1   2
ATOM      2  C   UNL     1      46.478   4.758  14.241  0.00  0.00    +0.000 A 
ATOM      3  C   UNL     1      45.256   4.290  13.728  0.00  0.00    +0.000 A 
ATOM      4  C   UNL     1      44.791   4.695  12.474  0.00  0.00    +0.000 A 
ATOM      5  C   UNL     1      45.544   5.571  11.684  0.00  0.00    +0.000 A 
ATOM      6  C   UNL     1      46.749   6.069  12.198  0.00  0.00    +0.000 A 
ATOM      7  C   UNL     1      47.217   5.658  13.455  0.00  0.00    +0.000 A 
BRANCH   5   8
ATOM      8  C   UNL     1      45.106   5.902  10.283  0.00  0.00    +0.000 C 
BRANCH   8   9
ATOM      9  N   UNL     1      45.768   5.131   9.266  0.00  0.00    +0.000 N 
ATOM     10  C   UNL     1      45.196   3.956   8.818  0.00  0.00    +0.000 C 
ATOM     11  O   UNL     1      44.146   3.519   9.281  0.00  0.00    +0.000 OA
ATOM     12  H   UNL     1      46.595   5.467   8.785  0.00  0.00    +0.000 HD
BRANCH  10  13
ATOM     13  C   UNL     1      45.956   3.295   7.756  0.00  0.00    +0.000 A 
ATOM     14  N   UNL     1      46.449   3.968   6.640  0.00  0.00    +0.000 NA
ATOM     15  C   UNL     1      47.088   3.060   5.939  0.00  0.00    +0.000 A 
ATOM     16  N   UNL     1      47.026   1.829   6.529  0.00  0.00    +0.000 N 
ATOM     17  C   UNL     1      46.303   1.952   7.686  0.00  0.00    +0.000 A 
ATOM     18  H   UNL     1      47.451   0.988   6.169  0.00  0.00    +0.000 HD
BRANCH  17  19
ATOM     19  O   UNL     1      46.060   0.924   8.490  0.00  0.00    +0.000 OA
ATOM     20  H   UNL     1      46.508   0.121   8.180  0.00  0.00    +0.000 HD
ENDBRANCH  17  19
ENDBRANCH  10  13
ENDBRANCH   8   9
ENDBRANCH   5   8
ENDBRANCH   1   2
BRANCH   1  21
ATOM     21  N   UNL     1      47.252   5.162  16.562  0.00  0.00    +0.000 N 
ATOM     22  C   UNL     1      48.484   5.767  16.676  0.00  0.00    +0.000 C 
ATOM     23  O   UNL     1      49.383   5.580  15.859  0.00  0.00    +0.000 OA
ATOM     24  H   UNL     1      46.738   5.033  17.429  0.00  0.00    +0.000 HD
BRANCH  22  25
ATOM     25  C   UNL     1      48.638   6.750  17.753  0.00  0.00    +0.000 A 
ATOM     26  C   UNL     1      48.951   6.316  19.034  0.00  0.00    +0.000 A 
ATOM     27  S   UNL     1      49.133   7.584  20.159  0.00  0.00    +0.000 S 
ATOM     28  C   UNL     1      48.756   8.754  18.982  0.00  0.00    +0.000 A 
ATOM     29  N   UNL     1      48.700  10.074  19.299  0.00  0.00    +0.000 NA
ATOM     30  C   UNL     1      48.375  10.844  18.313  0.00  0.00    +0.000 A 
ATOM     31  N   UNL     1      48.112  10.414  17.037  0.00  0.00    +0.000 N 
ATOM     32  C   UNL     1      48.183   9.091  16.666  0.00  0.00    +0.000 A 
ATOM     33  O   UNL     1      47.987   8.733  15.510  0.00  0.00    +0.000 OA
ATOM     34  C   UNL     1      48.522   8.184  17.743  0.00  0.00    +0.000 A 
ATOM     35  H   UNL     1      47.873  11.072  16.310  0.00  0.00    +0.000 HD
ENDBRANCH  22  25
ENDBRANCH   1  21
BRANCH   1  36
ATOM     36  N   UNL     1      48.246   3.504  15.313  0.00  0.00    +0.000 NA
ATOM     37  H   UNL     1      48.965   4.073  15.764  0.00  0.00    +0.000 HD
ATOM     38  H   UNL     1      48.438   3.564  14.317  0.00  0.00    +0.000 HD
ENDBRANCH   1  36
TORSDOF 8
ENDMDL
MODEL 8
REMARK VINA RESULT:    -6.614      2.077      2.728
REMARK INTER + INTRA:         -10.524
REMARK INTER:                  -9.233
REMARK INTRA:                  -1.291
REMARK UNBOUND:                -1.203
REMARK  Name = 
REMARK  8 active torsions:
REMARK  status: ('A' for Active; 'I' for Inactive)
REMARK    1  A    between atoms: N_1  and  C_2
REMARK    2  A    between atoms: C_2  and  N_3
REMARK    3  A    between atoms: C_2  and  C_16
REMARK    4  A    between atoms: C_4  and  C_6
REMARK    5  A    between atoms: C_19  and  C_20
REMARK    6  A    between atoms: C_20  and  N_21
REMARK    7  A    between atoms: C_22  and  C_24
REMARK    8  A    between atoms: C_28  and  O_29
REMARK                            x       y       z     vdW  Elec       q    Type
REMARK                         _______ _______ _______ _____ _____    ______ ____
ROOT
ATOM      1  C   UNL     1      49.392   8.358  14.650  0.00  0.00    +0.000 C 
ENDROOT
BRANCH   1   2
ATOM      2  C   UNL     1      48.112   7.965  13.934  0.00  0.00    +0.000 A 
ATOM      3  C   UNL     1      47.875   6.603  13.677  0.00  0.00    +0.000 A 
ATOM      4  C   UNL     1      46.775   6.186  12.920  0.00  0.00    +0.000 A 
ATOM      5  C   UNL     1      45.885   7.123  12.383  0.00  0.00    +0.000 A 
ATOM      6  C   UNL     1      46.092   8.481  12.660  0.00  0.00    +0.000 A 
ATOM      7  C   UNL     1      47.199   8.898  13.415  0.00  0.00    +0.000 A 
BRANCH   5   8
ATOM      8  C   UNL     1      44.779   6.682  11.462  0.00  0.00    +0.000 C 
BRANCH   8   9
ATOM      9  N   UNL     1      45.227   5.894  10.347  0.00  0.00    +0.000 N 
ATOM     10  C   UNL     1      44.841   4.571  10.244  0.00  0.00    +0.000 C 
ATOM     11  O   UNL     1      44.147   4.023  11.095  0.00  0.00    +0.000 OA
ATOM     12  H   UNL     1      45.737   6.299   9.569  0.00  0.00    +0.000 HD
BRANCH  10  13
ATOM     13  C   UNL     1      45.337   3.902   9.040  0.00  0.00    +0.000 A 
ATOM     14  N   UNL     1      46.045   4.562   8.038  0.00  0.00    +0.000 NA
ATOM     15  C   UNL     1      46.337   3.639   7.151  0.00  0.00    +0.000 A 
ATOM     16  N   UNL     1      45.846   2.415   7.514  0.00  0.00    +0.000 N 
ATOM     17  C   UNL     1      45.198   2.559   8.712  0.00  0.00    +0.000 A 
ATOM     18  H   UNL     1      45.958   1.563   6.986  0.00  0.00    +0.000 HD
BRANCH  17  19
ATOM     19  O   UNL     1      44.605   1.546   9.331  0.00  0.00    +0.000 OA
ATOM     20  H   UNL     1      45.073   0.711   9.166  0.00  0.00    +0.000 HD
ENDBRANCH  17  19
ENDBRANCH  10  13
ENDBRANCH   8   9
ENDBRANCH   5   8
ENDBRANCH   1   2
BRANCH   1  21
ATOM     21  N   UNL     1      49.483   7.873  15.999  0.00  0.00    +0.000 N 
ATOM     22  C   UNL     1      48.708   8.399  17.008  0.00  0.00    +0.000 C 
ATOM     23  O   UNL     1      47.829   9.231  16.793  0.00  0.00    +0.000 OA
ATOM     24  H   UNL     1      50.402   7.538  16.271  0.00  0.00    +0.000 HD
BRANCH  22  25
ATOM     25  C   UNL     1      48.894   7.829  18.346  0.00  0.00    +0.000 A 
ATOM     26  C   UNL     1      49.326   8.645  19.383  0.00  0.00    +0.000 A 
ATOM     27  S   UNL     1      49.453   7.838  20.880  0.00  0.00    +0.000 S 
ATOM     28  C   UNL     1      48.979   6.359  20.183  0.00  0.00    +0.000 A 
ATOM     29  N   UNL     1      48.913   5.224  20.925  0.00  0.00    +0.000 NA
ATOM     30  C   UNL     1      48.566   4.171  20.260  0.00  0.00    +0.000 A 
ATOM     31  N   UNL     1      48.269   4.155  18.921  0.00  0.00    +0.000 N 
ATOM     32  C   UNL     1      48.296   5.286  18.137  0.00  0.00    +0.000 A 
ATOM     33  O   UNL     1      47.983   5.257  16.952  0.00  0.00    +0.000 OA
ATOM     34  C   UNL     1      48.701   6.489  18.833  0.00  0.00    +0.000 A 
ATOM     35  H   UNL     1      47.994   3.299  18.464  0.00  0.00    +0.000 HD
ENDBRANCH  22  25
ENDBRANCH   1  21
BRANCH   1  36
ATOM     36  N   UNL     1      49.461   9.802  14.741  0.00  0.00    +0.000 NA
ATOM     37  H   UNL     1      50.451  10.034  14.849  0.00  0.00    +0.000 HD
ATOM     38  H   UNL     1      49.022  10.071  15.617  0.00  0.00    +0.000 HD
ENDBRANCH   1  36
TORSDOF 8
ENDMDL
MODEL 9
REMARK VINA RESULT:    -6.356      3.004      9.221
REMARK INTER + INTRA:         -10.160
REMARK INTER:                  -8.738
REMARK INTRA:                  -1.422
REMARK UNBOUND:                -1.203
REMARK  Name = 
REMARK  8 active torsions:
REMARK  status: ('A' for Active; 'I' for Inactive)
REMARK    1  A    between atoms: N_1  and  C_2
REMARK    2  A    between atoms: C_2  and  N_3
REMARK    3  A    between atoms: C_2  and  C_16
REMARK    4  A    between atoms: C_4  and  C_6
REMARK    5  A    between atoms: C_19  and  C_20
REMARK    6  A    between atoms: C_20  and  N_21
REMARK    7  A    between atoms: C_22  and  C_24
REMARK    8  A    between atoms: C_28  and  O_29
REMARK                            x       y       z     vdW  Elec       q    Type
REMARK                         _______ _______ _______ _____ _____    ______ ____
ROOT
ATOM      1  C   UNL     1      44.915   6.460  11.924  0.00  0.00    +0.000 C 
ENDROOT
BRANCH   1   2
ATOM      2  C   UNL     1      46.093   7.000  12.717  0.00  0.00    +0.000 A 
ATOM      3  C   UNL     1      47.040   6.090  13.221  0.00  0.00    +0.000 A 
ATOM      4  C   UNL     1      48.080   6.510  14.055  0.00  0.00    +0.000 A 
ATOM      5  C   UNL     1      48.196   7.854  14.427  0.00  0.00    +0.000 A 
ATOM      6  C   UNL     1      47.277   8.775  13.906  0.00  0.00    +0.000 A 
ATOM      7  C   UNL     1      46.231   8.352  13.073  0.00  0.00    +0.000 A 
BRANCH   5   8
ATOM      8  C   UNL     1      49.236   8.281  15.428  0.00  0.00    +0.000 C 
BRANCH   8   9
ATOM      9  N   UNL     1      49.734   7.209  16.246  0.00  0.00    +0.000 N 
ATOM     10  C   UNL     1      49.147   6.953  17.470  0.00  0.00    +0.000 C 
ATOM     11  O   UNL     1      48.225   7.634  17.910  0.00  0.00    +0.000 OA
ATOM     12  H   UNL     1      50.439   6.559  15.915  0.00  0.00    +0.000 HD
BRANCH  10  13
ATOM     13  C   UNL     1      49.727   5.811  18.178  0.00  0.00    +0.000 A 
ATOM     14  N   UNL     1      51.041   5.385  17.991  0.00  0.00    +0.000 NA
ATOM     15  C   UNL     1      51.198   4.368  18.805  0.00  0.00    +0.000 A 
ATOM     16  N   UNL     1      50.054   4.097  19.503  0.00  0.00    +0.000 N 
ATOM     17  C   UNL     1      49.099   4.999  19.114  0.00  0.00    +0.000 A 
ATOM     18  H   UNL     1      49.949   3.364  20.188  0.00  0.00    +0.000 HD
BRANCH  17  19
ATOM     19  O   UNL     1      47.868   4.997  19.611  0.00  0.00    +0.000 OA
ATOM     20  H   UNL     1      47.854   5.341  20.519  0.00  0.00    +0.000 HD
ENDBRANCH  17  19
ENDBRANCH  10  13
ENDBRANCH   8   9
ENDBRANCH   5   8
ENDBRANCH   1   2
BRANCH   1  21
ATOM     21  N   UNL     1      45.239   5.346  11.079  0.00  0.00    +0.000 N 
ATOM     22  C   UNL     1      44.259   4.588  10.477  0.00  0.00    +0.000 C 
ATOM     23  O   UNL     1      43.068   4.887  10.542  0.00  0.00    +0.000 OA
ATOM     24  H   UNL     1      46.091   4.854  11.329  0.00  0.00    +0.000 HD
BRANCH  22  25
ATOM     25  C   UNL     1      44.710   3.471   9.642  0.00  0.00    +0.000 A 
ATOM     26  C   UNL     1      44.164   2.209   9.838  0.00  0.00    +0.000 A 
ATOM     27  S   UNL     1      44.767   1.031   8.762  0.00  0.00    +0.000 S 
ATOM     28  C   UNL     1      45.811   2.158   8.028  0.00  0.00    +0.000 A 
ATOM     29  N   UNL     1      46.653   1.786   7.030  0.00  0.00    +0.000 NA
ATOM     30  C   UNL     1      47.407   2.738   6.587  0.00  0.00    +0.000 A 
ATOM     31  N   UNL     1      47.385   4.031   7.045  0.00  0.00    +0.000 N 
ATOM     32  C   UNL     1      46.529   4.457   8.034  0.00  0.00    +0.000 A 
ATOM     33  O   UNL     1      46.495   5.627   8.398  0.00  0.00    +0.000 OA
ATOM     34  C   UNL     1      45.678   3.420   8.580  0.00  0.00    +0.000 A 
ATOM     35  H   UNL     1      47.995   4.729   6.647  0.00  0.00    +0.000 HD
ENDBRANCH  22  25
ENDBRANCH   1  21
BRANCH   1  36
ATOM     36  N   UNL     1      44.422   7.498  11.043  0.00  0.00    +0.000 NA
ATOM     37  H   UNL     1      44.199   8.297  11.640  0.00  0.00    +0.000 HD
ATOM     38  H   UNL     1      43.531   7.181  10.671  0.00  0.00    +0.000 HD
ENDBRANCH   1  36
TORSDOF 8
ENDMDL
