MODEL 1
REMARK VINA RESULT:    -8.507      0.000      0.000
REMARK INTER + INTRA:         -11.083
REMARK INTER:                 -10.994
REMARK INTRA:                  -0.090
REMARK UNBOUND:                -0.090
REMARK  Name = 
REMARK  6 active torsions:
REMARK  status: ('A' for Active; 'I' for Inactive)
REMARK    1  A    between atoms: C_1  and  C_2
REMARK    2  A    between atoms: C_2  and  N_3
REMARK    3  A    between atoms: C_2  and  C_16
REMARK    4  A    between atoms: C_4  and  C_6
REMARK    5  A    between atoms: C_19  and  C_20
REMARK    6  A    between atoms: C_20  and  C_21
REMARK                            x       y       z     vdW  Elec       q    Type
REMARK                         _______ _______ _______ _____ _____    ______ ____
ROOT
ATOM      1  C   UNL     1      47.965   9.111  12.370  0.00  0.00    +0.000 C 
ATOM      2  C   UNL     1      46.864   8.387  13.155  0.00  0.00    +0.000 C 
ENDROOT
BRANCH   2   3
ATOM      3  C   UNL     1      46.175   7.284  12.371  0.00  0.00    +0.000 A 
ATOM      4  C   UNL     1      44.985   6.727  12.869  0.00  0.00    +0.000 A 
ATOM      5  C   UNL     1      44.296   5.744  12.150  0.00  0.00    +0.000 A 
ATOM      6  C   UNL     1      44.789   5.282  10.925  0.00  0.00    +0.000 A 
ATOM      7  C   UNL     1      45.997   5.802  10.446  0.00  0.00    +0.000 A 
ATOM      8  C   UNL     1      46.689   6.779  11.168  0.00  0.00    +0.000 A 
BRANCH   6   9
ATOM      9  C   UNL     1      44.039   4.240  10.127  0.00  0.00    +0.000 C 
BRANCH   9  10
ATOM     10  C   UNL     1      44.858   3.516   9.086  0.00  0.00    +0.000 A 
ATOM     11  N   UNL     1      45.326   4.231   8.037  0.00  0.00    +0.000 NA
ATOM     12  C   UNL     1      46.144   3.586   7.186  0.00  0.00    +0.000 A 
ATOM     13  C   UNL     1      46.516   2.271   7.336  0.00  0.00    +0.000 A 
ATOM     14  C   UNL     1      45.977   1.627   8.424  0.00  0.00    +0.000 A 
ATOM     15  N   UNL     1      45.154   2.218   9.310  0.00  0.00    +0.000 NA
ENDBRANCH   9  10
ENDBRANCH   6   9
ENDBRANCH   2   3
BRANCH   2  16
ATOM     16  N   UNL     1      47.398   7.846  14.388  0.00  0.00    +0.000 N 
ATOM     17  C   UNL     1      48.413   6.926  14.405  0.00  0.00    +0.000 C 
ATOM     18  O   UNL     1      49.044   6.618  13.397  0.00  0.00    +0.000 OA
ATOM     19  H   UNL     1      46.814   7.953  15.210  0.00  0.00    +0.000 HD
BRANCH  17  20
ATOM     20  C   UNL     1      48.737   6.342  15.711  0.00  0.00    +0.000 A 
ATOM     21  C   UNL     1      49.705   6.930  16.513  0.00  0.00    +0.000 A 
ATOM     22  S   UNL     1      49.970   6.100  17.979  0.00  0.00    +0.000 S 
ATOM     23  C   UNL     1      48.838   4.897  17.568  0.00  0.00    +0.000 A 
ATOM     24  N   UNL     1      48.619   3.832  18.384  0.00  0.00    +0.000 NA
ATOM     25  C   UNL     1      47.766   2.977  17.930  0.00  0.00    +0.000 A 
ATOM     26  N   UNL     1      47.094   3.101  16.741  0.00  0.00    +0.000 N 
ATOM     27  C   UNL     1      47.234   4.191  15.914  0.00  0.00    +0.000 A 
ATOM     28  O   UNL     1      46.539   4.324  14.912  0.00  0.00    +0.000 OA
ATOM     29  C   UNL     1      48.227   5.154  16.353  0.00  0.00    +0.000 A 
ATOM     30  H   UNL     1      46.411   2.413  16.458  0.00  0.00    +0.000 HD
ENDBRANCH  17  20
ENDBRANCH   2  16
TORSDOF 5
ENDMDL
MODEL 2
REMARK VINA RESULT:    -8.087      1.476      1.635
REMARK INTER + INTRA:         -10.540
REMARK INTER:                  -9.516
REMARK INTRA:                  -1.023
REMARK UNBOUND:                -0.090
REMARK  Name = 
REMARK  6 active torsions:
REMARK  status: ('A' for Active; 'I' for Inactive)
REMARK    1  A    between atoms: C_1  and  C_2
REMARK    2  A    between atoms: C_2  and  N_3
REMARK    3  A    between atoms: C_2  and  C_16
REMARK    4  A    between atoms: C_4  and  C_6
REMARK    5  A    between atoms: C_19  and  C_20
REMARK    6  A    between atoms: C_20  and  C_21
REMARK                            x       y       z     vdW  Elec       q    Type
REMARK                         _______ _______ _______ _____ _____    ______ ____
ROOT
ATOM      1  C   UNL     1      48.221   8.532  13.077  0.00  0.00    +0.000 C 
ATOM      2  C   UNL     1      47.390   7.488  13.835  0.00  0.00    +0.000 C 
ENDROOT
BRANCH   2   3
ATOM      3  C   UNL     1      46.537   6.612  12.935  0.00  0.00    +0.000 A 
ATOM      4  C   UNL     1      45.962   7.167  11.780  0.00  0.00    +0.000 A 
ATOM      5  C   UNL     1      45.211   6.379  10.901  0.00  0.00    +0.000 A 
ATOM      6  C   UNL     1      45.002   5.021  11.165  0.00  0.00    +0.000 A 
ATOM      7  C   UNL     1      45.536   4.473  12.337  0.00  0.00    +0.000 A 
ATOM      8  C   UNL     1      46.280   5.263  13.219  0.00  0.00    +0.000 A 
BRANCH   6   9
ATOM      9  C   UNL     1      44.216   4.154  10.210  0.00  0.00    +0.000 C 
BRANCH   9  10
ATOM     10  C   UNL     1      45.029   3.495   9.121  0.00  0.00    +0.000 A 
ATOM     11  N   UNL     1      45.553   4.284   8.155  0.00  0.00    +0.000 NA
ATOM     12  C   UNL     1      46.364   3.686   7.264  0.00  0.00    +0.000 A 
ATOM     13  C   UNL     1      46.675   2.348   7.296  0.00  0.00    +0.000 A 
ATOM     14  C   UNL     1      46.083   1.629   8.307  0.00  0.00    +0.000 A 
ATOM     15  N   UNL     1      45.263   2.170   9.227  0.00  0.00    +0.000 NA
ENDBRANCH   9  10
ENDBRANCH   6   9
ENDBRANCH   2   3
BRANCH   2  16
ATOM     16  N   UNL     1      48.252   6.656  14.649  0.00  0.00    +0.000 N 
ATOM     17  C   UNL     1      48.777   7.088  15.839  0.00  0.00    +0.000 C 
ATOM     18  O   UNL     1      48.430   8.138  16.373  0.00  0.00    +0.000 OA
ATOM     19  H   UNL     1      48.677   5.864  14.179  0.00  0.00    +0.000 HD
BRANCH  17  20
ATOM     20  C   UNL     1      49.764   6.205  16.469  0.00  0.00    +0.000 A 
ATOM     21  C   UNL     1      51.045   6.672  16.731  0.00  0.00    +0.000 A 
ATOM     22  S   UNL     1      52.066   5.502  17.438  0.00  0.00    +0.000 S 
ATOM     23  C   UNL     1      50.846   4.316  17.368  0.00  0.00    +0.000 A 
ATOM     24  N   UNL     1      51.086   3.040  17.772  0.00  0.00    +0.000 NA
ATOM     25  C   UNL     1      50.086   2.237  17.626  0.00  0.00    +0.000 A 
ATOM     26  N   UNL     1      48.860   2.599  17.132  0.00  0.00    +0.000 N 
ATOM     27  C   UNL     1      48.551   3.890  16.771  0.00  0.00    +0.000 A 
ATOM     28  O   UNL     1      47.413   4.202  16.436  0.00  0.00    +0.000 OA
ATOM     29  C   UNL     1      49.661   4.820  16.863  0.00  0.00    +0.000 A 
ATOM     30  H   UNL     1      48.106   1.929  17.075  0.00  0.00    +0.000 HD
ENDBRANCH  17  20
ENDBRANCH   2  16
TORSDOF 5
ENDMDL
MODEL 3
REMARK VINA RESULT:    -7.757      2.756      3.798
REMARK INTER + INTRA:         -10.114
REMARK INTER:                  -9.109
REMARK INTRA:                  -1.005
REMARK UNBOUND:                -0.090
REMARK  Name = 
REMARK  6 active torsions:
REMARK  status: ('A' for Active; 'I' for Inactive)
REMARK    1  A    between atoms: C_1  and  C_2
REMARK    2  A    between atoms: C_2  and  N_3
REMARK    3  A    between atoms: C_2  and  C_16
REMARK    4  A    between atoms: C_4  and  C_6
REMARK    5  A    between atoms: C_19  and  C_20
REMARK    6  A    between atoms: C_20  and  C_21
REMARK                            x       y       z     vdW  Elec       q    Type
REMARK                         _______ _______ _______ _____ _____    ______ ____
ROOT
ATOM      1  C   UNL     1      47.285   4.386  16.188  0.00  0.00    +0.000 C 
ATOM      2  C   UNL     1      47.759   5.167  14.957  0.00  0.00    +0.000 C 
ENDROOT
BRANCH   2   3
ATOM      3  C   UNL     1      46.879   4.980  13.733  0.00  0.00    +0.000 A 
ATOM      4  C   UNL     1      46.724   6.043  12.829  0.00  0.00    +0.000 A 
ATOM      5  C   UNL     1      45.961   5.891  11.666  0.00  0.00    +0.000 A 
ATOM      6  C   UNL     1      45.321   4.678  11.388  0.00  0.00    +0.000 A 
ATOM      7  C   UNL     1      45.437   3.630  12.308  0.00  0.00    +0.000 A 
ATOM      8  C   UNL     1      46.192   3.784  13.474  0.00  0.00    +0.000 A 
BRANCH   6   9
ATOM      9  C   UNL     1      44.517   4.494  10.122  0.00  0.00    +0.000 C 
BRANCH   9  10
ATOM     10  C   UNL     1      45.206   3.713   9.030  0.00  0.00    +0.000 A 
ATOM     11  N   UNL     1      45.832   4.406   8.052  0.00  0.00    +0.000 NA
ATOM     12  C   UNL     1      46.531   3.686   7.156  0.00  0.00    +0.000 A 
ATOM     13  C   UNL     1      46.636   2.316   7.196  0.00  0.00    +0.000 A 
ATOM     14  C   UNL     1      45.954   1.702   8.220  0.00  0.00    +0.000 A 
ATOM     15  N   UNL     1      45.238   2.368   9.144  0.00  0.00    +0.000 NA
ENDBRANCH   9  10
ENDBRANCH   6   9
ENDBRANCH   2   3
BRANCH   2  16
ATOM     16  N   UNL     1      47.865   6.578  15.268  0.00  0.00    +0.000 N 
ATOM     17  C   UNL     1      49.060   7.172  15.577  0.00  0.00    +0.000 C 
ATOM     18  O   UNL     1      50.137   6.595  15.458  0.00  0.00    +0.000 OA
ATOM     19  H   UNL     1      47.001   7.042  15.525  0.00  0.00    +0.000 HD
BRANCH  17  20
ATOM     20  C   UNL     1      48.992   8.564  16.035  0.00  0.00    +0.000 A 
ATOM     21  C   UNL     1      49.483   9.583  15.230  0.00  0.00    +0.000 A 
ATOM     22  S   UNL     1      49.348  11.131  15.934  0.00  0.00    +0.000 S 
ATOM     23  C   UNL     1      48.679  10.486  17.360  0.00  0.00    +0.000 A 
ATOM     24  N   UNL     1      48.379  11.285  18.418  0.00  0.00    +0.000 NA
ATOM     25  C   UNL     1      47.917  10.659  19.447  0.00  0.00    +0.000 A 
ATOM     26  N   UNL     1      47.707   9.306  19.507  0.00  0.00    +0.000 N 
ATOM     27  C   UNL     1      47.935   8.466  18.442  0.00  0.00    +0.000 A 
ATOM     28  O   UNL     1      47.635   7.277  18.493  0.00  0.00    +0.000 OA
ATOM     29  C   UNL     1      48.510   9.115  17.279  0.00  0.00    +0.000 A 
ATOM     30  H   UNL     1      47.309   8.880  20.332  0.00  0.00    +0.000 HD
ENDBRANCH  17  20
ENDBRANCH   2  16
TORSDOF 5
ENDMDL
MODEL 4
REMARK VINA RESULT:    -7.709      1.876      2.187
REMARK INTER + INTRA:         -10.052
REMARK INTER:                  -9.113
REMARK INTRA:                  -0.939
REMARK UNBOUND:                -0.090
REMARK  Name = 
REMARK  6 active torsions:
REMARK  status: ('A' for Active; 'I' for Inactive)
REMARK    1  A    between atoms: C_1  and  C_2
REMARK    2  A    between atoms: C_2  and  N_3
REMARK    3  A    between atoms: C_2  and  C_16
REMARK    4  A    between atoms: C_4  and  C_6
REMARK    5  A    between atoms: C_19  and  C_20
REMARK    6  A    between atoms: C_20  and  C_21
REMARK                            x       y       z     vdW  Elec       q    Type
REMARK                         _______ _______ _______ _____ _____    ______ ____
ROOT
ATOM      1  C   UNL     1      49.538   7.481  13.364  0.00  0.00    +0.000 C 
ATOM      2  C   UNL     1      48.092   7.814  13.755  0.00  0.00    +0.000 C 
ENDROOT
BRANCH   2   3
ATOM      3  C   UNL     1      47.049   7.037  12.970  0.00  0.00    +0.000 A 
ATOM      4  C   UNL     1      46.255   7.711  12.028  0.00  0.00    +0.000 A 
ATOM      5  C   UNL     1      45.319   7.020  11.251  0.00  0.00    +0.000 A 
ATOM      6  C   UNL     1      45.143   5.641  11.410  0.00  0.00    +0.000 A 
ATOM      7  C   UNL     1      45.902   4.972  12.377  0.00  0.00    +0.000 A 
ATOM      8  C   UNL     1      46.831   5.664  13.159  0.00  0.00    +0.000 A 
BRANCH   6   9
ATOM      9  C   UNL     1      44.154   4.879  10.557  0.00  0.00    +0.000 C 
BRANCH   9  10
ATOM     10  C   UNL     1      44.767   3.962   9.527  0.00  0.00    +0.000 A 
ATOM     11  N   UNL     1      45.433   4.524   8.493  0.00  0.00    +0.000 NA
ATOM     12  C   UNL     1      46.063   3.682   7.653  0.00  0.00    +0.000 A 
ATOM     13  C   UNL     1      46.060   2.316   7.801  0.00  0.00    +0.000 A 
ATOM     14  C   UNL     1      45.344   1.841   8.874  0.00  0.00    +0.000 A 
ATOM     15  N   UNL     1      44.694   2.632   9.748  0.00  0.00    +0.000 NA
ENDBRANCH   9  10
ENDBRANCH   6   9
ENDBRANCH   2   3
BRANCH   2  16
ATOM     16  N   UNL     1      47.893   7.597  15.174  0.00  0.00    +0.000 N 
ATOM     17  C   UNL     1      48.472   8.397  16.125  0.00  0.00    +0.000 C 
ATOM     18  O   UNL     1      49.061   9.437  15.845  0.00  0.00    +0.000 OA
ATOM     19  H   UNL     1      47.552   6.680  15.439  0.00  0.00    +0.000 HD
BRANCH  17  20
ATOM     20  C   UNL     1      48.322   7.959  17.517  0.00  0.00    +0.000 A 
ATOM     21  C   UNL     1      47.917   8.864  18.488  0.00  0.00    +0.000 A 
ATOM     22  S   UNL     1      47.826   8.189  20.052  0.00  0.00    +0.000 S 
ATOM     23  C   UNL     1      48.376   6.678  19.493  0.00  0.00    +0.000 A 
ATOM     24  N   UNL     1      48.583   5.645  20.352  0.00  0.00    +0.000 NA
ATOM     25  C   UNL     1      49.039   4.573  19.798  0.00  0.00    +0.000 A 
ATOM     26  N   UNL     1      49.289   4.432  18.458  0.00  0.00    +0.000 N 
ATOM     27  C   UNL     1      49.036   5.427  17.542  0.00  0.00    +0.000 A 
ATOM     28  O   UNL     1      49.168   5.232  16.338  0.00  0.00    +0.000 OA
ATOM     29  C   UNL     1      48.575   6.674  18.123  0.00  0.00    +0.000 A 
ATOM     30  H   UNL     1      49.614   3.553  18.081  0.00  0.00    +0.000 HD
ENDBRANCH  17  20
ENDBRANCH   2  16
TORSDOF 5
ENDMDL
MODEL 5
REMARK VINA RESULT:    -7.396      3.220      4.186
REMARK INTER + INTRA:          -9.648
REMARK INTER:                  -9.498
REMARK INTRA:                  -0.150
REMARK UNBOUND:                -0.090
REMARK  Name = 
REMARK  6 active torsions:
REMARK  status: ('A' for Active; 'I' for Inactive)
REMARK    1  A    between atoms: C_1  and  C_2
REMARK    2  A    between atoms: C_2  and  N_3
REMARK    3  A    between atoms: C_2  and  C_16
REMARK    4  A    between atoms: C_4  and  C_6
REMARK    5  A    between atoms: C_19  and  C_20
REMARK    6  A    between atoms: C_20  and  C_21
REMARK                            x       y       z     vdW  Elec       q    Type
REMARK                         _______ _______ _______ _____ _____    ______ ____
ROOT
ATOM      1  C   UNL     1      45.272   8.417  12.649  0.00  0.00    +0.000 C 
ATOM      2  C   UNL     1      46.120   7.166  12.913  0.00  0.00    +0.000 C 
ENDROOT
BRANCH   2   3
ATOM      3  C   UNL     1      45.688   5.951  12.111  0.00  0.00    +0.000 A 
ATOM      4  C   UNL     1      45.478   6.079  10.728  0.00  0.00    +0.000 A 
ATOM      5  C   UNL     1      45.128   4.971   9.948  0.00  0.00    +0.000 A 
ATOM      6  C   UNL     1      44.962   3.712  10.536  0.00  0.00    +0.000 A 
ATOM      7  C   UNL     1      45.127   3.588  11.921  0.00  0.00    +0.000 A 
ATOM      8  C   UNL     1      45.469   4.697  12.700  0.00  0.00    +0.000 A 
BRANCH   6   9
ATOM      9  C   UNL     1      44.610   2.503   9.701  0.00  0.00    +0.000 C 
BRANCH   9  10
ATOM     10  C   UNL     1      45.485   2.281   8.491  0.00  0.00    +0.000 A 
ATOM     11  N   UNL     1      45.585   3.283   7.588  0.00  0.00    +0.000 NA
ATOM     12  C   UNL     1      46.457   3.100   6.580  0.00  0.00    +0.000 A 
ATOM     13  C   UNL     1      47.230   1.973   6.437  0.00  0.00    +0.000 A 
ATOM     14  C   UNL     1      47.047   1.007   7.398  0.00  0.00    +0.000 A 
ATOM     15  N   UNL     1      46.190   1.132   8.428  0.00  0.00    +0.000 NA
ENDBRANCH   9  10
ENDBRANCH   6   9
ENDBRANCH   2   3
BRANCH   2  16
ATOM     16  N   UNL     1      47.518   7.445  12.656  0.00  0.00    +0.000 N 
ATOM     17  C   UNL     1      48.266   8.251  13.474  0.00  0.00    +0.000 C 
ATOM     18  O   UNL     1      47.856   8.659  14.557  0.00  0.00    +0.000 OA
ATOM     19  H   UNL     1      47.842   7.261  11.713  0.00  0.00    +0.000 HD
BRANCH  17  20
ATOM     20  C   UNL     1      49.615   8.580  13.001  0.00  0.00    +0.000 A 
ATOM     21  C   UNL     1      49.786   9.214  11.778  0.00  0.00    +0.000 A 
ATOM     22  S   UNL     1      51.420   9.491  11.376  0.00  0.00    +0.000 S 
ATOM     23  C   UNL     1      51.957   8.725  12.798  0.00  0.00    +0.000 A 
ATOM     24  N   UNL     1      53.284   8.566  13.051  0.00  0.00    +0.000 NA
ATOM     25  C   UNL     1      53.547   7.933  14.144  0.00  0.00    +0.000 A 
ATOM     26  N   UNL     1      52.604   7.461  15.020  0.00  0.00    +0.000 N 
ATOM     27  C   UNL     1      51.254   7.654  14.839  0.00  0.00    +0.000 A 
ATOM     28  O   UNL     1      50.443   7.316  15.695  0.00  0.00    +0.000 OA
ATOM     29  C   UNL     1      50.904   8.312  13.595  0.00  0.00    +0.000 A 
ATOM     30  H   UNL     1      52.877   7.003  15.877  0.00  0.00    +0.000 HD
ENDBRANCH  17  20
ENDBRANCH   2  16
TORSDOF 5
ENDMDL
MODEL 6
REMARK VINA RESULT:    -7.180      4.471      7.089
REMARK INTER + INTRA:          -9.368
REMARK INTER:                  -8.431
REMARK INTRA:                  -0.937
REMARK UNBOUND:                -0.090
REMARK  Name = 
REMARK  6 active torsions:
REMARK  status: ('A' for Active; 'I' for Inactive)
REMARK    1  A    between atoms: C_1  and  C_2
REMARK    2  A    between atoms: C_2  and  N_3
REMARK    3  A    between atoms: C_2  and  C_16
REMARK    4  A    between atoms: C_4  and  C_6
REMARK    5  A    between atoms: C_19  and  C_20
REMARK    6  A    between atoms: C_20  and  C_21
REMARK                            x       y       z     vdW  Elec       q    Type
REMARK                         _______ _______ _______ _____ _____    ______ ____
ROOT
ATOM      1  C   UNL     1      47.116   8.655  13.989  0.00  0.00    +0.000 C 
ATOM      2  C   UNL     1      47.186   8.378  12.482  0.00  0.00    +0.000 C 
ENDROOT
BRANCH   2   3
ATOM      3  C   UNL     1      48.592   8.440  11.910  0.00  0.00    +0.000 A 
ATOM      4  C   UNL     1      49.137   9.687  11.562  0.00  0.00    +0.000 A 
ATOM      5  C   UNL     1      50.446   9.788  11.079  0.00  0.00    +0.000 A 
ATOM      6  C   UNL     1      51.236   8.644  10.917  0.00  0.00    +0.000 A 
ATOM      7  C   UNL     1      50.681   7.395  11.222  0.00  0.00    +0.000 A 
ATOM      8  C   UNL     1      49.371   7.293  11.697  0.00  0.00    +0.000 A 
BRANCH   6   9
ATOM      9  C   UNL     1      52.660   8.744  10.422  0.00  0.00    +0.000 C 
BRANCH   9  10
ATOM     10  C   UNL     1      53.134   7.578   9.589  0.00  0.00    +0.000 A 
ATOM     11  N   UNL     1      53.897   6.637  10.191  0.00  0.00    +0.000 NA
ATOM     12  C   UNL     1      54.210   5.555   9.455  0.00  0.00    +0.000 A 
ATOM     13  C   UNL     1      53.797   5.371   8.158  0.00  0.00    +0.000 A 
ATOM     14  C   UNL     1      53.038   6.389   7.631  0.00  0.00    +0.000 A 
ATOM     15  N   UNL     1      52.692   7.494   8.316  0.00  0.00    +0.000 NA
ENDBRANCH   9  10
ENDBRANCH   6   9
ENDBRANCH   2   3
BRANCH   2  16
ATOM     16  N   UNL     1      46.595   7.091  12.180  0.00  0.00    +0.000 N 
ATOM     17  C   UNL     1      45.363   6.970  11.592  0.00  0.00    +0.000 C 
ATOM     18  O   UNL     1      44.749   7.931  11.137  0.00  0.00    +0.000 OA
ATOM     19  H   UNL     1      46.989   6.296  12.671  0.00  0.00    +0.000 HD
BRANCH  17  20
ATOM     20  C   UNL     1      44.819   5.611  11.502  0.00  0.00    +0.000 A 
ATOM     21  C   UNL     1      44.091   5.083  12.559  0.00  0.00    +0.000 A 
ATOM     22  S   UNL     1      43.563   3.483  12.292  0.00  0.00    +0.000 S 
ATOM     23  C   UNL     1      44.336   3.422  10.776  0.00  0.00    +0.000 A 
ATOM     24  N   UNL     1      44.324   2.288  10.027  0.00  0.00    +0.000 NA
ATOM     25  C   UNL     1      44.983   2.370   8.921  0.00  0.00    +0.000 A 
ATOM     26  N   UNL     1      45.636   3.493   8.483  0.00  0.00    +0.000 N 
ATOM     27  C   UNL     1      45.622   4.682   9.174  0.00  0.00    +0.000 A 
ATOM     28  O   UNL     1      46.125   5.698   8.703  0.00  0.00    +0.000 OA
ATOM     29  C   UNL     1      44.942   4.624  10.454  0.00  0.00    +0.000 A 
ATOM     30  H   UNL     1      46.105   3.503   7.589  0.00  0.00    +0.000 HD
ENDBRANCH  17  20
ENDBRANCH   2  16
TORSDOF 5
ENDMDL
MODEL 7
REMARK VINA RESULT:    -7.165      2.576      3.307
REMARK INTER + INTRA:          -9.349
REMARK INTER:                  -8.709
REMARK INTRA:                  -0.641
REMARK UNBOUND:                -0.090
REMARK  Name = 
REMARK  6 active torsions:
REMARK  status: ('A' for Active; 'I' for Inactive)
REMARK    1  A    between atoms: C_1  and  C_2
REMARK    2  A    between atoms: C_2  and  N_3
REMARK    3  A    between atoms: C_2  and  C_16
REMARK    4  A    between atoms: C_4  and  C_6
REMARK    5  A    between atoms: C_19  and  C_20
REMARK    6  A    between atoms: C_20  and  C_21
REMARK                            x       y       z     vdW  Elec       q    Type
REMARK                         _______ _______ _______ _____ _____    ______ ____
ROOT
ATOM      1  C   UNL     1      50.128   8.275  14.299  0.00  0.00    +0.000 C 
ATOM      2  C   UNL     1      49.270   7.348  15.170  0.00  0.00    +0.000 C 
ENDROOT
BRANCH   2   3
ATOM      3  C   UNL     1      48.124   6.690  14.421  0.00  0.00    +0.000 A 
ATOM      4  C   UNL     1      47.777   5.364  14.725  0.00  0.00    +0.000 A 
ATOM      5  C   UNL     1      46.696   4.741  14.091  0.00  0.00    +0.000 A 
ATOM      6  C   UNL     1      45.946   5.425  13.127  0.00  0.00    +0.000 A 
ATOM      7  C   UNL     1      46.315   6.732  12.790  0.00  0.00    +0.000 A 
ATOM      8  C   UNL     1      47.400   7.351  13.417  0.00  0.00    +0.000 A 
BRANCH   6   9
ATOM      9  C   UNL     1      44.760   4.772  12.457  0.00  0.00    +0.000 C 
BRANCH   9  10
ATOM     10  C   UNL     1      45.014   4.257  11.060  0.00  0.00    +0.000 A 
ATOM     11  N   UNL     1      44.752   2.955  10.807  0.00  0.00    +0.000 NA
ATOM     12  C   UNL     1      44.881   2.552   9.530  0.00  0.00    +0.000 A 
ATOM     13  C   UNL     1      45.254   3.386   8.503  0.00  0.00    +0.000 A 
ATOM     14  C   UNL     1      45.512   4.687   8.864  0.00  0.00    +0.000 A 
ATOM     15  N   UNL     1      45.400   5.149  10.123  0.00  0.00    +0.000 NA
ENDBRANCH   9  10
ENDBRANCH   6   9
ENDBRANCH   2   3
BRANCH   2  16
ATOM     16  N   UNL     1      50.097   6.330  15.785  0.00  0.00    +0.000 N 
ATOM     17  C   UNL     1      50.055   6.066  17.129  0.00  0.00    +0.000 C 
ATOM     18  O   UNL     1      49.209   6.554  17.873  0.00  0.00    +0.000 OA
ATOM     19  H   UNL     1      50.899   6.024  15.245  0.00  0.00    +0.000 HD
BRANCH  17  20
ATOM     20  C   UNL     1      51.065   5.131  17.637  0.00  0.00    +0.000 A 
ATOM     21  C   UNL     1      52.222   5.615  18.230  0.00  0.00    +0.000 A 
ATOM     22  S   UNL     1      53.294   4.388  18.734  0.00  0.00    +0.000 S 
ATOM     23  C   UNL     1      52.273   3.169  18.126  0.00  0.00    +0.000 A 
ATOM     24  N   UNL     1      52.633   1.859  18.183  0.00  0.00    +0.000 NA
ATOM     25  C   UNL     1      51.784   1.048  17.650  0.00  0.00    +0.000 A 
ATOM     26  N   UNL     1      50.594   1.425  17.082  0.00  0.00    +0.000 N 
ATOM     27  C   UNL     1      50.158   2.730  17.059  0.00  0.00    +0.000 A 
ATOM     28  O   UNL     1      49.041   3.020  16.642  0.00  0.00    +0.000 OA
ATOM     29  C   UNL     1      51.105   3.688  17.596  0.00  0.00    +0.000 A 
ATOM     30  H   UNL     1      49.956   0.736  16.712  0.00  0.00    +0.000 HD
ENDBRANCH  17  20
ENDBRANCH   2  16
TORSDOF 5
ENDMDL
MODEL 8
REMARK VINA RESULT:    -7.083      4.375      8.728
REMARK INTER + INTRA:          -9.243
REMARK INTER:                  -8.306
REMARK INTRA:                  -0.937
REMARK UNBOUND:                -0.090
REMARK  Name = 
REMARK  6 active torsions:
REMARK  status: ('A' for Active; 'I' for Inactive)
REMARK    1  A    between atoms: C_1  and  C_2
REMARK    2  A    between atoms: C_2  and  N_3
REMARK    3  A    between atoms: C_2  and  C_16
REMARK    4  A    between atoms: C_4  and  C_6
REMARK    5  A    between atoms: C_19  and  C_20
REMARK    6  A    between atoms: C_20  and  C_21
REMARK                            x       y       z     vdW  Elec       q    Type
REMARK                         _______ _______ _______ _____ _____    ______ ____
ROOT
ATOM      1  C   UNL     1      47.330   2.931  17.497  0.00  0.00    +0.000 C 
ATOM      2  C   UNL     1      48.390   4.021  17.293  0.00  0.00    +0.000 C 
ENDROOT
BRANCH   2   3
ATOM      3  C   UNL     1      49.809   3.557  17.576  0.00  0.00    +0.000 A 
ATOM      4  C   UNL     1      50.186   2.249  17.233  0.00  0.00    +0.000 A 
ATOM      5  C   UNL     1      51.497   1.802  17.434  0.00  0.00    +0.000 A 
ATOM      6  C   UNL     1      52.458   2.649  17.998  0.00  0.00    +0.000 A 
ATOM      7  C   UNL     1      52.076   3.940  18.381  0.00  0.00    +0.000 A 
ATOM      8  C   UNL     1      50.764   4.383  18.188  0.00  0.00    +0.000 A 
BRANCH   6   9
ATOM      9  C   UNL     1      53.883   2.187  18.194  0.00  0.00    +0.000 C 
BRANCH   9  10
ATOM     10  C   UNL     1      54.127   0.723  17.921  0.00  0.00    +0.000 A 
ATOM     11  N   UNL     1      54.575   0.372  16.694  0.00  0.00    +0.000 NA
ATOM     12  C   UNL     1      54.890  -0.923  16.516  0.00  0.00    +0.000 A 
ATOM     13  C   UNL     1      54.782  -1.876  17.501  0.00  0.00    +0.000 A 
ATOM     14  C   UNL     1      54.304  -1.423  18.708  0.00  0.00    +0.000 A 
ATOM     15  N   UNL     1      53.973  -0.142  18.947  0.00  0.00    +0.000 NA
ENDBRANCH   9  10
ENDBRANCH   6   9
ENDBRANCH   2   3
BRANCH   2  16
ATOM     16  N   UNL     1      48.312   4.551  15.947  0.00  0.00    +0.000 N 
ATOM     17  C   UNL     1      48.352   5.896  15.687  0.00  0.00    +0.000 C 
ATOM     18  O   UNL     1      48.615   6.730  16.549  0.00  0.00    +0.000 OA
ATOM     19  H   UNL     1      47.945   3.922  15.242  0.00  0.00    +0.000 HD
BRANCH  17  20
ATOM     20  C   UNL     1      48.093   6.295  14.299  0.00  0.00    +0.000 A 
ATOM     21  C   UNL     1      48.845   7.305  13.716  0.00  0.00    +0.000 A 
ATOM     22  S   UNL     1      48.386   7.656  12.111  0.00  0.00    +0.000 S 
ATOM     23  C   UNL     1      47.131   6.507  12.160  0.00  0.00    +0.000 A 
ATOM     24  N   UNL     1      46.293   6.339  11.103  0.00  0.00    +0.000 NA
ATOM     25  C   UNL     1      45.363   5.464  11.291  0.00  0.00    +0.000 A 
ATOM     26  N   UNL     1      45.207   4.726  12.436  0.00  0.00    +0.000 N 
ATOM     27  C   UNL     1      46.067   4.815  13.506  0.00  0.00    +0.000 A 
ATOM     28  O   UNL     1      45.964   4.063  14.470  0.00  0.00    +0.000 OA
ATOM     29  C   UNL     1      47.097   5.827  13.364  0.00  0.00    +0.000 A 
ATOM     30  H   UNL     1      44.478   4.031  12.508  0.00  0.00    +0.000 HD
ENDBRANCH  17  20
ENDBRANCH   2  16
TORSDOF 5
ENDMDL
MODEL 9
REMARK VINA RESULT:    -6.983      3.041      4.358
REMARK INTER + INTRA:          -9.114
REMARK INTER:                  -8.085
REMARK INTRA:                  -1.029
REMARK UNBOUND:                -0.090
REMARK  Name = 
REMARK  6 active torsions:
REMARK  status: ('A' for Active; 'I' for Inactive)
REMARK    1  A    between atoms: C_1  and  C_2
REMARK    2  A    between atoms: C_2  and  N_3
REMARK    3  A    between atoms: C_2  and  C_16
REMARK    4  A    between atoms: C_4  and  C_6
REMARK    5  A    between atoms: C_19  and  C_20
REMARK    6  A    between atoms: C_20  and  C_21
REMARK                            x       y       z     vdW  Elec       q    Type
REMARK                         _______ _______ _______ _____ _____    ______ ____
ROOT
ATOM      1  C   UNL     1      51.796   8.520  14.643  0.00  0.00    +0.000 C 
ATOM      2  C   UNL     1      50.670   7.706  15.293  0.00  0.00    +0.000 C 
ENDROOT
BRANCH   2   3
ATOM      3  C   UNL     1      49.546   7.341  14.338  0.00  0.00    +0.000 A 
ATOM      4  C   UNL     1      49.577   7.830  13.022  0.00  0.00    +0.000 A 
ATOM      5  C   UNL     1      48.586   7.475  12.100  0.00  0.00    +0.000 A 
ATOM      6  C   UNL     1      47.531   6.637  12.478  0.00  0.00    +0.000 A 
ATOM      7  C   UNL     1      47.472   6.182  13.800  0.00  0.00    +0.000 A 
ATOM      8  C   UNL     1      48.459   6.543  14.723  0.00  0.00    +0.000 A 
BRANCH   6   9
ATOM      9  C   UNL     1      46.469   6.225  11.484  0.00  0.00    +0.000 C 
BRANCH   9  10
ATOM     10  C   UNL     1      45.382   5.336  12.036  0.00  0.00    +0.000 A 
ATOM     11  N   UNL     1      44.298   5.927  12.589  0.00  0.00    +0.000 NA
ATOM     12  C   UNL     1      43.298   5.113  12.971  0.00  0.00    +0.000 A 
ATOM     13  C   UNL     1      43.329   3.747  12.823  0.00  0.00    +0.000 A 
ATOM     14  C   UNL     1      44.478   3.241  12.264  0.00  0.00    +0.000 A 
ATOM     15  N   UNL     1      45.512   4.003  11.863  0.00  0.00    +0.000 NA
ENDBRANCH   9  10
ENDBRANCH   6   9
ENDBRANCH   2   3
BRANCH   2  16
ATOM     16  N   UNL     1      51.205   6.502  15.896  0.00  0.00    +0.000 N 
ATOM     17  C   UNL     1      51.257   6.324  17.253  0.00  0.00    +0.000 C 
ATOM     18  O   UNL     1      50.714   7.092  18.043  0.00  0.00    +0.000 OA
ATOM     19  H   UNL     1      51.792   5.930  15.299  0.00  0.00    +0.000 HD
BRANCH  17  20
ATOM     20  C   UNL     1      51.977   5.135  17.723  0.00  0.00    +0.000 A 
ATOM     21  C   UNL     1      53.229   5.268  18.308  0.00  0.00    +0.000 A 
ATOM     22  S   UNL     1      53.929   3.781  18.766  0.00  0.00    +0.000 S 
ATOM     23  C   UNL     1      52.605   2.905  18.149  0.00  0.00    +0.000 A 
ATOM     24  N   UNL     1      52.593   1.546  18.170  0.00  0.00    +0.000 NA
ATOM     25  C   UNL     1      51.548   1.013  17.634  0.00  0.00    +0.000 A 
ATOM     26  N   UNL     1      50.502   1.716  17.095  0.00  0.00    +0.000 N 
ATOM     27  C   UNL     1      50.440   3.090  17.108  0.00  0.00    +0.000 A 
ATOM     28  O   UNL     1      49.441   3.686  16.717  0.00  0.00    +0.000 OA
ATOM     29  C   UNL     1      51.619   3.738  17.650  0.00  0.00    +0.000 A 
ATOM     30  H   UNL     1      49.695   1.238  16.721  0.00  0.00    +0.000 HD
ENDBRANCH  17  20
ENDBRANCH   2  16
TORSDOF 5
ENDMDL
