MODEL 1
REMARK VINA RESULT:    -7.832      0.000      0.000
REMARK INTER + INTRA:         -12.178
REMARK INTER:                 -11.037
REMARK INTRA:                  -1.141
REMARK UNBOUND:                -1.141
REMARK  Name = 
REMARK  7 active torsions:
REMARK  status: ('A' for Active; 'I' for Inactive)
REMARK    1  A    between atoms: C_2  and  C_19
REMARK    2  A    between atoms: N_3  and  C_4
REMARK    3  A    between atoms: C_4  and  C_5
REMARK    4  A    between atoms: C_8  and  C_9
REMARK    5  A    between atoms: C_9  and  O_10
REMARK    6  A    between atoms: O_10  and  C_11
REMARK    7  A    between atoms: C_11  and  C_12
REMARK                            x       y       z     vdW  Elec       q    Type
REMARK                         _______ _______ _______ _____ _____    ______ ____
ROOT
ATOM      1  C   UNL     1      46.858   7.923  13.186  0.00  0.00    +0.000 C 
ENDROOT
BRANCH   1   2
ATOM      2  C   UNL     1      46.003   6.981  12.390  0.00  0.00    +0.000 A 
ATOM      3  C   UNL     1      46.344   6.626  11.084  0.00  0.00    +0.000 A 
ATOM      4  C   UNL     1      45.582   5.685  10.395  0.00  0.00    +0.000 A 
ATOM      5  C   UNL     1      44.477   5.118  11.023  0.00  0.00    +0.000 A 
ATOM      6  N   UNL     1      44.102   5.475  12.279  0.00  0.00    +0.000 NA
ATOM      7  C   UNL     1      44.865   6.390  12.926  0.00  0.00    +0.000 A 
BRANCH   5   8
ATOM      8  C   UNL     1      43.639   4.080  10.309  0.00  0.00    +0.000 C 
BRANCH   8   9
ATOM      9  O   UNL     1      44.320   3.592   9.145  0.00  0.00    +0.000 OA
BRANCH   9  10
ATOM     10  C   UNL     1      44.800   2.260   9.366  0.00  0.00    +0.000 C 
BRANCH  10  11
ATOM     11  C   UNL     1      45.888   1.978   8.388  0.00  0.00    +0.000 A 
ATOM     12  N   UNL     1      46.380   0.795   8.073  0.00  0.00    +0.000 NA
ATOM     13  C   UNL     1      47.369   1.032   7.154  0.00  0.00    +0.000 A 
ATOM     14  C   UNL     1      47.481   2.377   6.897  0.00  0.00    +0.000 A 
ATOM     15  N   UNL     1      46.529   2.967   7.681  0.00  0.00    +0.000 N 
ATOM     16  H   UNL     1      46.315   3.953   7.759  0.00  0.00    +0.000 HD
ENDBRANCH  10  11
ENDBRANCH   9  10
ENDBRANCH   8   9
ENDBRANCH   5   8
ENDBRANCH   1   2
BRANCH   1  19
ATOM     17  O   UNL     1      49.374   6.723  13.514  0.00  0.00    +0.000 OA
ATOM     18  C   UNL     1      48.617   6.789  14.481  0.00  0.00    +0.000 C 
ATOM     19  N   UNL     1      47.369   7.343  14.401  0.00  0.00    +0.000 N 
ATOM     20  H   UNL     1      46.847   7.527  15.254  0.00  0.00    +0.000 HD
BRANCH  18  21
ATOM     21  C   UNL     1      48.991   6.221  15.777  0.00  0.00    +0.000 A 
ATOM     22  C   UNL     1      49.994   6.799  16.543  0.00  0.00    +0.000 A 
ATOM     23  S   UNL     1      50.248   6.004  18.034  0.00  0.00    +0.000 S 
ATOM     24  C   UNL     1      49.013   4.879  17.706  0.00  0.00    +0.000 A 
ATOM     25  N   UNL     1      48.683   3.913  18.603  0.00  0.00    +0.000 NA
ATOM     26  C   UNL     1      47.700   3.159  18.234  0.00  0.00    +0.000 A 
ATOM     27  N   UNL     1      47.028   3.270  17.047  0.00  0.00    +0.000 N 
ATOM     28  C   UNL     1      47.375   4.182  16.080  0.00  0.00    +0.000 A 
ATOM     29  O   UNL     1      46.848   4.161  14.972  0.00  0.00    +0.000 OA
ATOM     30  C   UNL     1      48.437   5.089  16.468  0.00  0.00    +0.000 A 
ATOM     31  H   UNL     1      46.291   2.627  16.801  0.00  0.00    +0.000 HD
ENDBRANCH  18  21
ENDBRANCH   1  19
TORSDOF 7
ENDMDL
MODEL 2
REMARK VINA RESULT:    -7.423      1.758      2.113
REMARK INTER + INTRA:         -11.602
REMARK INTER:                 -10.725
REMARK INTRA:                  -0.877
REMARK UNBOUND:                -1.141
REMARK  Name = 
REMARK  7 active torsions:
REMARK  status: ('A' for Active; 'I' for Inactive)
REMARK    1  A    between atoms: C_2  and  C_19
REMARK    2  A    between atoms: N_3  and  C_4
REMARK    3  A    between atoms: C_4  and  C_5
REMARK    4  A    between atoms: C_8  and  C_9
REMARK    5  A    between atoms: C_9  and  O_10
REMARK    6  A    between atoms: O_10  and  C_11
REMARK    7  A    between atoms: C_11  and  C_12
REMARK                            x       y       z     vdW  Elec       q    Type
REMARK                         _______ _______ _______ _____ _____    ______ ____
ROOT
ATOM      1  C   UNL     1      48.036   6.320  13.564  0.00  0.00    +0.000 C 
ENDROOT
BRANCH   1   2
ATOM      2  C   UNL     1      46.869   5.574  12.984  0.00  0.00    +0.000 A 
ATOM      3  C   UNL     1      46.194   6.052  11.860  0.00  0.00    +0.000 A 
ATOM      4  C   UNL     1      45.169   5.301  11.290  0.00  0.00    +0.000 A 
ATOM      5  C   UNL     1      44.824   4.080  11.865  0.00  0.00    +0.000 A 
ATOM      6  N   UNL     1      45.438   3.612  12.982  0.00  0.00    +0.000 NA
ATOM      7  C   UNL     1      46.435   4.364  13.512  0.00  0.00    +0.000 A 
BRANCH   5   8
ATOM      8  C   UNL     1      43.726   3.233  11.261  0.00  0.00    +0.000 C 
BRANCH   8   9
ATOM      9  O   UNL     1      43.833   3.209   9.831  0.00  0.00    +0.000 OA
BRANCH   9  10
ATOM     10  C   UNL     1      44.532   2.035   9.399  0.00  0.00    +0.000 C 
BRANCH  10  11
ATOM     11  C   UNL     1      45.585   2.440   8.426  0.00  0.00    +0.000 A 
ATOM     12  N   UNL     1      45.764   3.642   7.911  0.00  0.00    +0.000 NA
ATOM     13  C   UNL     1      46.831   3.528   7.057  0.00  0.00    +0.000 A 
ATOM     14  C   UNL     1      47.315   2.243   7.052  0.00  0.00    +0.000 A 
ATOM     15  N   UNL     1      46.520   1.562   7.932  0.00  0.00    +0.000 N 
ATOM     16  H   UNL     1      46.577   0.585   8.190  0.00  0.00    +0.000 HD
ENDBRANCH  10  11
ENDBRANCH   9  10
ENDBRANCH   8   9
ENDBRANCH   5   8
ENDBRANCH   1   2
BRANCH   1  19
ATOM     17  O   UNL     1      50.195   6.707  15.314  0.00  0.00    +0.000 OA
ATOM     18  C   UNL     1      49.054   6.693  15.773  0.00  0.00    +0.000 C 
ATOM     19  N   UNL     1      47.950   6.495  14.990  0.00  0.00    +0.000 N 
ATOM     20  H   UNL     1      47.024   6.656  15.379  0.00  0.00    +0.000 HD
BRANCH  18  21
ATOM     21  C   UNL     1      48.812   6.837  17.209  0.00  0.00    +0.000 A 
ATOM     22  C   UNL     1      48.418   8.055  17.746  0.00  0.00    +0.000 A 
ATOM     23  S   UNL     1      48.154   7.997  19.433  0.00  0.00    +0.000 S 
ATOM     24  C   UNL     1      48.539   6.339  19.490  0.00  0.00    +0.000 A 
ATOM     25  N   UNL     1      48.484   5.643  20.656  0.00  0.00    +0.000 NA
ATOM     26  C   UNL     1      48.764   4.386  20.537  0.00  0.00    +0.000 A 
ATOM     27  N   UNL     1      49.106   3.765  19.366  0.00  0.00    +0.000 N 
ATOM     28  C   UNL     1      49.246   4.442  18.180  0.00  0.00    +0.000 A 
ATOM     29  O   UNL     1      49.693   3.885  17.182  0.00  0.00    +0.000 OA
ATOM     30  C   UNL     1      48.891   5.846  18.248  0.00  0.00    +0.000 A 
ATOM     31  H   UNL     1      49.347   2.786  19.345  0.00  0.00    +0.000 HD
ENDBRANCH  18  21
ENDBRANCH   1  19
TORSDOF 7
ENDMDL
MODEL 3
REMARK VINA RESULT:    -6.945      2.348      2.770
REMARK INTER + INTRA:         -10.928
REMARK INTER:                 -10.036
REMARK INTRA:                  -0.892
REMARK UNBOUND:                -1.141
REMARK  Name = 
REMARK  7 active torsions:
REMARK  status: ('A' for Active; 'I' for Inactive)
REMARK    1  A    between atoms: C_2  and  C_19
REMARK    2  A    between atoms: N_3  and  C_4
REMARK    3  A    between atoms: C_4  and  C_5
REMARK    4  A    between atoms: C_8  and  C_9
REMARK    5  A    between atoms: C_9  and  O_10
REMARK    6  A    between atoms: O_10  and  C_11
REMARK    7  A    between atoms: C_11  and  C_12
REMARK                            x       y       z     vdW  Elec       q    Type
REMARK                         _______ _______ _______ _____ _____    ______ ____
ROOT
ATOM      1  C   UNL     1      48.116   6.589  14.012  0.00  0.00    +0.000 C 
ENDROOT
BRANCH   1   2
ATOM      2  C   UNL     1      46.977   6.019  13.217  0.00  0.00    +0.000 A 
ATOM      3  C   UNL     1      46.374   6.752  12.193  0.00  0.00    +0.000 A 
ATOM      4  C   UNL     1      45.376   6.171  11.414  0.00  0.00    +0.000 A 
ATOM      5  C   UNL     1      44.986   4.861  11.680  0.00  0.00    +0.000 A 
ATOM      6  N   UNL     1      45.529   4.141  12.696  0.00  0.00    +0.000 NA
ATOM      7  C   UNL     1      46.501   4.732  13.434  0.00  0.00    +0.000 A 
BRANCH   5   8
ATOM      8  C   UNL     1      43.917   4.196  10.842  0.00  0.00    +0.000 C 
BRANCH   8   9
ATOM      9  O   UNL     1      44.431   3.842   9.551  0.00  0.00    +0.000 OA
BRANCH   9  10
ATOM     10  C   UNL     1      44.605   2.423   9.452  0.00  0.00    +0.000 C 
BRANCH  10  11
ATOM     11  C   UNL     1      45.681   2.144   8.459  0.00  0.00    +0.000 A 
ATOM     12  N   UNL     1      46.255   0.979   8.223  0.00  0.00    +0.000 NA
ATOM     13  C   UNL     1      47.193   1.214   7.251  0.00  0.00    +0.000 A 
ATOM     14  C   UNL     1      47.190   2.537   6.883  0.00  0.00    +0.000 A 
ATOM     15  N   UNL     1      46.220   3.117   7.652  0.00  0.00    +0.000 N 
ATOM     16  H   UNL     1      45.931   4.086   7.658  0.00  0.00    +0.000 HD
ENDBRANCH  10  11
ENDBRANCH   9  10
ENDBRANCH   8   9
ENDBRANCH   5   8
ENDBRANCH   1   2
BRANCH   1  19
ATOM     17  O   UNL     1      50.200   6.287  15.868  0.00  0.00    +0.000 OA
ATOM     18  C   UNL     1      49.039   6.283  16.273  0.00  0.00    +0.000 C 
ATOM     19  N   UNL     1      47.967   6.409  15.432  0.00  0.00    +0.000 N 
ATOM     20  H   UNL     1      47.041   6.567  15.822  0.00  0.00    +0.000 HD
BRANCH  18  21
ATOM     21  C   UNL     1      48.731   6.086  17.690  0.00  0.00    +0.000 A 
ATOM     22  C   UNL     1      48.974   4.868  18.308  0.00  0.00    +0.000 A 
ATOM     23  S   UNL     1      48.577   4.862  19.970  0.00  0.00    +0.000 S 
ATOM     24  C   UNL     1      48.088   6.492  19.914  0.00  0.00    +0.000 A 
ATOM     25  N   UNL     1      47.652   7.136  21.029  0.00  0.00    +0.000 NA
ATOM     26  C   UNL     1      47.354   8.380  20.841  0.00  0.00    +0.000 A 
ATOM     27  N   UNL     1      47.438   9.035  19.642  0.00  0.00    +0.000 N 
ATOM     28  C   UNL     1      47.802   8.406  18.476  0.00  0.00    +0.000 A 
ATOM     29  O   UNL     1      47.728   8.984  17.397  0.00  0.00    +0.000 OA
ATOM     30  C   UNL     1      48.199   7.022  18.643  0.00  0.00    +0.000 A 
ATOM     31  H   UNL     1      47.157  10.000  19.553  0.00  0.00    +0.000 HD
ENDBRANCH  18  21
ENDBRANCH   1  19
TORSDOF 7
ENDMDL
MODEL 4
REMARK VINA RESULT:    -6.891      4.671      8.848
REMARK INTER + INTRA:         -10.853
REMARK INTER:                  -9.841
REMARK INTRA:                  -1.012
REMARK UNBOUND:                -1.141
REMARK  Name = 
REMARK  7 active torsions:
REMARK  status: ('A' for Active; 'I' for Inactive)
REMARK    1  A    between atoms: C_2  and  C_19
REMARK    2  A    between atoms: N_3  and  C_4
REMARK    3  A    between atoms: C_4  and  C_5
REMARK    4  A    between atoms: C_8  and  C_9
REMARK    5  A    between atoms: C_9  and  O_10
REMARK    6  A    between atoms: O_10  and  C_11
REMARK    7  A    between atoms: C_11  and  C_12
REMARK                            x       y       z     vdW  Elec       q    Type
REMARK                         _______ _______ _______ _____ _____    ______ ____
ROOT
ATOM      1  C   UNL     1      48.937   6.003  17.128  0.00  0.00    +0.000 C 
ENDROOT
BRANCH   1   2
ATOM      2  C   UNL     1      49.689   4.714  17.286  0.00  0.00    +0.000 A 
ATOM      3  C   UNL     1      49.026   3.486  17.278  0.00  0.00    +0.000 A 
ATOM      4  C   UNL     1      49.753   2.300  17.343  0.00  0.00    +0.000 A 
ATOM      5  C   UNL     1      51.142   2.361  17.427  0.00  0.00    +0.000 A 
ATOM      6  N   UNL     1      51.808   3.543  17.476  0.00  0.00    +0.000 NA
ATOM      7  C   UNL     1      51.073   4.681  17.407  0.00  0.00    +0.000 A 
BRANCH   5   8
ATOM      8  C   UNL     1      51.962   1.091  17.481  0.00  0.00    +0.000 C 
BRANCH   8   9
ATOM      9  O   UNL     1      52.949   1.169  18.519  0.00  0.00    +0.000 OA
BRANCH   9  10
ATOM     10  C   UNL     1      54.195   0.622  18.069  0.00  0.00    +0.000 C 
BRANCH  10  11
ATOM     11  C   UNL     1      54.275  -0.800  18.505  0.00  0.00    +0.000 A 
ATOM     12  N   UNL     1      54.268  -1.247  19.747  0.00  0.00    +0.000 NA
ATOM     13  C   UNL     1      54.381  -2.610  19.655  0.00  0.00    +0.000 A 
ATOM     14  C   UNL     1      54.453  -3.005  18.341  0.00  0.00    +0.000 A 
ATOM     15  N   UNL     1      54.376  -1.846  17.620  0.00  0.00    +0.000 N 
ATOM     16  H   UNL     1      54.396  -1.741  16.613  0.00  0.00    +0.000 HD
ENDBRANCH  10  11
ENDBRANCH   9  10
ENDBRANCH   8   9
ENDBRANCH   5   8
ENDBRANCH   1   2
BRANCH   1  19
ATOM     17  O   UNL     1      49.495   6.627  14.449  0.00  0.00    +0.000 OA
ATOM     18  C   UNL     1      48.353   6.289  14.754  0.00  0.00    +0.000 C 
ATOM     19  N   UNL     1      47.995   5.984  16.039  0.00  0.00    +0.000 N 
ATOM     20  H   UNL     1      47.092   5.552  16.218  0.00  0.00    +0.000 HD
BRANCH  18  21
ATOM     21  C   UNL     1      47.283   6.245  13.756  0.00  0.00    +0.000 A 
ATOM     22  C   UNL     1      46.841   7.405  13.136  0.00  0.00    +0.000 A 
ATOM     23  S   UNL     1      45.613   7.129  11.981  0.00  0.00    +0.000 S 
ATOM     24  C   UNL     1      45.651   5.450  12.263  0.00  0.00    +0.000 A 
ATOM     25  N   UNL     1      44.850   4.600  11.568  0.00  0.00    +0.000 NA
ATOM     26  C   UNL     1      45.019   3.352  11.862  0.00  0.00    +0.000 A 
ATOM     27  N   UNL     1      45.902   2.877  12.793  0.00  0.00    +0.000 N 
ATOM     28  C   UNL     1      46.678   3.703  13.570  0.00  0.00    +0.000 A 
ATOM     29  O   UNL     1      47.351   3.255  14.493  0.00  0.00    +0.000 OA
ATOM     30  C   UNL     1      46.565   5.110  13.242  0.00  0.00    +0.000 A 
ATOM     31  H   UNL     1      45.963   1.892  13.003  0.00  0.00    +0.000 HD
ENDBRANCH  18  21
ENDBRANCH   1  19
TORSDOF 7
ENDMDL
MODEL 5
REMARK VINA RESULT:    -6.891      4.500      9.081
REMARK INTER + INTRA:         -10.852
REMARK INTER:                 -10.148
REMARK INTRA:                  -0.704
REMARK UNBOUND:                -1.141
REMARK  Name = 
REMARK  7 active torsions:
REMARK  status: ('A' for Active; 'I' for Inactive)
REMARK    1  A    between atoms: C_2  and  C_19
REMARK    2  A    between atoms: N_3  and  C_4
REMARK    3  A    between atoms: C_4  and  C_5
REMARK    4  A    between atoms: C_8  and  C_9
REMARK    5  A    between atoms: C_9  and  O_10
REMARK    6  A    between atoms: O_10  and  C_11
REMARK    7  A    between atoms: C_11  and  C_12
REMARK                            x       y       z     vdW  Elec       q    Type
REMARK                         _______ _______ _______ _____ _____    ______ ____
ROOT
ATOM      1  C   UNL     1      47.148   3.377  16.884  0.00  0.00    +0.000 C 
ENDROOT
BRANCH   1   2
ATOM      2  C   UNL     1      48.629   3.230  17.075  0.00  0.00    +0.000 A 
ATOM      3  C   UNL     1      49.379   4.230  17.695  0.00  0.00    +0.000 A 
ATOM      4  C   UNL     1      50.737   4.036  17.937  0.00  0.00    +0.000 A 
ATOM      5  C   UNL     1      51.330   2.840  17.542  0.00  0.00    +0.000 A 
ATOM      6  N   UNL     1      50.631   1.867  16.902  0.00  0.00    +0.000 NA
ATOM      7  C   UNL     1      49.310   2.083  16.684  0.00  0.00    +0.000 A 
BRANCH   5   8
ATOM      8  C   UNL     1      52.799   2.590  17.806  0.00  0.00    +0.000 C 
BRANCH   8   9
ATOM      9  O   UNL     1      52.992   1.315  18.434  0.00  0.00    +0.000 OA
BRANCH   9  10
ATOM     10  C   UNL     1      53.926   0.524  17.688  0.00  0.00    +0.000 C 
BRANCH  10  11
ATOM     11  C   UNL     1      54.048  -0.809  18.342  0.00  0.00    +0.000 A 
ATOM     12  N   UNL     1      55.132  -1.558  18.411  0.00  0.00    +0.000 NA
ATOM     13  C   UNL     1      54.761  -2.694  19.082  0.00  0.00    +0.000 A 
ATOM     14  C   UNL     1      53.434  -2.639  19.433  0.00  0.00    +0.000 A 
ATOM     15  N   UNL     1      52.994  -1.433  18.964  0.00  0.00    +0.000 N 
ATOM     16  H   UNL     1      52.063  -1.042  19.037  0.00  0.00    +0.000 HD
ENDBRANCH  10  11
ENDBRANCH   9  10
ENDBRANCH   8   9
ENDBRANCH   5   8
ENDBRANCH   1   2
BRANCH   1  19
ATOM     17  O   UNL     1      47.201   3.102  14.091  0.00  0.00    +0.000 OA
ATOM     18  C   UNL     1      46.834   4.171  14.575  0.00  0.00    +0.000 C 
ATOM     19  N   UNL     1      46.794   4.391  15.925  0.00  0.00    +0.000 N 
ATOM     20  H   UNL     1      46.329   5.222  16.284  0.00  0.00    +0.000 HD
BRANCH  18  21
ATOM     21  C   UNL     1      46.464   5.302  13.724  0.00  0.00    +0.000 A 
ATOM     22  C   UNL     1      47.354   6.344  13.500  0.00  0.00    +0.000 A 
ATOM     23  S   UNL     1      46.739   7.544  12.451  0.00  0.00    +0.000 S 
ATOM     24  C   UNL     1      45.276   6.696  12.250  0.00  0.00    +0.000 A 
ATOM     25  N   UNL     1      44.295   7.166  11.436  0.00  0.00    +0.000 NA
ATOM     26  C   UNL     1      43.261   6.395  11.352  0.00  0.00    +0.000 A 
ATOM     27  N   UNL     1      43.110   5.208  12.016  0.00  0.00    +0.000 N 
ATOM     28  C   UNL     1      44.042   4.731  12.905  0.00  0.00    +0.000 A 
ATOM     29  O   UNL     1      43.813   3.740  13.590  0.00  0.00    +0.000 OA
ATOM     30  C   UNL     1      45.247   5.532  12.994  0.00  0.00    +0.000 A 
ATOM     31  H   UNL     1      42.262   4.668  11.936  0.00  0.00    +0.000 HD
ENDBRANCH  18  21
ENDBRANCH   1  19
TORSDOF 7
ENDMDL
MODEL 6
REMARK VINA RESULT:    -6.765      2.717      7.990
REMARK INTER + INTRA:         -10.674
REMARK INTER:                  -9.296
REMARK INTRA:                  -1.379
REMARK UNBOUND:                -1.141
REMARK  Name = 
REMARK  7 active torsions:
REMARK  status: ('A' for Active; 'I' for Inactive)
REMARK    1  A    between atoms: C_2  and  C_19
REMARK    2  A    between atoms: N_3  and  C_4
REMARK    3  A    between atoms: C_4  and  C_5
REMARK    4  A    between atoms: C_8  and  C_9
REMARK    5  A    between atoms: C_9  and  O_10
REMARK    6  A    between atoms: O_10  and  C_11
REMARK    7  A    between atoms: C_11  and  C_12
REMARK                            x       y       z     vdW  Elec       q    Type
REMARK                         _______ _______ _______ _____ _____    ______ ____
ROOT
ATOM      1  C   UNL     1      47.065   7.963  11.967  0.00  0.00    +0.000 C 
ENDROOT
BRANCH   1   2
ATOM      2  C   UNL     1      47.937   7.996  13.188  0.00  0.00    +0.000 A 
ATOM      3  C   UNL     1      47.828   9.025  14.125  0.00  0.00    +0.000 A 
ATOM      4  C   UNL     1      48.588   8.990  15.292  0.00  0.00    +0.000 A 
ATOM      5  C   UNL     1      49.461   7.925  15.499  0.00  0.00    +0.000 A 
ATOM      6  N   UNL     1      49.615   6.932  14.584  0.00  0.00    +0.000 NA
ATOM      7  C   UNL     1      48.858   6.992  13.461  0.00  0.00    +0.000 A 
BRANCH   5   8
ATOM      8  C   UNL     1      50.289   7.848  16.763  0.00  0.00    +0.000 C 
BRANCH   8   9
ATOM      9  O   UNL     1      50.299   6.512  17.282  0.00  0.00    +0.000 OA
BRANCH   9  10
ATOM     10  C   UNL     1      49.183   6.305  18.157  0.00  0.00    +0.000 C 
BRANCH  10  11
ATOM     11  C   UNL     1      48.396   5.143  17.658  0.00  0.00    +0.000 A 
ATOM     12  N   UNL     1      48.205   3.994  18.278  0.00  0.00    +0.000 NA
ATOM     13  C   UNL     1      47.441   3.233  17.430  0.00  0.00    +0.000 A 
ATOM     14  C   UNL     1      47.157   3.926  16.279  0.00  0.00    +0.000 A 
ATOM     15  N   UNL     1      47.762   5.141  16.439  0.00  0.00    +0.000 N 
ATOM     16  H   UNL     1      47.770   5.920  15.792  0.00  0.00    +0.000 HD
ENDBRANCH  10  11
ENDBRANCH   9  10
ENDBRANCH   8   9
ENDBRANCH   5   8
ENDBRANCH   1   2
BRANCH   1  19
ATOM     17  O   UNL     1      44.330   7.468  11.575  0.00  0.00    +0.000 OA
ATOM     18  C   UNL     1      45.116   6.523  11.535  0.00  0.00    +0.000 C 
ATOM     19  N   UNL     1      46.461   6.677  11.731  0.00  0.00    +0.000 N 
ATOM     20  H   UNL     1      47.090   5.904  11.525  0.00  0.00    +0.000 HD
BRANCH  18  21
ATOM     21  C   UNL     1      44.646   5.153  11.326  0.00  0.00    +0.000 A 
ATOM     22  C   UNL     1      43.886   4.507  12.292  0.00  0.00    +0.000 A 
ATOM     23  S   UNL     1      43.411   2.931  11.835  0.00  0.00    +0.000 S 
ATOM     24  C   UNL     1      44.189   3.075  10.327  0.00  0.00    +0.000 A 
ATOM     25  N   UNL     1      44.148   2.069   9.414  0.00  0.00    +0.000 NA
ATOM     26  C   UNL     1      44.749   2.339   8.301  0.00  0.00    +0.000 A 
ATOM     27  N   UNL     1      45.398   3.511   8.023  0.00  0.00    +0.000 N 
ATOM     28  C   UNL     1      45.528   4.524   8.941  0.00  0.00    +0.000 A 
ATOM     29  O   UNL     1      46.237   5.499   8.712  0.00  0.00    +0.000 OA
ATOM     30  C   UNL     1      44.825   4.294  10.187  0.00  0.00    +0.000 A 
ATOM     31  H   UNL     1      45.879   3.647   7.146  0.00  0.00    +0.000 HD
ENDBRANCH  18  21
ENDBRANCH   1  19
TORSDOF 7
ENDMDL
MODEL 7
REMARK VINA RESULT:    -6.683      3.219      4.533
REMARK INTER + INTRA:         -10.560
REMARK INTER:                  -9.555
REMARK INTRA:                  -1.005
REMARK UNBOUND:                -1.141
REMARK  Name = 
REMARK  7 active torsions:
REMARK  status: ('A' for Active; 'I' for Inactive)
REMARK    1  A    between atoms: C_2  and  C_19
REMARK    2  A    between atoms: N_3  and  C_4
REMARK    3  A    between atoms: C_4  and  C_5
REMARK    4  A    between atoms: C_8  and  C_9
REMARK    5  A    between atoms: C_9  and  O_10
REMARK    6  A    between atoms: O_10  and  C_11
REMARK    7  A    between atoms: C_11  and  C_12
REMARK                            x       y       z     vdW  Elec       q    Type
REMARK                         _______ _______ _______ _____ _____    ______ ____
ROOT
ATOM      1  C   UNL     1      49.061   6.093  17.609  0.00  0.00    +0.000 C 
ENDROOT
BRANCH   1   2
ATOM      2  C   UNL     1      48.277   5.612  16.423  0.00  0.00    +0.000 A 
ATOM      3  C   UNL     1      48.312   6.299  15.208  0.00  0.00    +0.000 A 
ATOM      4  C   UNL     1      47.644   5.788  14.098  0.00  0.00    +0.000 A 
ATOM      5  C   UNL     1      46.936   4.595  14.224  0.00  0.00    +0.000 A 
ATOM      6  N   UNL     1      46.853   3.929  15.405  0.00  0.00    +0.000 NA
ATOM      7  C   UNL     1      47.518   4.449  16.466  0.00  0.00    +0.000 A 
BRANCH   5   8
ATOM      8  C   UNL     1      46.213   4.005  13.034  0.00  0.00    +0.000 C 
BRANCH   8   9
ATOM      9  O   UNL     1      44.804   3.920  13.287  0.00  0.00    +0.000 OA
BRANCH   9  10
ATOM     10  C   UNL     1      44.076   4.728  12.354  0.00  0.00    +0.000 C 
BRANCH  10  11
ATOM     11  C   UNL     1      44.284   4.178  10.985  0.00  0.00    +0.000 A 
ATOM     12  N   UNL     1      44.063   2.938  10.591  0.00  0.00    +0.000 NA
ATOM     13  C   UNL     1      44.415   2.897   9.266  0.00  0.00    +0.000 A 
ATOM     14  C   UNL     1      44.852   4.128   8.842  0.00  0.00    +0.000 A 
ATOM     15  N   UNL     1      44.756   4.936   9.941  0.00  0.00    +0.000 N 
ATOM     16  H   UNL     1      44.991   5.917  10.010  0.00  0.00    +0.000 HD
ENDBRANCH  10  11
ENDBRANCH   9  10
ENDBRANCH   8   9
ENDBRANCH   5   8
ENDBRANCH   1   2
BRANCH   1  19
ATOM     17  O   UNL     1      51.642   6.116  16.506  0.00  0.00    +0.000 OA
ATOM     18  C   UNL     1      51.382   5.303  17.391  0.00  0.00    +0.000 C 
ATOM     19  N   UNL     1      50.146   5.217  17.969  0.00  0.00    +0.000 N 
ATOM     20  H   UNL     1      50.022   4.651  18.806  0.00  0.00    +0.000 HD
BRANCH  18  21
ATOM     21  C   UNL     1      52.379   4.333  17.846  0.00  0.00    +0.000 A 
ATOM     22  C   UNL     1      53.579   4.754  18.403  0.00  0.00    +0.000 A 
ATOM     23  S   UNL     1      54.583   3.464  18.900  0.00  0.00    +0.000 S 
ATOM     24  C   UNL     1      53.434   2.308  18.404  0.00  0.00    +0.000 A 
ATOM     25  N   UNL     1      53.655   0.978  18.573  0.00  0.00    +0.000 NA
ATOM     26  C   UNL     1      52.678   0.225  18.186  0.00  0.00    +0.000 A 
ATOM     27  N   UNL     1      51.510   0.676  17.635  0.00  0.00    +0.000 N 
ATOM     28  C   UNL     1      51.274   2.004  17.377  0.00  0.00    +0.000 A 
ATOM     29  O   UNL     1      50.281   2.361  16.752  0.00  0.00    +0.000 OA
ATOM     30  C   UNL     1      52.317   2.897  17.843  0.00  0.00    +0.000 A 
ATOM     31  H   UNL     1      50.798   0.034  17.320  0.00  0.00    +0.000 HD
ENDBRANCH  18  21
ENDBRANCH   1  19
TORSDOF 7
ENDMDL
MODEL 8
REMARK VINA RESULT:    -6.680      2.273      3.306
REMARK INTER + INTRA:         -10.555
REMARK INTER:                  -9.765
REMARK INTRA:                  -0.790
REMARK UNBOUND:                -1.141
REMARK  Name = 
REMARK  7 active torsions:
REMARK  status: ('A' for Active; 'I' for Inactive)
REMARK    1  A    between atoms: C_2  and  C_19
REMARK    2  A    between atoms: N_3  and  C_4
REMARK    3  A    between atoms: C_4  and  C_5
REMARK    4  A    between atoms: C_8  and  C_9
REMARK    5  A    between atoms: C_9  and  O_10
REMARK    6  A    between atoms: O_10  and  C_11
REMARK    7  A    between atoms: C_11  and  C_12
REMARK                            x       y       z     vdW  Elec       q    Type
REMARK                         _______ _______ _______ _____ _____    ______ ____
ROOT
ATOM      1  C   UNL     1      47.109   3.842  14.983  0.00  0.00    +0.000 C 
ENDROOT
BRANCH   1   2
ATOM      2  C   UNL     1      46.578   4.392  13.692  0.00  0.00    +0.000 A 
ATOM      3  C   UNL     1      46.944   5.662  13.244  0.00  0.00    +0.000 A 
ATOM      4  C   UNL     1      46.505   6.118  12.003  0.00  0.00    +0.000 A 
ATOM      5  C   UNL     1      45.691   5.295  11.229  0.00  0.00    +0.000 A 
ATOM      6  N   UNL     1      45.289   4.071  11.659  0.00  0.00    +0.000 NA
ATOM      7  C   UNL     1      45.735   3.654  12.870  0.00  0.00    +0.000 A 
BRANCH   5   8
ATOM      8  C   UNL     1      45.212   5.753   9.869  0.00  0.00    +0.000 C 
BRANCH   8   9
ATOM      9  O   UNL     1      45.981   5.139   8.827  0.00  0.00    +0.000 OA
BRANCH   9  10
ATOM     10  C   UNL     1      45.258   4.047   8.246  0.00  0.00    +0.000 C 
BRANCH  10  11
ATOM     11  C   UNL     1      46.237   3.064   7.703  0.00  0.00    +0.000 A 
ATOM     12  N   UNL     1      46.303   1.776   7.985  0.00  0.00    +0.000 NA
ATOM     13  C   UNL     1      47.368   1.290   7.271  0.00  0.00    +0.000 A 
ATOM     14  C   UNL     1      47.959   2.290   6.538  0.00  0.00    +0.000 A 
ATOM     15  N   UNL     1      47.227   3.411   6.814  0.00  0.00    +0.000 N 
ATOM     16  H   UNL     1      47.366   4.346   6.454  0.00  0.00    +0.000 HD
ENDBRANCH  10  11
ENDBRANCH   9  10
ENDBRANCH   8   9
ENDBRANCH   5   8
ENDBRANCH   1   2
BRANCH   1  19
ATOM     17  O   UNL     1      47.491   3.465  17.738  0.00  0.00    +0.000 OA
ATOM     18  C   UNL     1      47.638   4.591  17.268  0.00  0.00    +0.000 C 
ATOM     19  N   UNL     1      47.455   4.862  15.939  0.00  0.00    +0.000 N 
ATOM     20  H   UNL     1      47.748   5.762  15.566  0.00  0.00    +0.000 HD
BRANCH  18  21
ATOM     21  C   UNL     1      47.968   5.733  18.121  0.00  0.00    +0.000 A 
ATOM     22  C   UNL     1      47.222   6.010  19.259  0.00  0.00    +0.000 A 
ATOM     23  S   UNL     1      47.796   7.362  20.131  0.00  0.00    +0.000 S 
ATOM     24  C   UNL     1      49.068   7.603  19.025  0.00  0.00    +0.000 A 
ATOM     25  N   UNL     1      49.974   8.602  19.199  0.00  0.00    +0.000 NA
ATOM     26  C   UNL     1      50.905   8.636  18.302  0.00  0.00    +0.000 A 
ATOM     27  N   UNL     1      51.005   7.777  17.242  0.00  0.00    +0.000 N 
ATOM     28  C   UNL     1      50.073   6.801  16.985  0.00  0.00    +0.000 A 
ATOM     29  O   UNL     1      50.114   6.144  15.950  0.00  0.00    +0.000 OA
ATOM     30  C   UNL     1      49.037   6.685  17.992  0.00  0.00    +0.000 A 
ATOM     31  H   UNL     1      51.737   7.877  16.555  0.00  0.00    +0.000 HD
ENDBRANCH  18  21
ENDBRANCH   1  19
TORSDOF 7
ENDMDL
MODEL 9
REMARK VINA RESULT:    -6.674      3.243      7.664
REMARK INTER + INTRA:         -10.546
REMARK INTER:                  -9.502
REMARK INTRA:                  -1.044
REMARK UNBOUND:                -1.141
REMARK  Name = 
REMARK  7 active torsions:
REMARK  status: ('A' for Active; 'I' for Inactive)
REMARK    1  A    between atoms: C_2  and  C_19
REMARK    2  A    between atoms: N_3  and  C_4
REMARK    3  A    between atoms: C_4  and  C_5
REMARK    4  A    between atoms: C_8  and  C_9
REMARK    5  A    between atoms: C_9  and  O_10
REMARK    6  A    between atoms: O_10  and  C_11
REMARK    7  A    between atoms: C_11  and  C_12
REMARK                            x       y       z     vdW  Elec       q    Type
REMARK                         _______ _______ _______ _____ _____    ______ ____
ROOT
ATOM      1  C   UNL     1      48.239   8.030  12.142  0.00  0.00    +0.000 C 
ENDROOT
BRANCH   1   2
ATOM      2  C   UNL     1      49.029   7.612  13.347  0.00  0.00    +0.000 A 
ATOM      3  C   UNL     1      50.247   8.219  13.659  0.00  0.00    +0.000 A 
ATOM      4  C   UNL     1      50.921   7.874  14.828  0.00  0.00    +0.000 A 
ATOM      5  C   UNL     1      50.368   6.911  15.668  0.00  0.00    +0.000 A 
ATOM      6  N   UNL     1      49.204   6.277  15.368  0.00  0.00    +0.000 NA
ATOM      7  C   UNL     1      48.570   6.637  14.225  0.00  0.00    +0.000 A 
BRANCH   5   8
ATOM      8  C   UNL     1      51.065   6.525  16.954  0.00  0.00    +0.000 C 
BRANCH   8   9
ATOM      9  O   UNL     1      51.351   5.119  16.974  0.00  0.00    +0.000 OA
BRANCH   9  10
ATOM     10  C   UNL     1      50.764   4.504  18.127  0.00  0.00    +0.000 C 
BRANCH  10  11
ATOM     11  C   UNL     1      49.552   3.751  17.700  0.00  0.00    +0.000 A 
ATOM     12  N   UNL     1      49.455   2.930  16.671  0.00  0.00    +0.000 NA
ATOM     13  C   UNL     1      48.156   2.493  16.661  0.00  0.00    +0.000 A 
ATOM     14  C   UNL     1      47.448   3.048  17.700  0.00  0.00    +0.000 A 
ATOM     15  N   UNL     1      48.349   3.840  18.357  0.00  0.00    +0.000 N 
ATOM     16  H   UNL     1      48.189   4.409  19.179  0.00  0.00    +0.000 HD
ENDBRANCH  10  11
ENDBRANCH   9  10
ENDBRANCH   8   9
ENDBRANCH   5   8
ENDBRANCH   1   2
BRANCH   1  19
ATOM     17  O   UNL     1      45.456   7.826  11.845  0.00  0.00    +0.000 OA
ATOM     18  C   UNL     1      46.168   6.927  11.401  0.00  0.00    +0.000 C 
ATOM     19  N   UNL     1      47.531   6.943  11.518  0.00  0.00    +0.000 N 
ATOM     20  H   UNL     1      48.086   6.270  10.995  0.00  0.00    +0.000 HD
BRANCH  18  21
ATOM     21  C   UNL     1      45.587   5.746  10.761  0.00  0.00    +0.000 A 
ATOM     22  C   UNL     1      45.813   5.483   9.417  0.00  0.00    +0.000 A 
ATOM     23  S   UNL     1      45.076   4.039   8.878  0.00  0.00    +0.000 S 
ATOM     24  C   UNL     1      44.453   3.714  10.428  0.00  0.00    +0.000 A 
ATOM     25  N   UNL     1      43.730   2.591  10.677  0.00  0.00    +0.000 NA
ATOM     26  C   UNL     1      43.358   2.460  11.908  0.00  0.00    +0.000 A 
ATOM     27  N   UNL     1      43.628   3.353  12.909  0.00  0.00    +0.000 N 
ATOM     28  C   UNL     1      44.291   4.536  12.689  0.00  0.00    +0.000 A 
ATOM     29  O   UNL     1      44.390   5.379  13.575  0.00  0.00    +0.000 OA
ATOM     30  C   UNL     1      44.777   4.706  11.335  0.00  0.00    +0.000 A 
ATOM     31  H   UNL     1      43.280   3.212  13.845  0.00  0.00    +0.000 HD
ENDBRANCH  18  21
ENDBRANCH   1  19
TORSDOF 7
ENDMDL
