MODEL 1
REMARK VINA RESULT:    -7.702      0.000      0.000
REMARK INTER + INTRA:         -12.304
REMARK INTER:                 -10.854
REMARK INTRA:                  -1.450
REMARK UNBOUND:                -1.450
REMARK  Name = 
REMARK  9 active torsions:
REMARK  status: ('A' for Active; 'I' for Inactive)
REMARK    1  A    between atoms: C_1  and  O_2
REMARK    2  A    between atoms: O_2  and  C_3
REMARK    3  A    between atoms: C_10  and  C_11
REMARK    4  A    between atoms: N_13  and  C_14
REMARK    5  A    between atoms: C_14  and  C_15
REMARK    6  A    between atoms: C_18  and  N_19
REMARK    7  A    between atoms: N_19  and  C_20
REMARK    8  A    between atoms: C_20  and  C_21
REMARK    9  A    between atoms: C_26  and  C_27
REMARK                            x       y       z     vdW  Elec       q    Type
REMARK                         _______ _______ _______ _____ _____    ______ ____
ROOT
ATOM      1  C   UNL     1      47.063   8.138  13.155  0.00  0.00    +0.000 A 
ATOM      2  C   UNL     1      45.730   8.487  12.919  0.00  0.00    +0.000 A 
ATOM      3  C   UNL     1      44.983   7.823  11.941  0.00  0.00    +0.000 A 
ATOM      4  C   UNL     1      45.546   6.807  11.162  0.00  0.00    +0.000 A 
ATOM      5  C   UNL     1      46.900   6.506  11.365  0.00  0.00    +0.000 A 
ATOM      6  C   UNL     1      47.650   7.154  12.354  0.00  0.00    +0.000 A 
ENDROOT
BRANCH   4   7
ATOM      7  N   UNL     1      44.821   6.014  10.263  0.00  0.00    +0.000 N 
ATOM      8  H   UNL     1      44.188   5.388  10.760  0.00  0.00    +0.000 HD
BRANCH   7   9
ATOM      9  C   UNL     1      45.536   5.325   9.187  0.00  0.00    +0.000 C 
BRANCH   9  10
ATOM     10  C   UNL     1      44.939   3.935   8.881  0.00  0.00    +0.000 C 
ATOM     11  C   UNL     1      44.463   3.206  10.144  0.00  0.00    +0.000 C 
ATOM     12  C   UNL     1      44.290   1.772   9.666  0.00  0.00    +0.000 C 
ATOM     13  C   UNL     1      45.403   1.589   8.641  0.00  0.00    +0.000 C 
ATOM     14  N   UNL     1      45.800   2.933   8.239  0.00  0.00    +0.000 N 
ATOM     15  C   UNL     1      46.655   3.227   7.198  0.00  0.00    +0.000 C 
ATOM     16  C   UNL     1      47.443   2.092   6.590  0.00  0.00    +0.000 C 
ATOM     17  O   UNL     1      46.834   4.372   6.786  0.00  0.00    +0.000 OA
ENDBRANCH   9  10
ENDBRANCH   7   9
ENDBRANCH   4   7
BRANCH   1  18
ATOM     18  C   UNL     1      47.803   8.742  14.316  0.00  0.00    +0.000 C 
BRANCH  18  21
ATOM     19  C   UNL     1      49.235   7.220  15.616  0.00  0.00    +0.000 C 
ATOM     20  O   UNL     1      50.231   7.595  15.000  0.00  0.00    +0.000 OA
ATOM     21  N   UNL     1      48.002   7.749  15.351  0.00  0.00    +0.000 N 
ATOM     22  H   UNL     1      47.179   7.373  15.805  0.00  0.00    +0.000 HD
BRANCH  19  30
ATOM     23  C   UNL     1      47.439   4.359  16.385  0.00  0.00    +0.000 A 
ATOM     24  N   UNL     1      46.918   3.240  16.936  0.00  0.00    +0.000 NA
ATOM     25  C   UNL     1      47.492   2.751  18.041  0.00  0.00    +0.000 A 
ATOM     26  N   UNL     1      48.547   3.248  18.677  0.00  0.00    +0.000 NA
ATOM     27  C   UNL     1      49.030   4.362  18.104  0.00  0.00    +0.000 A 
ATOM     28  S   UNL     1      50.385   5.119  18.787  0.00  0.00    +0.000 S 
ATOM     29  C   UNL     1      50.364   6.332  17.602  0.00  0.00    +0.000 A 
ATOM     30  C   UNL     1      49.340   6.196  16.670  0.00  0.00    +0.000 A 
ATOM     31  C   UNL     1      48.547   5.003  16.965  0.00  0.00    +0.000 A 
BRANCH  23  33
ATOM     32  C   UNL     1      46.967   3.932  14.126  0.00  0.00    +0.000 C 
ATOM     33  O   UNL     1      46.872   4.840  15.223  0.00  0.00    +0.000 OA
ENDBRANCH  23  33
ENDBRANCH  19  30
ENDBRANCH  18  21
ENDBRANCH   1  18
TORSDOF 7
ENDMDL
MODEL 2
REMARK VINA RESULT:    -6.865      2.436      3.229
REMARK INTER + INTRA:         -11.124
REMARK INTER:                  -9.949
REMARK INTRA:                  -1.175
REMARK UNBOUND:                -1.450
REMARK  Name = 
REMARK  9 active torsions:
REMARK  status: ('A' for Active; 'I' for Inactive)
REMARK    1  A    between atoms: C_1  and  O_2
REMARK    2  A    between atoms: O_2  and  C_3
REMARK    3  A    between atoms: C_10  and  C_11
REMARK    4  A    between atoms: N_13  and  C_14
REMARK    5  A    between atoms: C_14  and  C_15
REMARK    6  A    between atoms: C_18  and  N_19
REMARK    7  A    between atoms: N_19  and  C_20
REMARK    8  A    between atoms: C_20  and  C_21
REMARK    9  A    between atoms: C_26  and  C_27
REMARK                            x       y       z     vdW  Elec       q    Type
REMARK                         _______ _______ _______ _____ _____    ______ ____
ROOT
ATOM      1  C   UNL     1      48.532   7.112  14.569  0.00  0.00    +0.000 A 
ATOM      2  C   UNL     1      48.521   8.021  13.507  0.00  0.00    +0.000 A 
ATOM      3  C   UNL     1      47.842   7.722  12.321  0.00  0.00    +0.000 A 
ATOM      4  C   UNL     1      47.172   6.506  12.155  0.00  0.00    +0.000 A 
ATOM      5  C   UNL     1      47.240   5.577  13.202  0.00  0.00    +0.000 A 
ATOM      6  C   UNL     1      47.903   5.875  14.399  0.00  0.00    +0.000 A 
ENDROOT
BRANCH   4   7
ATOM      7  N   UNL     1      46.366   6.198  11.052  0.00  0.00    +0.000 N 
ATOM      8  H   UNL     1      46.865   6.367  10.179  0.00  0.00    +0.000 HD
BRANCH   7   9
ATOM      9  C   UNL     1      44.997   6.715  11.005  0.00  0.00    +0.000 C 
BRANCH   9  10
ATOM     10  C   UNL     1      43.951   5.645  11.379  0.00  0.00    +0.000 C 
ATOM     11  C   UNL     1      43.805   5.469  12.897  0.00  0.00    +0.000 C 
ATOM     12  C   UNL     1      43.051   4.152  13.016  0.00  0.00    +0.000 C 
ATOM     13  C   UNL     1      43.579   3.318  11.854  0.00  0.00    +0.000 C 
ATOM     14  N   UNL     1      44.165   4.268  10.916  0.00  0.00    +0.000 N 
ATOM     15  C   UNL     1      44.602   3.957   9.645  0.00  0.00    +0.000 C 
ATOM     16  C   UNL     1      44.727   2.499   9.279  0.00  0.00    +0.000 C 
ATOM     17  O   UNL     1      44.935   4.814   8.828  0.00  0.00    +0.000 OA
ENDBRANCH   9  10
ENDBRANCH   7   9
ENDBRANCH   4   7
BRANCH   1  18
ATOM     18  C   UNL     1      49.122   7.512  15.894  0.00  0.00    +0.000 C 
BRANCH  18  21
ATOM     19  C   UNL     1      50.029   5.944  17.558  0.00  0.00    +0.000 C 
ATOM     20  O   UNL     1      49.120   6.215  18.342  0.00  0.00    +0.000 OA
ATOM     21  N   UNL     1      50.092   6.528  16.323  0.00  0.00    +0.000 N 
ATOM     22  H   UNL     1      50.889   6.361  15.722  0.00  0.00    +0.000 HD
BRANCH  19  30
ATOM     23  C   UNL     1      50.418   2.535  17.077  0.00  0.00    +0.000 A 
ATOM     24  N   UNL     1      50.816   1.243  17.072  0.00  0.00    +0.000 NA
ATOM     25  C   UNL     1      51.974   0.934  17.667  0.00  0.00    +0.000 A 
ATOM     26  N   UNL     1      52.803   1.772  18.277  0.00  0.00    +0.000 NA
ATOM     27  C   UNL     1      52.369   3.043  18.269  0.00  0.00    +0.000 A 
ATOM     28  S   UNL     1      53.318   4.243  19.001  0.00  0.00    +0.000 S 
ATOM     29  C   UNL     1      52.187   5.443  18.608  0.00  0.00    +0.000 A 
ATOM     30  C   UNL     1      51.073   4.970  17.921  0.00  0.00    +0.000 A 
ATOM     31  C   UNL     1      51.191   3.528  17.706  0.00  0.00    +0.000 A 
BRANCH  23  33
ATOM     32  C   UNL     1      48.096   2.820  17.275  0.00  0.00    +0.000 C 
ATOM     33  O   UNL     1      49.245   2.860  16.428  0.00  0.00    +0.000 OA
ENDBRANCH  23  33
ENDBRANCH  19  30
ENDBRANCH  18  21
ENDBRANCH   1  18
TORSDOF 7
ENDMDL
MODEL 3
REMARK VINA RESULT:    -6.264      1.672      2.209
REMARK INTER + INTRA:         -10.277
REMARK INTER:                  -8.855
REMARK INTRA:                  -1.422
REMARK UNBOUND:                -1.450
REMARK  Name = 
REMARK  9 active torsions:
REMARK  status: ('A' for Active; 'I' for Inactive)
REMARK    1  A    between atoms: C_1  and  O_2
REMARK    2  A    between atoms: O_2  and  C_3
REMARK    3  A    between atoms: C_10  and  C_11
REMARK    4  A    between atoms: N_13  and  C_14
REMARK    5  A    between atoms: C_14  and  C_15
REMARK    6  A    between atoms: C_18  and  N_19
REMARK    7  A    between atoms: N_19  and  C_20
REMARK    8  A    between atoms: C_20  and  C_21
REMARK    9  A    between atoms: C_26  and  C_27
REMARK                            x       y       z     vdW  Elec       q    Type
REMARK                         _______ _______ _______ _____ _____    ______ ____
ROOT
ATOM      1  C   UNL     1      48.842   8.317  13.417  0.00  0.00    +0.000 A 
ATOM      2  C   UNL     1      47.620   8.825  13.868  0.00  0.00    +0.000 A 
ATOM      3  C   UNL     1      46.438   8.555  13.171  0.00  0.00    +0.000 A 
ATOM      4  C   UNL     1      46.442   7.788  12.002  0.00  0.00    +0.000 A 
ATOM      5  C   UNL     1      47.679   7.334  11.526  0.00  0.00    +0.000 A 
ATOM      6  C   UNL     1      48.866   7.586  12.226  0.00  0.00    +0.000 A 
ENDROOT
BRANCH   4   7
ATOM      7  N   UNL     1      45.284   7.369  11.334  0.00  0.00    +0.000 N 
ATOM      8  H   UNL     1      44.464   7.468  11.931  0.00  0.00    +0.000 HD
BRANCH   7   9
ATOM      9  C   UNL     1      45.293   6.086  10.630  0.00  0.00    +0.000 C 
BRANCH   9  10
ATOM     10  C   UNL     1      44.216   5.116  11.160  0.00  0.00    +0.000 C 
ATOM     11  C   UNL     1      44.228   5.002  12.691  0.00  0.00    +0.000 C 
ATOM     12  C   UNL     1      43.393   3.755  12.945  0.00  0.00    +0.000 C 
ATOM     13  C   UNL     1      43.723   2.844  11.768  0.00  0.00    +0.000 C 
ATOM     14  N   UNL     1      44.271   3.712  10.733  0.00  0.00    +0.000 N 
ATOM     15  C   UNL     1      44.537   3.326   9.437  0.00  0.00    +0.000 C 
ATOM     16  C   UNL     1      44.508   1.851   9.119  0.00  0.00    +0.000 C 
ATOM     17  O   UNL     1      44.842   4.126   8.553  0.00  0.00    +0.000 OA
ENDBRANCH   9  10
ENDBRANCH   7   9
ENDBRANCH   4   7
BRANCH   1  18
ATOM     18  C   UNL     1      50.077   8.475  14.261  0.00  0.00    +0.000 C 
BRANCH  18  21
ATOM     19  C   UNL     1      49.724   8.039  16.656  0.00  0.00    +0.000 C 
ATOM     20  O   UNL     1      49.468   9.225  16.857  0.00  0.00    +0.000 OA
ATOM     21  N   UNL     1      50.018   7.584  15.400  0.00  0.00    +0.000 N 
ATOM     22  H   UNL     1      50.309   6.625  15.262  0.00  0.00    +0.000 HD
BRANCH  19  30
ATOM     23  C   UNL     1      48.497   4.819  17.018  0.00  0.00    +0.000 A 
ATOM     24  N   UNL     1      48.100   3.603  17.454  0.00  0.00    +0.000 NA
ATOM     25  C   UNL     1      48.372   3.263  18.719  0.00  0.00    +0.000 A 
ATOM     26  N   UNL     1      49.009   3.999  19.622  0.00  0.00    +0.000 NA
ATOM     27  C   UNL     1      49.381   5.202  19.153  0.00  0.00    +0.000 A 
ATOM     28  S   UNL     1      50.215   6.265  20.179  0.00  0.00    +0.000 S 
ATOM     29  C   UNL     1      50.305   7.442  18.962  0.00  0.00    +0.000 A 
ATOM     30  C   UNL     1      49.710   7.065  17.762  0.00  0.00    +0.000 A 
ATOM     31  C   UNL     1      49.167   5.712  17.874  0.00  0.00    +0.000 A 
BRANCH  23  33
ATOM     32  C   UNL     1      47.143   4.457  15.136  0.00  0.00    +0.000 C 
ATOM     33  O   UNL     1      48.252   5.153  15.702  0.00  0.00    +0.000 OA
ENDBRANCH  23  33
ENDBRANCH  19  30
ENDBRANCH  18  21
ENDBRANCH   1  18
TORSDOF 7
ENDMDL
MODEL 4
REMARK VINA RESULT:    -6.105      2.981      4.597
REMARK INTER + INTRA:         -10.053
REMARK INTER:                  -9.003
REMARK INTRA:                  -1.050
REMARK UNBOUND:                -1.450
REMARK  Name = 
REMARK  9 active torsions:
REMARK  status: ('A' for Active; 'I' for Inactive)
REMARK    1  A    between atoms: C_1  and  O_2
REMARK    2  A    between atoms: O_2  and  C_3
REMARK    3  A    between atoms: C_10  and  C_11
REMARK    4  A    between atoms: N_13  and  C_14
REMARK    5  A    between atoms: C_14  and  C_15
REMARK    6  A    between atoms: C_18  and  N_19
REMARK    7  A    between atoms: N_19  and  C_20
REMARK    8  A    between atoms: C_20  and  C_21
REMARK    9  A    between atoms: C_26  and  C_27
REMARK                            x       y       z     vdW  Elec       q    Type
REMARK                         _______ _______ _______ _____ _____    ______ ____
ROOT
ATOM      1  C   UNL     1      47.957   5.418  15.630  0.00  0.00    +0.000 A 
ATOM      2  C   UNL     1      48.454   6.541  14.962  0.00  0.00    +0.000 A 
ATOM      3  C   UNL     1      48.118   6.779  13.625  0.00  0.00    +0.000 A 
ATOM      4  C   UNL     1      47.294   5.901  12.915  0.00  0.00    +0.000 A 
ATOM      5  C   UNL     1      46.850   4.747  13.576  0.00  0.00    +0.000 A 
ATOM      6  C   UNL     1      47.168   4.510  14.919  0.00  0.00    +0.000 A 
ENDROOT
BRANCH   4   7
ATOM      7  N   UNL     1      46.812   6.147  11.623  0.00  0.00    +0.000 N 
ATOM      8  H   UNL     1      47.569   6.430  11.001  0.00  0.00    +0.000 HD
BRANCH   7   9
ATOM      9  C   UNL     1      45.626   6.989  11.454  0.00  0.00    +0.000 C 
BRANCH   9  10
ATOM     10  C   UNL     1      44.335   6.160  11.290  0.00  0.00    +0.000 C 
ATOM     11  C   UNL     1      43.692   5.798  12.636  0.00  0.00    +0.000 C 
ATOM     12  C   UNL     1      42.708   4.700  12.259  0.00  0.00    +0.000 C 
ATOM     13  C   UNL     1      43.408   3.948  11.133  0.00  0.00    +0.000 C 
ATOM     14  N   UNL     1      44.424   4.857  10.617  0.00  0.00    +0.000 N 
ATOM     15  C   UNL     1      45.169   4.645   9.477  0.00  0.00    +0.000 C 
ATOM     16  C   UNL     1      45.129   3.271   8.853  0.00  0.00    +0.000 C 
ATOM     17  O   UNL     1      45.895   5.509   8.985  0.00  0.00    +0.000 OA
ENDBRANCH   9  10
ENDBRANCH   7   9
ENDBRANCH   4   7
BRANCH   1  18
ATOM     18  C   UNL     1      48.189   5.261  17.108  0.00  0.00    +0.000 C 
BRANCH  18  21
ATOM     19  C   UNL     1      49.678   3.334  17.463  0.00  0.00    +0.000 C 
ATOM     20  O   UNL     1      48.735   2.554  17.338  0.00  0.00    +0.000 OA
ATOM     21  N   UNL     1      49.496   4.685  17.347  0.00  0.00    +0.000 N 
ATOM     22  H   UNL     1      50.261   5.319  17.535  0.00  0.00    +0.000 HD
BRANCH  19  30
ATOM     23  C   UNL     1      52.499   4.704  18.936  0.00  0.00    +0.000 A 
ATOM     24  N   UNL     1      53.733   4.977  19.415  0.00  0.00    +0.000 NA
ATOM     25  C   UNL     1      54.670   4.026  19.331  0.00  0.00    +0.000 A 
ATOM     26  N   UNL     1      54.526   2.809  18.820  0.00  0.00    +0.000 NA
ATOM     27  C   UNL     1      53.290   2.579  18.348  0.00  0.00    +0.000 A 
ATOM     28  S   UNL     1      52.935   1.066  17.669  0.00  0.00    +0.000 S 
ATOM     29  C   UNL     1      51.339   1.535  17.341  0.00  0.00    +0.000 A 
ATOM     30  C   UNL     1      51.038   2.837  17.731  0.00  0.00    +0.000 A 
ATOM     31  C   UNL     1      52.209   3.459  18.350  0.00  0.00    +0.000 A 
BRANCH  23  33
ATOM     32  C   UNL     1      51.665   6.477  20.228  0.00  0.00    +0.000 C 
ATOM     33  O   UNL     1      51.521   5.670  19.060  0.00  0.00    +0.000 OA
ENDBRANCH  23  33
ENDBRANCH  19  30
ENDBRANCH  18  21
ENDBRANCH   1  18
TORSDOF 7
ENDMDL
MODEL 5
REMARK VINA RESULT:    -5.960      3.480      7.974
REMARK INTER + INTRA:          -9.848
REMARK INTER:                  -8.255
REMARK INTRA:                  -1.594
REMARK UNBOUND:                -1.450
REMARK  Name = 
REMARK  9 active torsions:
REMARK  status: ('A' for Active; 'I' for Inactive)
REMARK    1  A    between atoms: C_1  and  O_2
REMARK    2  A    between atoms: O_2  and  C_3
REMARK    3  A    between atoms: C_10  and  C_11
REMARK    4  A    between atoms: N_13  and  C_14
REMARK    5  A    between atoms: C_14  and  C_15
REMARK    6  A    between atoms: C_18  and  N_19
REMARK    7  A    between atoms: N_19  and  C_20
REMARK    8  A    between atoms: C_20  and  C_21
REMARK    9  A    between atoms: C_26  and  C_27
REMARK                            x       y       z     vdW  Elec       q    Type
REMARK                         _______ _______ _______ _____ _____    ______ ____
ROOT
ATOM      1  C   UNL     1      49.279   8.390  15.620  0.00  0.00    +0.000 A 
ATOM      2  C   UNL     1      50.481   8.231  14.925  0.00  0.00    +0.000 A 
ATOM      3  C   UNL     1      51.473   7.370  15.407  0.00  0.00    +0.000 A 
ATOM      4  C   UNL     1      51.302   6.660  16.599  0.00  0.00    +0.000 A 
ATOM      5  C   UNL     1      50.119   6.874  17.320  0.00  0.00    +0.000 A 
ATOM      6  C   UNL     1      49.114   7.720  16.836  0.00  0.00    +0.000 A 
ENDROOT
BRANCH   4   7
ATOM      7  N   UNL     1      52.193   5.686  17.068  0.00  0.00    +0.000 N 
ATOM      8  H   UNL     1      52.260   4.909  16.411  0.00  0.00    +0.000 HD
BRANCH   7   9
ATOM      9  C   UNL     1      52.076   5.221  18.451  0.00  0.00    +0.000 C 
BRANCH   9  10
ATOM     10  C   UNL     1      52.342   3.707  18.587  0.00  0.00    +0.000 C 
ATOM     11  C   UNL     1      53.780   3.325  18.211  0.00  0.00    +0.000 C 
ATOM     12  C   UNL     1      53.699   1.814  18.045  0.00  0.00    +0.000 C 
ATOM     13  C   UNL     1      52.308   1.581  17.466  0.00  0.00    +0.000 C 
ATOM     14  N   UNL     1      51.542   2.783  17.773  0.00  0.00    +0.000 N 
ATOM     15  C   UNL     1      50.183   2.923  17.585  0.00  0.00    +0.000 C 
ATOM     16  C   UNL     1      49.470   1.871  16.772  0.00  0.00    +0.000 C 
ATOM     17  O   UNL     1      49.549   3.889  18.009  0.00  0.00    +0.000 OA
ENDBRANCH   9  10
ENDBRANCH   7   9
ENDBRANCH   4   7
BRANCH   1  18
ATOM     18  C   UNL     1      48.158   9.187  15.010  0.00  0.00    +0.000 C 
BRANCH  18  21
ATOM     19  C   UNL     1      47.038   8.215  13.047  0.00  0.00    +0.000 C 
ATOM     20  O   UNL     1      47.745   8.875  12.288  0.00  0.00    +0.000 OA
ATOM     21  N   UNL     1      47.190   8.298  14.404  0.00  0.00    +0.000 N 
ATOM     22  H   UNL     1      46.547   7.815  15.018  0.00  0.00    +0.000 HD
BRANCH  19  30
ATOM     23  C   UNL     1      46.475   4.806  13.310  0.00  0.00    +0.000 A 
ATOM     24  N   UNL     1      46.034   3.533  13.206  0.00  0.00    +0.000 NA
ATOM     25  C   UNL     1      44.945   3.298  12.465  0.00  0.00    +0.000 A 
ATOM     26  N   UNL     1      44.223   4.195  11.805  0.00  0.00    +0.000 NA
ATOM     27  C   UNL     1      44.698   5.446  11.926  0.00  0.00    +0.000 A 
ATOM     28  S   UNL     1      43.884   6.716  11.149  0.00  0.00    +0.000 S 
ATOM     29  C   UNL     1      45.003   7.850  11.730  0.00  0.00    +0.000 A 
ATOM     30  C   UNL     1      46.010   7.302  12.517  0.00  0.00    +0.000 A 
ATOM     31  C   UNL     1      45.817   5.857  12.646  0.00  0.00    +0.000 A 
BRANCH  23  33
ATOM     32  C   UNL     1      47.398   4.642  15.462  0.00  0.00    +0.000 C 
ATOM     33  O   UNL     1      47.574   5.054  14.107  0.00  0.00    +0.000 OA
ENDBRANCH  23  33
ENDBRANCH  19  30
ENDBRANCH  18  21
ENDBRANCH   1  18
TORSDOF 7
ENDMDL
MODEL 6
REMARK VINA RESULT:    -5.825      3.477      8.046
REMARK INTER + INTRA:          -9.658
REMARK INTER:                  -8.361
REMARK INTRA:                  -1.297
REMARK UNBOUND:                -1.450
REMARK  Name = 
REMARK  9 active torsions:
REMARK  status: ('A' for Active; 'I' for Inactive)
REMARK    1  A    between atoms: C_1  and  O_2
REMARK    2  A    between atoms: O_2  and  C_3
REMARK    3  A    between atoms: C_10  and  C_11
REMARK    4  A    between atoms: N_13  and  C_14
REMARK    5  A    between atoms: C_14  and  C_15
REMARK    6  A    between atoms: C_18  and  N_19
REMARK    7  A    between atoms: N_19  and  C_20
REMARK    8  A    between atoms: C_20  and  C_21
REMARK    9  A    between atoms: C_26  and  C_27
REMARK                            x       y       z     vdW  Elec       q    Type
REMARK                         _______ _______ _______ _____ _____    ______ ____
ROOT
ATOM      1  C   UNL     1      49.136   8.569  16.561  0.00  0.00    +0.000 A 
ATOM      2  C   UNL     1      50.509   8.521  16.822  0.00  0.00    +0.000 A 
ATOM      3  C   UNL     1      51.030   7.584  17.720  0.00  0.00    +0.000 A 
ATOM      4  C   UNL     1      50.200   6.683  18.394  0.00  0.00    +0.000 A 
ATOM      5  C   UNL     1      48.820   6.779  18.172  0.00  0.00    +0.000 A 
ATOM      6  C   UNL     1      48.291   7.703  17.261  0.00  0.00    +0.000 A 
ENDROOT
BRANCH   4   7
ATOM      7  N   UNL     1      50.667   5.637  19.201  0.00  0.00    +0.000 N 
ATOM      8  H   UNL     1      50.726   5.930  20.176  0.00  0.00    +0.000 HD
BRANCH   7   9
ATOM      9  C   UNL     1      51.856   4.893  18.783  0.00  0.00    +0.000 C 
BRANCH   9  10
ATOM     10  C   UNL     1      51.526   3.781  17.765  0.00  0.00    +0.000 C 
ATOM     11  C   UNL     1      50.057   3.342  17.826  0.00  0.00    +0.000 C 
ATOM     12  C   UNL     1      50.060   2.031  17.054  0.00  0.00    +0.000 C 
ATOM     13  C   UNL     1      51.412   1.410  17.388  0.00  0.00    +0.000 C 
ATOM     14  N   UNL     1      52.246   2.505  17.868  0.00  0.00    +0.000 N 
ATOM     15  C   UNL     1      53.600   2.419  18.113  0.00  0.00    +0.000 C 
ATOM     16  C   UNL     1      54.227   1.046  18.139  0.00  0.00    +0.000 C 
ATOM     17  O   UNL     1      54.297   3.404  18.356  0.00  0.00    +0.000 OA
ENDBRANCH   9  10
ENDBRANCH   7   9
ENDBRANCH   4   7
BRANCH   1  18
ATOM     18  C   UNL     1      48.609   9.465  15.475  0.00  0.00    +0.000 C 
BRANCH  18  21
ATOM     19  C   UNL     1      47.761   8.050  13.649  0.00  0.00    +0.000 C 
ATOM     20  O   UNL     1      48.901   7.877  13.223  0.00  0.00    +0.000 OA
ATOM     21  N   UNL     1      47.532   8.806  14.765  0.00  0.00    +0.000 N 
ATOM     22  H   UNL     1      46.585   9.010  15.056  0.00  0.00    +0.000 HD
BRANCH  19  30
ATOM     23  C   UNL     1      46.483   4.833  13.504  0.00  0.00    +0.000 A 
ATOM     24  N   UNL     1      45.794   3.701  13.239  0.00  0.00    +0.000 NA
ATOM     25  C   UNL     1      44.731   3.781  12.431  0.00  0.00    +0.000 A 
ATOM     26  N   UNL     1      44.257   4.873  11.844  0.00  0.00    +0.000 NA
ATOM     27  C   UNL     1      44.974   5.974  12.125  0.00  0.00    +0.000 A 
ATOM     28  S   UNL     1      44.496   7.460  11.460  0.00  0.00    +0.000 S 
ATOM     29  C   UNL     1      45.786   8.264  12.213  0.00  0.00    +0.000 A 
ATOM     30  C   UNL     1      46.602   7.436  12.977  0.00  0.00    +0.000 A 
ATOM     31  C   UNL     1      46.104   6.061  12.934  0.00  0.00    +0.000 A 
BRANCH  23  33
ATOM     32  C   UNL     1      47.194   4.337  15.686  0.00  0.00    +0.000 C 
ATOM     33  O   UNL     1      47.554   4.758  14.371  0.00  0.00    +0.000 OA
ENDBRANCH  23  33
ENDBRANCH  19  30
ENDBRANCH  18  21
ENDBRANCH   1  18
TORSDOF 7
ENDMDL
MODEL 7
REMARK VINA RESULT:    -5.698      3.303      5.607
REMARK INTER + INTRA:          -9.480
REMARK INTER:                  -8.470
REMARK INTRA:                  -1.010
REMARK UNBOUND:                -1.450
REMARK  Name = 
REMARK  9 active torsions:
REMARK  status: ('A' for Active; 'I' for Inactive)
REMARK    1  A    between atoms: C_1  and  O_2
REMARK    2  A    between atoms: O_2  and  C_3
REMARK    3  A    between atoms: C_10  and  C_11
REMARK    4  A    between atoms: N_13  and  C_14
REMARK    5  A    between atoms: C_14  and  C_15
REMARK    6  A    between atoms: C_18  and  N_19
REMARK    7  A    between atoms: N_19  and  C_20
REMARK    8  A    between atoms: C_20  and  C_21
REMARK    9  A    between atoms: C_26  and  C_27
REMARK                            x       y       z     vdW  Elec       q    Type
REMARK                         _______ _______ _______ _____ _____    ______ ____
ROOT
ATOM      1  C   UNL     1      47.979   4.435  16.230  0.00  0.00    +0.000 A 
ATOM      2  C   UNL     1      48.635   5.670  16.233  0.00  0.00    +0.000 A 
ATOM      3  C   UNL     1      48.479   6.560  15.165  0.00  0.00    +0.000 A 
ATOM      4  C   UNL     1      47.683   6.239  14.062  0.00  0.00    +0.000 A 
ATOM      5  C   UNL     1      47.079   4.975  14.041  0.00  0.00    +0.000 A 
ATOM      6  C   UNL     1      47.216   4.084  15.113  0.00  0.00    +0.000 A 
ENDROOT
BRANCH   4   7
ATOM      7  N   UNL     1      47.379   7.133  13.027  0.00  0.00    +0.000 N 
ATOM      8  H   UNL     1      46.916   7.965  13.390  0.00  0.00    +0.000 HD
BRANCH   7   9
ATOM      9  C   UNL     1      46.721   6.627  11.820  0.00  0.00    +0.000 C 
BRANCH   9  10
ATOM     10  C   UNL     1      45.199   6.458  12.007  0.00  0.00    +0.000 C 
ATOM     11  C   UNL     1      44.677   5.138  11.424  0.00  0.00    +0.000 C 
ATOM     12  C   UNL     1      43.172   5.361  11.371  0.00  0.00    +0.000 C 
ATOM     13  C   UNL     1      43.030   6.843  11.046  0.00  0.00    +0.000 C 
ATOM     14  N   UNL     1      44.307   7.453  11.397  0.00  0.00    +0.000 N 
ATOM     15  C   UNL     1      44.554   8.809  11.429  0.00  0.00    +0.000 C 
ATOM     16  C   UNL     1      43.527   9.728  10.813  0.00  0.00    +0.000 C 
ATOM     17  O   UNL     1      45.591   9.287  11.889  0.00  0.00    +0.000 OA
ENDBRANCH   9  10
ENDBRANCH   7   9
ENDBRANCH   4   7
BRANCH   1  18
ATOM     18  C   UNL     1      48.021   3.560  17.453  0.00  0.00    +0.000 C 
BRANCH  18  21
ATOM     19  C   UNL     1      50.157   2.375  17.158  0.00  0.00    +0.000 C 
ATOM     20  O   UNL     1      49.709   1.763  16.189  0.00  0.00    +0.000 OA
ATOM     21  N   UNL     1      49.394   3.293  17.826  0.00  0.00    +0.000 N 
ATOM     22  H   UNL     1      49.744   3.727  18.670  0.00  0.00    +0.000 HD
BRANCH  19  30
ATOM     23  C   UNL     1      52.592   4.403  18.558  0.00  0.00    +0.000 A 
ATOM     24  N   UNL     1      53.720   4.944  19.072  0.00  0.00    +0.000 NA
ATOM     25  C   UNL     1      54.782   4.149  19.245  0.00  0.00    +0.000 A 
ATOM     26  N   UNL     1      54.861   2.854  18.966  0.00  0.00    +0.000 NA
ATOM     27  C   UNL     1      53.724   2.356  18.451  0.00  0.00    +0.000 A 
ATOM     28  S   UNL     1      53.654   0.710  18.048  0.00  0.00    +0.000 S 
ATOM     29  C   UNL     1      52.053   0.862  17.511  0.00  0.00    +0.000 A 
ATOM     30  C   UNL     1      51.537   2.149  17.621  0.00  0.00    +0.000 A 
ATOM     31  C   UNL     1      52.540   3.044  18.200  0.00  0.00    +0.000 A 
BRANCH  23  33
ATOM     32  C   UNL     1      51.503   6.356  19.274  0.00  0.00    +0.000 C 
ATOM     33  O   UNL     1      51.484   5.213  18.419  0.00  0.00    +0.000 OA
ENDBRANCH  23  33
ENDBRANCH  19  30
ENDBRANCH  18  21
ENDBRANCH   1  18
TORSDOF 7
ENDMDL
MODEL 8
REMARK VINA RESULT:    -5.595      2.798      3.835
REMARK INTER + INTRA:          -9.335
REMARK INTER:                  -8.715
REMARK INTRA:                  -0.619
REMARK UNBOUND:                -1.450
REMARK  Name = 
REMARK  9 active torsions:
REMARK  status: ('A' for Active; 'I' for Inactive)
REMARK    1  A    between atoms: C_1  and  O_2
REMARK    2  A    between atoms: O_2  and  C_3
REMARK    3  A    between atoms: C_10  and  C_11
REMARK    4  A    between atoms: N_13  and  C_14
REMARK    5  A    between atoms: C_14  and  C_15
REMARK    6  A    between atoms: C_18  and  N_19
REMARK    7  A    between atoms: N_19  and  C_20
REMARK    8  A    between atoms: C_20  and  C_21
REMARK    9  A    between atoms: C_26  and  C_27
REMARK                            x       y       z     vdW  Elec       q    Type
REMARK                         _______ _______ _______ _____ _____    ______ ____
ROOT
ATOM      1  C   UNL     1      48.281   6.930  13.651  0.00  0.00    +0.000 A 
ATOM      2  C   UNL     1      47.515   5.761  13.673  0.00  0.00    +0.000 A 
ATOM      3  C   UNL     1      46.522   5.543  12.713  0.00  0.00    +0.000 A 
ATOM      4  C   UNL     1      46.254   6.488  11.717  0.00  0.00    +0.000 A 
ATOM      5  C   UNL     1      46.986   7.683  11.740  0.00  0.00    +0.000 A 
ATOM      6  C   UNL     1      47.993   7.902  12.688  0.00  0.00    +0.000 A 
ENDROOT
BRANCH   4   7
ATOM      7  N   UNL     1      45.370   6.276  10.650  0.00  0.00    +0.000 N 
ATOM      8  H   UNL     1      45.670   6.791   9.823  0.00  0.00    +0.000 HD
BRANCH   7   9
ATOM      9  C   UNL     1      43.931   6.408  10.882  0.00  0.00    +0.000 C 
BRANCH   9  10
ATOM     10  C   UNL     1      43.303   5.113  11.436  0.00  0.00    +0.000 C 
ATOM     11  C   UNL     1      43.397   5.019  12.965  0.00  0.00    +0.000 C 
ATOM     12  C   UNL     1      43.089   3.553  13.237  0.00  0.00    +0.000 C 
ATOM     13  C   UNL     1      43.700   2.822  12.047  0.00  0.00    +0.000 C 
ATOM     14  N   UNL     1      43.862   3.825  11.002  0.00  0.00    +0.000 N 
ATOM     15  C   UNL     1      44.217   3.558   9.697  0.00  0.00    +0.000 C 
ATOM     16  C   UNL     1      44.727   2.175   9.373  0.00  0.00    +0.000 C 
ATOM     17  O   UNL     1      44.181   4.409   8.809  0.00  0.00    +0.000 OA
ENDBRANCH   9  10
ENDBRANCH   7   9
ENDBRANCH   4   7
BRANCH   1  18
ATOM     18  C   UNL     1      49.451   7.079  14.584  0.00  0.00    +0.000 C 
BRANCH  18  21
ATOM     19  C   UNL     1      49.004   6.252  16.858  0.00  0.00    +0.000 C 
ATOM     20  O   UNL     1      49.451   5.144  16.567  0.00  0.00    +0.000 OA
ATOM     21  N   UNL     1      48.984   7.267  15.942  0.00  0.00    +0.000 N 
ATOM     22  H   UNL     1      48.538   8.147  16.167  0.00  0.00    +0.000 HD
BRANCH  19  30
ATOM     23  C   UNL     1      47.781   9.079  18.444  0.00  0.00    +0.000 A 
ATOM     24  N   UNL     1      47.305  10.000  19.311  0.00  0.00    +0.000 NA
ATOM     25  C   UNL     1      47.021   9.609  20.558  0.00  0.00    +0.000 A 
ATOM     26  N   UNL     1      47.152   8.385  21.058  0.00  0.00    +0.000 NA
ATOM     27  C   UNL     1      47.634   7.502  20.169  0.00  0.00    +0.000 A 
ATOM     28  S   UNL     1      47.854   5.889  20.645  0.00  0.00    +0.000 S 
ATOM     29  C   UNL     1      48.441   5.467  19.111  0.00  0.00    +0.000 A 
ATOM     30  C   UNL     1      48.486   6.526  18.210  0.00  0.00    +0.000 A 
ATOM     31  C   UNL     1      47.988   7.747  18.843  0.00  0.00    +0.000 A 
BRANCH  23  33
ATOM     32  C   UNL     1      48.863  10.633  17.057  0.00  0.00    +0.000 C 
ATOM     33  O   UNL     1      48.036   9.474  17.146  0.00  0.00    +0.000 OA
ENDBRANCH  23  33
ENDBRANCH  19  30
ENDBRANCH  18  21
ENDBRANCH   1  18
TORSDOF 7
ENDMDL
MODEL 9
REMARK VINA RESULT:    -5.526      4.012      6.461
REMARK INTER + INTRA:          -9.238
REMARK INTER:                  -7.901
REMARK INTRA:                  -1.337
REMARK UNBOUND:                -1.450
REMARK  Name = 
REMARK  9 active torsions:
REMARK  status: ('A' for Active; 'I' for Inactive)
REMARK    1  A    between atoms: C_1  and  O_2
REMARK    2  A    between atoms: O_2  and  C_3
REMARK    3  A    between atoms: C_10  and  C_11
REMARK    4  A    between atoms: N_13  and  C_14
REMARK    5  A    between atoms: C_14  and  C_15
REMARK    6  A    between atoms: C_18  and  N_19
REMARK    7  A    between atoms: N_19  and  C_20
REMARK    8  A    between atoms: C_20  and  C_21
REMARK    9  A    between atoms: C_26  and  C_27
REMARK                            x       y       z     vdW  Elec       q    Type
REMARK                         _______ _______ _______ _____ _____    ______ ____
ROOT
ATOM      1  C   UNL     1      47.973   4.013  16.426  0.00  0.00    +0.000 A 
ATOM      2  C   UNL     1      48.640   5.231  16.587  0.00  0.00    +0.000 A 
ATOM      3  C   UNL     1      48.437   6.277  15.681  0.00  0.00    +0.000 A 
ATOM      4  C   UNL     1      47.580   6.134  14.585  0.00  0.00    +0.000 A 
ATOM      5  C   UNL     1      46.965   4.889  14.399  0.00  0.00    +0.000 A 
ATOM      6  C   UNL     1      47.149   3.842  15.310  0.00  0.00    +0.000 A 
ENDROOT
BRANCH   4   7
ATOM      7  N   UNL     1      47.230   7.179  13.719  0.00  0.00    +0.000 N 
ATOM      8  H   UNL     1      46.348   7.604  14.002  0.00  0.00    +0.000 HD
BRANCH   7   9
ATOM      9  C   UNL     1      47.287   6.955  12.274  0.00  0.00    +0.000 C 
BRANCH   9  10
ATOM     10  C   UNL     1      48.365   7.819  11.587  0.00  0.00    +0.000 C 
ATOM     11  C   UNL     1      49.791   7.380  11.946  0.00  0.00    +0.000 C 
ATOM     12  C   UNL     1      50.636   8.563  11.495  0.00  0.00    +0.000 C 
ATOM     13  C   UNL     1      49.751   9.774  11.772  0.00  0.00    +0.000 C 
ATOM     14  N   UNL     1      48.391   9.260  11.875  0.00  0.00    +0.000 N 
ATOM     15  C   UNL     1      47.254  10.037  11.944  0.00  0.00    +0.000 C 
ATOM     16  C   UNL     1      47.425  11.516  12.192  0.00  0.00    +0.000 C 
ATOM     17  O   UNL     1      46.120   9.567  11.863  0.00  0.00    +0.000 OA
ENDBRANCH   9  10
ENDBRANCH   7   9
ENDBRANCH   4   7
BRANCH   1  18
ATOM     18  C   UNL     1      48.072   2.957  17.493  0.00  0.00    +0.000 C 
BRANCH  18  21
ATOM     19  C   UNL     1      50.342   2.073  17.150  0.00  0.00    +0.000 C 
ATOM     20  O   UNL     1      50.008   1.569  16.079  0.00  0.00    +0.000 OA
ATOM     21  N   UNL     1      49.451   2.789  17.901  0.00  0.00    +0.000 N 
ATOM     22  H   UNL     1      49.714   3.126  18.817  0.00  0.00    +0.000 HD
BRANCH  19  30
ATOM     23  C   UNL     1      52.496   4.154  18.892  0.00  0.00    +0.000 A 
ATOM     24  N   UNL     1      53.540   4.739  19.519  0.00  0.00    +0.000 NA
ATOM     25  C   UNL     1      54.673   4.040  19.654  0.00  0.00    +0.000 A 
ATOM     26  N   UNL     1      54.897   2.800  19.234  0.00  0.00    +0.000 NA
ATOM     27  C   UNL     1      53.840   2.256  18.609  0.00  0.00    +0.000 A 
ATOM     28  S   UNL     1      53.957   0.671  18.019  0.00  0.00    +0.000 S 
ATOM     29  C   UNL     1      52.371   0.725  17.423  0.00  0.00    +0.000 A 
ATOM     30  C   UNL     1      51.719   1.933  17.653  0.00  0.00    +0.000 A 
ATOM     31  C   UNL     1      52.600   2.848  18.379  0.00  0.00    +0.000 A 
BRANCH  23  33
ATOM     32  C   UNL     1      51.490   6.274  18.867  0.00  0.00    +0.000 C 
ATOM     33  O   UNL     1      51.315   4.860  18.790  0.00  0.00    +0.000 OA
ENDBRANCH  23  33
ENDBRANCH  19  30
ENDBRANCH  18  21
ENDBRANCH   1  18
TORSDOF 7
ENDMDL
