MODEL 1
REMARK VINA RESULT:    -7.465      0.000      0.000
REMARK INTER + INTRA:         -10.249
REMARK INTER:                  -9.647
REMARK INTRA:                  -0.602
REMARK UNBOUND:                -0.602
REMARK  Name = 
REMARK  6 active torsions:
REMARK  status: ('A' for Active; 'I' for Inactive)
REMARK    1  A    between atoms: N_1  and  C_2
REMARK    2  A    between atoms: C_2  and  C_3
REMARK    3  A    between atoms: C_6  and  O_7
REMARK    4  A    between atoms: O_7  and  C_8
REMARK    5  A    between atoms: C_8  and  C_9
REMARK    6  A    between atoms: C_12  and  N_13
REMARK                            x       y       z     vdW  Elec       q    Type
REMARK                         _______ _______ _______ _____ _____    ______ ____
ROOT
ATOM      1  C   UNL     1      46.626   5.167  13.161  0.00  0.00    +0.000 A 
ATOM      2  C   UNL     1      45.999   3.918  13.263  0.00  0.00    +0.000 A 
ATOM      3  C   UNL     1      45.175   3.441  12.242  0.00  0.00    +0.000 A 
ATOM      4  C   UNL     1      44.979   4.200  11.087  0.00  0.00    +0.000 A 
ATOM      5  C   UNL     1      45.577   5.459  10.998  0.00  0.00    +0.000 A 
ATOM      6  F   UNL     1      45.390   6.220   9.909  0.00  0.00    +0.000 F 
ATOM      7  C   UNL     1      46.396   5.944  12.018  0.00  0.00    +0.000 A 
ENDROOT
BRANCH   1   8
ATOM      8  C   UNL     1      47.511   5.657  14.276  0.00  0.00    +0.000 C 
BRANCH   8   9
ATOM      9  N   UNL     1      47.194   4.991  15.533  0.00  0.00    +0.000 NA
ATOM     10  H   UNL     1      46.497   4.268  15.363  0.00  0.00    +0.000 HD
ATOM     11  H   UNL     1      46.763   5.664  16.165  0.00  0.00    +0.000 HD
ENDBRANCH   8   9
ENDBRANCH   1   8
BRANCH   4  12
ATOM     12  O   UNL     1      44.223   3.797  10.020  0.00  0.00    +0.000 OA
BRANCH  12  13
ATOM     13  C   UNL     1      44.469   2.461   9.574  0.00  0.00    +0.000 C 
BRANCH  13  14
ATOM     14  C   UNL     1      45.521   2.433   8.493  0.00  0.00    +0.000 A 
ATOM     15  C   UNL     1      46.252   1.272   8.212  0.00  0.00    +0.000 A 
ATOM     16  C   UNL     1      47.176   1.254   7.165  0.00  0.00    +0.000 A 
ATOM     17  C   UNL     1      47.348   2.367   6.343  0.00  0.00    +0.000 A 
ATOM     18  C   UNL     1      46.654   3.539   6.650  0.00  0.00    +0.000 A 
ATOM     19  C   UNL     1      45.729   3.567   7.697  0.00  0.00    +0.000 A 
BRANCH  17  20
ATOM     20  N   UNL     1      48.360   2.380   5.376  0.00  0.00    +0.000 N 
ATOM     21  H   UNL     1      49.240   2.753   5.718  0.00  0.00    +0.000 HD
ATOM     22  H   UNL     1      48.476   1.492   4.898  0.00  0.00    +0.000 HD
ENDBRANCH  17  20
ENDBRANCH  13  14
ENDBRANCH  12  13
ENDBRANCH   4  12
TORSDOF 6
ENDMDL
MODEL 2
REMARK VINA RESULT:    -7.360      1.938      2.529
REMARK INTER + INTRA:         -10.113
REMARK INTER:                  -9.613
REMARK INTRA:                  -0.501
REMARK UNBOUND:                -0.602
REMARK  Name = 
REMARK  6 active torsions:
REMARK  status: ('A' for Active; 'I' for Inactive)
REMARK    1  A    between atoms: N_1  and  C_2
REMARK    2  A    between atoms: C_2  and  C_3
REMARK    3  A    between atoms: C_6  and  O_7
REMARK    4  A    between atoms: O_7  and  C_8
REMARK    5  A    between atoms: C_8  and  C_9
REMARK    6  A    between atoms: C_12  and  N_13
REMARK                            x       y       z     vdW  Elec       q    Type
REMARK                         _______ _______ _______ _____ _____    ______ ____
ROOT
ATOM      1  C   UNL     1      45.727   6.898  12.636  0.00  0.00    +0.000 A 
ATOM      2  C   UNL     1      44.902   6.821  11.506  0.00  0.00    +0.000 A 
ATOM      3  C   UNL     1      44.571   5.588  10.940  0.00  0.00    +0.000 A 
ATOM      4  C   UNL     1      45.043   4.405  11.509  0.00  0.00    +0.000 A 
ATOM      5  C   UNL     1      45.893   4.482  12.616  0.00  0.00    +0.000 A 
ATOM      6  F   UNL     1      46.379   3.363  13.173  0.00  0.00    +0.000 F 
ATOM      7  C   UNL     1      46.233   5.711  13.182  0.00  0.00    +0.000 A 
ENDROOT
BRANCH   1   8
ATOM      8  C   UNL     1      46.069   8.240  13.226  0.00  0.00    +0.000 C 
BRANCH   8   9
ATOM      9  N   UNL     1      45.079   9.245  12.861  0.00  0.00    +0.000 NA
ATOM     10  H   UNL     1      44.151   8.826  12.885  0.00  0.00    +0.000 HD
ATOM     11  H   UNL     1      45.240   9.533  11.896  0.00  0.00    +0.000 HD
ENDBRANCH   8   9
ENDBRANCH   1   8
BRANCH   4  12
ATOM     12  O   UNL     1      44.738   3.153  11.049  0.00  0.00    +0.000 OA
BRANCH  12  13
ATOM     13  C   UNL     1      44.194   3.110   9.728  0.00  0.00    +0.000 C 
BRANCH  13  14
ATOM     14  C   UNL     1      45.269   2.840   8.704  0.00  0.00    +0.000 A 
ATOM     15  C   UNL     1      45.823   3.871   7.936  0.00  0.00    +0.000 A 
ATOM     16  C   UNL     1      46.860   3.606   7.039  0.00  0.00    +0.000 A 
ATOM     17  C   UNL     1      47.404   2.326   6.933  0.00  0.00    +0.000 A 
ATOM     18  C   UNL     1      46.823   1.289   7.665  0.00  0.00    +0.000 A 
ATOM     19  C   UNL     1      45.783   1.545   8.562  0.00  0.00    +0.000 A 
BRANCH  17  20
ATOM     20  N   UNL     1      48.358   2.044   5.948  0.00  0.00    +0.000 N 
ATOM     21  H   UNL     1      49.174   1.557   6.305  0.00  0.00    +0.000 HD
ATOM     22  H   UNL     1      47.971   1.597   5.124  0.00  0.00    +0.000 HD
ENDBRANCH  17  20
ENDBRANCH  13  14
ENDBRANCH  12  13
ENDBRANCH   4  12
TORSDOF 6
ENDMDL
MODEL 3
REMARK VINA RESULT:    -7.201      1.079      5.851
REMARK INTER + INTRA:          -9.909
REMARK INTER:                  -9.139
REMARK INTRA:                  -0.770
REMARK UNBOUND:                -0.602
REMARK  Name = 
REMARK  6 active torsions:
REMARK  status: ('A' for Active; 'I' for Inactive)
REMARK    1  A    between atoms: N_1  and  C_2
REMARK    2  A    between atoms: C_2  and  C_3
REMARK    3  A    between atoms: C_6  and  O_7
REMARK    4  A    between atoms: O_7  and  C_8
REMARK    5  A    between atoms: C_8  and  C_9
REMARK    6  A    between atoms: C_12  and  N_13
REMARK                            x       y       z     vdW  Elec       q    Type
REMARK                         _______ _______ _______ _____ _____    ______ ____
ROOT
ATOM      1  C   UNL     1      46.539   2.174   7.606  0.00  0.00    +0.000 A 
ATOM      2  C   UNL     1      45.722   1.282   8.313  0.00  0.00    +0.000 A 
ATOM      3  C   UNL     1      44.741   1.747   9.192  0.00  0.00    +0.000 A 
ATOM      4  C   UNL     1      44.546   3.118   9.364  0.00  0.00    +0.000 A 
ATOM      5  C   UNL     1      45.382   4.008   8.684  0.00  0.00    +0.000 A 
ATOM      6  F   UNL     1      45.233   5.331   8.845  0.00  0.00    +0.000 F 
ATOM      7  C   UNL     1      46.368   3.550   7.810  0.00  0.00    +0.000 A 
ENDROOT
BRANCH   1   8
ATOM      8  C   UNL     1      47.588   1.647   6.664  0.00  0.00    +0.000 C 
BRANCH   8   9
ATOM      9  N   UNL     1      48.614   2.649   6.403  0.00  0.00    +0.000 NA
ATOM     10  H   UNL     1      48.811   3.159   7.262  0.00  0.00    +0.000 HD
ATOM     11  H   UNL     1      48.249   3.331   5.739  0.00  0.00    +0.000 HD
ENDBRANCH   8   9
ENDBRANCH   1   8
BRANCH   4  12
ATOM     12  O   UNL     1      43.586   3.665  10.171  0.00  0.00    +0.000 OA
BRANCH  12  13
ATOM     13  C   UNL     1      43.612   3.219  11.529  0.00  0.00    +0.000 C 
BRANCH  13  14
ATOM     14  C   UNL     1      44.679   3.936  12.318  0.00  0.00    +0.000 A 
ATOM     15  C   UNL     1      45.762   3.248  12.879  0.00  0.00    +0.000 A 
ATOM     16  C   UNL     1      46.769   3.943  13.552  0.00  0.00    +0.000 A 
ATOM     17  C   UNL     1      46.750   5.336  13.627  0.00  0.00    +0.000 A 
ATOM     18  C   UNL     1      45.648   6.019  13.109  0.00  0.00    +0.000 A 
ATOM     19  C   UNL     1      44.635   5.331  12.437  0.00  0.00    +0.000 A 
BRANCH  17  20
ATOM     20  N   UNL     1      47.697   6.013  14.405  0.00  0.00    +0.000 N 
ATOM     21  H   UNL     1      47.602   5.836  15.400  0.00  0.00    +0.000 HD
ATOM     22  H   UNL     1      48.651   5.891  14.080  0.00  0.00    +0.000 HD
ENDBRANCH  17  20
ENDBRANCH  13  14
ENDBRANCH  12  13
ENDBRANCH   4  12
TORSDOF 6
ENDMDL
MODEL 4
REMARK VINA RESULT:    -6.354      1.414      2.146
REMARK INTER + INTRA:          -8.813
REMARK INTER:                  -8.227
REMARK INTRA:                  -0.586
REMARK UNBOUND:                -0.602
REMARK  Name = 
REMARK  6 active torsions:
REMARK  status: ('A' for Active; 'I' for Inactive)
REMARK    1  A    between atoms: N_1  and  C_2
REMARK    2  A    between atoms: C_2  and  C_3
REMARK    3  A    between atoms: C_6  and  O_7
REMARK    4  A    between atoms: O_7  and  C_8
REMARK    5  A    between atoms: C_8  and  C_9
REMARK    6  A    between atoms: C_12  and  N_13
REMARK                            x       y       z     vdW  Elec       q    Type
REMARK                         _______ _______ _______ _____ _____    ______ ____
ROOT
ATOM      1  C   UNL     1      46.584   5.218  13.481  0.00  0.00    +0.000 A 
ATOM      2  C   UNL     1      46.256   6.078  12.425  0.00  0.00    +0.000 A 
ATOM      3  C   UNL     1      45.349   5.692  11.436  0.00  0.00    +0.000 A 
ATOM      4  C   UNL     1      44.736   4.440  11.498  0.00  0.00    +0.000 A 
ATOM      5  C   UNL     1      45.086   3.568  12.532  0.00  0.00    +0.000 A 
ATOM      6  F   UNL     1      44.529   2.350  12.607  0.00  0.00    +0.000 F 
ATOM      7  C   UNL     1      45.997   3.946  13.519  0.00  0.00    +0.000 A 
ENDROOT
BRANCH   1   8
ATOM      8  C   UNL     1      47.564   5.659  14.533  0.00  0.00    +0.000 C 
BRANCH   8   9
ATOM      9  N   UNL     1      48.004   4.535  15.350  0.00  0.00    +0.000 NA
ATOM     10  H   UNL     1      47.260   4.278  15.995  0.00  0.00    +0.000 HD
ATOM     11  H   UNL     1      48.794   4.831  15.922  0.00  0.00    +0.000 HD
ENDBRANCH   8   9
ENDBRANCH   1   8
BRANCH   4  12
ATOM     12  O   UNL     1      43.806   3.991  10.599  0.00  0.00    +0.000 OA
BRANCH  12  13
ATOM     13  C   UNL     1      43.995   4.447   9.257  0.00  0.00    +0.000 C 
BRANCH  13  14
ATOM     14  C   UNL     1      45.056   3.639   8.552  0.00  0.00    +0.000 A 
ATOM     15  C   UNL     1      46.002   4.245   7.715  0.00  0.00    +0.000 A 
ATOM     16  C   UNL     1      47.013   3.485   7.123  0.00  0.00    +0.000 A 
ATOM     17  C   UNL     1      47.138   2.123   7.399  0.00  0.00    +0.000 A 
ATOM     18  C   UNL     1      46.170   1.509   8.196  0.00  0.00    +0.000 A 
ATOM     19  C   UNL     1      45.154   2.262   8.790  0.00  0.00    +0.000 A 
BRANCH  17  20
ATOM     20  N   UNL     1      48.078   1.347   6.709  0.00  0.00    +0.000 N 
ATOM     21  H   UNL     1      48.109   1.543   5.713  0.00  0.00    +0.000 HD
ATOM     22  H   UNL     1      49.000   1.354   7.133  0.00  0.00    +0.000 HD
ENDBRANCH  17  20
ENDBRANCH  13  14
ENDBRANCH  12  13
ENDBRANCH   4  12
TORSDOF 6
ENDMDL
MODEL 5
REMARK VINA RESULT:    -5.536      2.353      3.453
REMARK INTER + INTRA:          -7.757
REMARK INTER:                  -7.001
REMARK INTRA:                  -0.757
REMARK UNBOUND:                -0.602
REMARK  Name = 
REMARK  6 active torsions:
REMARK  status: ('A' for Active; 'I' for Inactive)
REMARK    1  A    between atoms: N_1  and  C_2
REMARK    2  A    between atoms: C_2  and  C_3
REMARK    3  A    between atoms: C_6  and  O_7
REMARK    4  A    between atoms: O_7  and  C_8
REMARK    5  A    between atoms: C_8  and  C_9
REMARK    6  A    between atoms: C_12  and  N_13
REMARK                            x       y       z     vdW  Elec       q    Type
REMARK                         _______ _______ _______ _____ _____    ______ ____
ROOT
ATOM      1  C   UNL     1      47.870   7.552  13.118  0.00  0.00    +0.000 A 
ATOM      2  C   UNL     1      46.736   8.305  12.788  0.00  0.00    +0.000 A 
ATOM      3  C   UNL     1      45.509   7.687  12.541  0.00  0.00    +0.000 A 
ATOM      4  C   UNL     1      45.389   6.301  12.641  0.00  0.00    +0.000 A 
ATOM      5  C   UNL     1      46.526   5.546  12.938  0.00  0.00    +0.000 A 
ATOM      6  F   UNL     1      46.447   4.209  13.021  0.00  0.00    +0.000 F 
ATOM      7  C   UNL     1      47.757   6.157  13.179  0.00  0.00    +0.000 A 
ENDROOT
BRANCH   1   8
ATOM      8  C   UNL     1      49.181   8.243  13.380  0.00  0.00    +0.000 C 
BRANCH   8   9
ATOM      9  N   UNL     1      50.303   7.445  12.902  0.00  0.00    +0.000 NA
ATOM     10  H   UNL     1      50.598   7.791  11.992  0.00  0.00    +0.000 HD
ATOM     11  H   UNL     1      49.989   6.486  12.759  0.00  0.00    +0.000 HD
ENDBRANCH   8   9
ENDBRANCH   1   8
BRANCH   4  12
ATOM     12  O   UNL     1      44.220   5.613  12.457  0.00  0.00    +0.000 OA
BRANCH  12  13
ATOM     13  C   UNL     1      43.694   5.660  11.128  0.00  0.00    +0.000 C 
BRANCH  13  14
ATOM     14  C   UNL     1      44.296   4.579  10.265  0.00  0.00    +0.000 A 
ATOM     15  C   UNL     1      45.190   4.881   9.231  0.00  0.00    +0.000 A 
ATOM     16  C   UNL     1      45.782   3.859   8.486  0.00  0.00    +0.000 A 
ATOM     17  C   UNL     1      45.542   2.519   8.794  0.00  0.00    +0.000 A 
ATOM     18  C   UNL     1      44.616   2.217   9.794  0.00  0.00    +0.000 A 
ATOM     19  C   UNL     1      44.017   3.234  10.542  0.00  0.00    +0.000 A 
BRANCH  17  20
ATOM     20  N   UNL     1      46.043   1.506   7.968  0.00  0.00    +0.000 N 
ATOM     21  H   UNL     1      46.833   1.800   7.402  0.00  0.00    +0.000 HD
ATOM     22  H   UNL     1      46.221   0.634   8.456  0.00  0.00    +0.000 HD
ENDBRANCH  17  20
ENDBRANCH  13  14
ENDBRANCH  12  13
ENDBRANCH   4  12
TORSDOF 6
ENDMDL
MODEL 6
REMARK VINA RESULT:    -5.396      5.277      6.603
REMARK INTER + INTRA:          -7.576
REMARK INTER:                  -7.171
REMARK INTRA:                  -0.405
REMARK UNBOUND:                -0.602
REMARK  Name = 
REMARK  6 active torsions:
REMARK  status: ('A' for Active; 'I' for Inactive)
REMARK    1  A    between atoms: N_1  and  C_2
REMARK    2  A    between atoms: C_2  and  C_3
REMARK    3  A    between atoms: C_6  and  O_7
REMARK    4  A    between atoms: O_7  and  C_8
REMARK    5  A    between atoms: C_8  and  C_9
REMARK    6  A    between atoms: C_12  and  N_13
REMARK                            x       y       z     vdW  Elec       q    Type
REMARK                         _______ _______ _______ _____ _____    ______ ____
ROOT
ATOM      1  C   UNL     1      49.356   4.907  18.344  0.00  0.00    +0.000 A 
ATOM      2  C   UNL     1      49.308   5.690  17.182  0.00  0.00    +0.000 A 
ATOM      3  C   UNL     1      48.398   5.409  16.162  0.00  0.00    +0.000 A 
ATOM      4  C   UNL     1      47.501   4.348  16.295  0.00  0.00    +0.000 A 
ATOM      5  C   UNL     1      47.570   3.546  17.438  0.00  0.00    +0.000 A 
ATOM      6  F   UNL     1      46.734   2.507  17.585  0.00  0.00    +0.000 F 
ATOM      7  C   UNL     1      48.482   3.818  18.457  0.00  0.00    +0.000 A 
ENDROOT
BRANCH   1   8
ATOM      8  C   UNL     1      50.347   5.232  19.429  0.00  0.00    +0.000 C 
BRANCH   8   9
ATOM      9  N   UNL     1      50.023   4.533  20.666  0.00  0.00    +0.000 NA
ATOM     10  H   UNL     1      49.926   5.211  21.419  0.00  0.00    +0.000 HD
ATOM     11  H   UNL     1      50.805   3.930  20.920  0.00  0.00    +0.000 HD
ENDBRANCH   8   9
ENDBRANCH   1   8
BRANCH   4  12
ATOM     12  O   UNL     1      46.548   4.023  15.368  0.00  0.00    +0.000 OA
BRANCH  12  13
ATOM     13  C   UNL     1      46.925   4.253  14.008  0.00  0.00    +0.000 C 
BRANCH  13  14
ATOM     14  C   UNL     1      45.857   5.021  13.270  0.00  0.00    +0.000 A 
ATOM     15  C   UNL     1      46.149   6.209  12.587  0.00  0.00    +0.000 A 
ATOM     16  C   UNL     1      45.157   6.869  11.859  0.00  0.00    +0.000 A 
ATOM     17  C   UNL     1      43.874   6.331  11.748  0.00  0.00    +0.000 A 
ATOM     18  C   UNL     1      43.569   5.172  12.465  0.00  0.00    +0.000 A 
ATOM     19  C   UNL     1      44.556   4.508  13.198  0.00  0.00    +0.000 A 
BRANCH  17  20
ATOM     20  N   UNL     1      42.856   7.059  11.120  0.00  0.00    +0.000 N 
ATOM     21  H   UNL     1      43.186   7.906  10.669  0.00  0.00    +0.000 HD
ATOM     22  H   UNL     1      42.275   6.497  10.507  0.00  0.00    +0.000 HD
ENDBRANCH  17  20
ENDBRANCH  13  14
ENDBRANCH  12  13
ENDBRANCH   4  12
TORSDOF 6
ENDMDL
MODEL 7
REMARK VINA RESULT:    -5.316      4.929      6.079
REMARK INTER + INTRA:          -7.473
REMARK INTER:                  -7.043
REMARK INTRA:                  -0.430
REMARK UNBOUND:                -0.602
REMARK  Name = 
REMARK  6 active torsions:
REMARK  status: ('A' for Active; 'I' for Inactive)
REMARK    1  A    between atoms: N_1  and  C_2
REMARK    2  A    between atoms: C_2  and  C_3
REMARK    3  A    between atoms: C_6  and  O_7
REMARK    4  A    between atoms: O_7  and  C_8
REMARK    5  A    between atoms: C_8  and  C_9
REMARK    6  A    between atoms: C_12  and  N_13
REMARK                            x       y       z     vdW  Elec       q    Type
REMARK                         _______ _______ _______ _____ _____    ______ ____
ROOT
ATOM      1  C   UNL     1      48.502   4.624  18.321  0.00  0.00    +0.000 A 
ATOM      2  C   UNL     1      47.912   3.532  17.671  0.00  0.00    +0.000 A 
ATOM      3  C   UNL     1      47.612   3.581  16.308  0.00  0.00    +0.000 A 
ATOM      4  C   UNL     1      47.916   4.722  15.564  0.00  0.00    +0.000 A 
ATOM      5  C   UNL     1      48.474   5.824  16.217  0.00  0.00    +0.000 A 
ATOM      6  F   UNL     1      48.759   6.942  15.533  0.00  0.00    +0.000 F 
ATOM      7  C   UNL     1      48.770   5.783  17.580  0.00  0.00    +0.000 A 
ENDROOT
BRANCH   1   8
ATOM      8  C   UNL     1      48.816   4.545  19.791  0.00  0.00    +0.000 C 
BRANCH   8   9
ATOM      9  N   UNL     1      48.350   3.287  20.362  0.00  0.00    +0.000 NA
ATOM     10  H   UNL     1      49.041   2.561  20.182  0.00  0.00    +0.000 HD
ATOM     11  H   UNL     1      47.498   3.001  19.882  0.00  0.00    +0.000 HD
ENDBRANCH   8   9
ENDBRANCH   1   8
BRANCH   4  12
ATOM     12  O   UNL     1      47.696   4.846  14.219  0.00  0.00    +0.000 OA
BRANCH  12  13
ATOM     13  C   UNL     1      46.702   3.967  13.685  0.00  0.00    +0.000 C 
BRANCH  13  14
ATOM     14  C   UNL     1      45.624   4.738  12.964  0.00  0.00    +0.000 A 
ATOM     15  C   UNL     1      44.275   4.374  13.060  0.00  0.00    +0.000 A 
ATOM     16  C   UNL     1      43.290   5.141  12.433  0.00  0.00    +0.000 A 
ATOM     17  C   UNL     1      43.620   6.313  11.752  0.00  0.00    +0.000 A 
ATOM     18  C   UNL     1      44.968   6.651  11.618  0.00  0.00    +0.000 A 
ATOM     19  C   UNL     1      45.960   5.888  12.239  0.00  0.00    +0.000 A 
BRANCH  17  20
ATOM     20  N   UNL     1      42.644   7.006  11.028  0.00  0.00    +0.000 N 
ATOM     21  H   UNL     1      41.722   6.963  11.450  0.00  0.00    +0.000 HD
ATOM     22  H   UNL     1      42.914   7.954  10.787  0.00  0.00    +0.000 HD
ENDBRANCH  17  20
ENDBRANCH  13  14
ENDBRANCH  12  13
ENDBRANCH   4  12
TORSDOF 6
ENDMDL
MODEL 8
REMARK VINA RESULT:    -5.039      3.245      7.766
REMARK INTER + INTRA:          -7.115
REMARK INTER:                  -6.782
REMARK INTRA:                  -0.332
REMARK UNBOUND:                -0.602
REMARK  Name = 
REMARK  6 active torsions:
REMARK  status: ('A' for Active; 'I' for Inactive)
REMARK    1  A    between atoms: N_1  and  C_2
REMARK    2  A    between atoms: C_2  and  C_3
REMARK    3  A    between atoms: C_6  and  O_7
REMARK    4  A    between atoms: O_7  and  C_8
REMARK    5  A    between atoms: C_8  and  C_9
REMARK    6  A    between atoms: C_12  and  N_13
REMARK                            x       y       z     vdW  Elec       q    Type
REMARK                         _______ _______ _______ _____ _____    ______ ____
ROOT
ATOM      1  C   UNL     1      44.817   4.485  10.536  0.00  0.00    +0.000 A 
ATOM      2  C   UNL     1      44.854   3.366  11.379  0.00  0.00    +0.000 A 
ATOM      3  C   UNL     1      45.482   3.424  12.625  0.00  0.00    +0.000 A 
ATOM      4  C   UNL     1      46.070   4.613  13.059  0.00  0.00    +0.000 A 
ATOM      5  C   UNL     1      46.063   5.719  12.206  0.00  0.00    +0.000 A 
ATOM      6  F   UNL     1      46.638   6.870  12.587  0.00  0.00    +0.000 F 
ATOM      7  C   UNL     1      45.443   5.666  10.958  0.00  0.00    +0.000 A 
ENDROOT
BRANCH   1   8
ATOM      8  C   UNL     1      44.132   4.396   9.199  0.00  0.00    +0.000 C 
BRANCH   8   9
ATOM      9  N   UNL     1      44.485   3.162   8.507  0.00  0.00    +0.000 NA
ATOM     10  H   UNL     1      45.478   3.175   8.284  0.00  0.00    +0.000 HD
ATOM     11  H   UNL     1      43.990   3.129   7.616  0.00  0.00    +0.000 HD
ENDBRANCH   8   9
ENDBRANCH   1   8
BRANCH   4  12
ATOM     12  O   UNL     1      46.672   4.775  14.278  0.00  0.00    +0.000 OA
BRANCH  12  13
ATOM     13  C   UNL     1      47.179   3.574  14.866  0.00  0.00    +0.000 C 
BRANCH  13  14
ATOM     14  C   UNL     1      47.685   3.825  16.265  0.00  0.00    +0.000 A 
ATOM     15  C   UNL     1      47.744   2.800  17.217  0.00  0.00    +0.000 A 
ATOM     16  C   UNL     1      48.275   3.042  18.486  0.00  0.00    +0.000 A 
ATOM     17  C   UNL     1      48.810   4.290  18.811  0.00  0.00    +0.000 A 
ATOM     18  C   UNL     1      48.710   5.324  17.879  0.00  0.00    +0.000 A 
ATOM     19  C   UNL     1      48.178   5.091  16.608  0.00  0.00    +0.000 A 
BRANCH  17  20
ATOM     20  N   UNL     1      49.227   4.558  20.120  0.00  0.00    +0.000 N 
ATOM     21  H   UNL     1      49.962   5.257  20.174  0.00  0.00    +0.000 HD
ATOM     22  H   UNL     1      48.463   4.751  20.759  0.00  0.00    +0.000 HD
ENDBRANCH  17  20
ENDBRANCH  13  14
ENDBRANCH  12  13
ENDBRANCH   4  12
TORSDOF 6
ENDMDL
MODEL 9
REMARK VINA RESULT:    -4.948      3.986      5.666
REMARK INTER + INTRA:          -6.997
REMARK INTER:                  -6.331
REMARK INTRA:                  -0.666
REMARK UNBOUND:                -0.602
REMARK  Name = 
REMARK  6 active torsions:
REMARK  status: ('A' for Active; 'I' for Inactive)
REMARK    1  A    between atoms: N_1  and  C_2
REMARK    2  A    between atoms: C_2  and  C_3
REMARK    3  A    between atoms: C_6  and  O_7
REMARK    4  A    between atoms: O_7  and  C_8
REMARK    5  A    between atoms: C_8  and  C_9
REMARK    6  A    between atoms: C_12  and  N_13
REMARK                            x       y       z     vdW  Elec       q    Type
REMARK                         _______ _______ _______ _____ _____    ______ ____
ROOT
ATOM      1  C   UNL     1      49.790   8.363  11.852  0.00  0.00    +0.000 A 
ATOM      2  C   UNL     1      48.861   9.405  11.733  0.00  0.00    +0.000 A 
ATOM      3  C   UNL     1      47.519   9.216  12.069  0.00  0.00    +0.000 A 
ATOM      4  C   UNL     1      47.085   7.981  12.551  0.00  0.00    +0.000 A 
ATOM      5  C   UNL     1      48.002   6.931  12.639  0.00  0.00    +0.000 A 
ATOM      6  F   UNL     1      47.610   5.726  13.080  0.00  0.00    +0.000 F 
ATOM      7  C   UNL     1      49.343   7.112  12.299  0.00  0.00    +0.000 A 
ENDROOT
BRANCH   1   8
ATOM      8  C   UNL     1      51.230   8.594  11.484  0.00  0.00    +0.000 C 
BRANCH   8   9
ATOM      9  N   UNL     1      51.461   9.981  11.099  0.00  0.00    +0.000 NA
ATOM     10  H   UNL     1      52.428  10.227  11.298  0.00  0.00    +0.000 HD
ATOM     11  H   UNL     1      50.883  10.586  11.681  0.00  0.00    +0.000 HD
ENDBRANCH   8   9
ENDBRANCH   1   8
BRANCH   4  12
ATOM     12  O   UNL     1      45.800   7.715  12.942  0.00  0.00    +0.000 OA
BRANCH  12  13
ATOM     13  C   UNL     1      44.878   7.485  11.874  0.00  0.00    +0.000 C 
BRANCH  13  14
ATOM     14  C   UNL     1      44.462   6.036  11.816  0.00  0.00    +0.000 A 
ATOM     15  C   UNL     1      44.808   5.217  10.735  0.00  0.00    +0.000 A 
ATOM     16  C   UNL     1      44.464   3.863  10.734  0.00  0.00    +0.000 A 
ATOM     17  C   UNL     1      43.823   3.287  11.831  0.00  0.00    +0.000 A 
ATOM     18  C   UNL     1      43.437   4.112  12.890  0.00  0.00    +0.000 A 
ATOM     19  C   UNL     1      43.775   5.468  12.897  0.00  0.00    +0.000 A 
BRANCH  17  20
ATOM     20  N   UNL     1      43.376   1.962  11.771  0.00  0.00    +0.000 N 
ATOM     21  H   UNL     1      43.963   1.315  12.288  0.00  0.00    +0.000 HD
ATOM     22  H   UNL     1      42.392   1.855  11.995  0.00  0.00    +0.000 HD
ENDBRANCH  17  20
ENDBRANCH  13  14
ENDBRANCH  12  13
ENDBRANCH   4  12
TORSDOF 6
ENDMDL
