MODEL 1
REMARK VINA RESULT:    -8.752      0.000      0.000
REMARK INTER + INTRA:         -12.337
REMARK INTER:                 -11.310
REMARK INTRA:                  -1.027
REMARK UNBOUND:                -1.027
REMARK  Name = 
REMARK  5 active torsions:
REMARK  status: ('A' for Active; 'I' for Inactive)
REMARK    1  A    between atoms: C_2  and  C_4
REMARK    2  A    between atoms: C_7  and  N_8
REMARK    3  A    between atoms: N_8  and  C_9
REMARK    4  A    between atoms: C_9  and  C_10
REMARK    5  A    between atoms: C_14  and  C_15
REMARK                            x       y       z     vdW  Elec       q    Type
REMARK                         _______ _______ _______ _____ _____    ______ ____
ROOT
ATOM      1  C   UNL     1      43.719   4.835  11.332  0.00  0.00    +0.000 C 
ENDROOT
BRANCH   1   2
ATOM      2  C   UNL     1      45.069   4.991  11.973  0.00  0.00    +0.000 A 
ATOM      3  C   UNL     1      45.544   4.073  12.908  0.00  0.00    +0.000 A 
ATOM      4  C   UNL     1      46.774   4.308  13.499  0.00  0.00    +0.000 A 
ATOM      5  N   UNL     1      47.542   5.384  13.232  0.00  0.00    +0.000 NA
ATOM      6  C   UNL     1      47.078   6.277  12.324  0.00  0.00    +0.000 A 
ATOM      7  C   UNL     1      45.867   6.094  11.663  0.00  0.00    +0.000 A 
BRANCH   6   8
ATOM      8  C   UNL     1      47.896   7.481  12.118  0.00  0.00    +0.000 A 
ATOM      9  C   UNL     1      49.287   7.385  11.908  0.00  0.00    +0.000 A 
ATOM     10  C   UNL     1      50.063   8.523  11.698  0.00  0.00    +0.000 A 
ATOM     11  C   UNL     1      49.456   9.771  11.689  0.00  0.00    +0.000 A 
ATOM     12  F   UNL     1      50.202  10.863  11.482  0.00  0.00    +0.000 F 
ATOM     13  C   UNL     1      48.087   9.900  11.883  0.00  0.00    +0.000 A 
ATOM     14  C   UNL     1      47.311   8.760  12.095  0.00  0.00    +0.000 A 
ENDBRANCH   6   8
ENDBRANCH   1   2
BRANCH   1  15
ATOM     15  N   UNL     1      43.809   4.970   9.890  0.00  0.00    +0.000 N 
ATOM     16  H   UNL     1      42.940   5.232   9.427  0.00  0.00    +0.000 HD
BRANCH  15  20
ATOM     17  C   UNL     1      46.326   2.273   7.832  0.00  0.00    +0.000 A 
ATOM     18  C   UNL     1      45.365   1.782   8.714  0.00  0.00    +0.000 A 
ATOM     19  C   UNL     1      44.512   2.668   9.380  0.00  0.00    +0.000 A 
ATOM     20  C   UNL     1      44.571   4.051   9.162  0.00  0.00    +0.000 A 
ATOM     21  C   UNL     1      45.541   4.527   8.267  0.00  0.00    +0.000 A 
ATOM     22  C   UNL     1      46.416   3.649   7.610  0.00  0.00    +0.000 A 
BRANCH  17  24
ATOM     23  N   UNL     1      48.339   1.962   6.497  0.00  0.00    +0.000 N 
ATOM     24  C   UNL     1      47.318   1.369   7.193  0.00  0.00    +0.000 C 
ATOM     25  O   UNL     1      47.235   0.158   7.287  0.00  0.00    +0.000 OA
ATOM     26  H   UNL     1      49.037   1.342   6.107  0.00  0.00    +0.000 HD
ATOM     27  H   UNL     1      48.568   2.939   6.586  0.00  0.00    +0.000 HD
ENDBRANCH  17  24
ENDBRANCH  15  20
ENDBRANCH   1  15
TORSDOF 5
ENDMDL
MODEL 2
REMARK VINA RESULT:    -8.577      2.667      3.896
REMARK INTER + INTRA:         -12.111
REMARK INTER:                 -11.283
REMARK INTRA:                  -0.828
REMARK UNBOUND:                -1.027
REMARK  Name = 
REMARK  5 active torsions:
REMARK  status: ('A' for Active; 'I' for Inactive)
REMARK    1  A    between atoms: C_2  and  C_4
REMARK    2  A    between atoms: C_7  and  N_8
REMARK    3  A    between atoms: N_8  and  C_9
REMARK    4  A    between atoms: C_9  and  C_10
REMARK    5  A    between atoms: C_14  and  C_15
REMARK                            x       y       z     vdW  Elec       q    Type
REMARK                         _______ _______ _______ _____ _____    ______ ____
ROOT
ATOM      1  C   UNL     1      43.873   4.800  11.463  0.00  0.00    +0.000 C 
ENDROOT
BRANCH   1   2
ATOM      2  C   UNL     1      45.123   5.415  12.027  0.00  0.00    +0.000 A 
ATOM      3  C   UNL     1      45.829   6.399  11.336  0.00  0.00    +0.000 A 
ATOM      4  C   UNL     1      47.002   6.882  11.890  0.00  0.00    +0.000 A 
ATOM      5  N   UNL     1      47.514   6.449  13.061  0.00  0.00    +0.000 NA
ATOM      6  C   UNL     1      46.828   5.491  13.730  0.00  0.00    +0.000 A 
ATOM      7  C   UNL     1      45.624   4.978  13.255  0.00  0.00    +0.000 A 
BRANCH   6   8
ATOM      8  C   UNL     1      47.454   4.979  14.958  0.00  0.00    +0.000 A 
ATOM      9  C   UNL     1      47.288   3.636  15.350  0.00  0.00    +0.000 A 
ATOM     10  C   UNL     1      47.891   3.143  16.506  0.00  0.00    +0.000 A 
ATOM     11  C   UNL     1      48.675   3.988  17.279  0.00  0.00    +0.000 A 
ATOM     12  F   UNL     1      49.259   3.513  18.386  0.00  0.00    +0.000 F 
ATOM     13  C   UNL     1      48.869   5.315  16.915  0.00  0.00    +0.000 A 
ATOM     14  C   UNL     1      48.262   5.807  15.759  0.00  0.00    +0.000 A 
ENDBRANCH   6   8
ENDBRANCH   1   2
BRANCH   1  15
ATOM     15  N   UNL     1      43.851   4.899  10.016  0.00  0.00    +0.000 N 
ATOM     16  H   UNL     1      42.942   5.118   9.613  0.00  0.00    +0.000 HD
BRANCH  15  20
ATOM     17  C   UNL     1      46.301   2.223   7.852  0.00  0.00    +0.000 A 
ATOM     18  C   UNL     1      45.377   1.723   8.768  0.00  0.00    +0.000 A 
ATOM     19  C   UNL     1      44.546   2.602   9.469  0.00  0.00    +0.000 A 
ATOM     20  C   UNL     1      44.590   3.987   9.255  0.00  0.00    +0.000 A 
ATOM     21  C   UNL     1      45.523   4.470   8.327  0.00  0.00    +0.000 A 
ATOM     22  C   UNL     1      46.376   3.599   7.633  0.00  0.00    +0.000 A 
BRANCH  17  24
ATOM     23  N   UNL     1      48.366   1.919   6.596  0.00  0.00    +0.000 N 
ATOM     24  C   UNL     1      47.272   1.326   7.172  0.00  0.00    +0.000 C 
ATOM     25  O   UNL     1      47.112   0.120   7.132  0.00  0.00    +0.000 OA
ATOM     26  H   UNL     1      49.047   1.298   6.179  0.00  0.00    +0.000 HD
ATOM     27  H   UNL     1      48.647   2.865   6.801  0.00  0.00    +0.000 HD
ENDBRANCH  17  24
ENDBRANCH  15  20
ENDBRANCH   1  15
TORSDOF 5
ENDMDL
MODEL 3
REMARK VINA RESULT:    -8.509      3.637      6.689
REMARK INTER + INTRA:         -12.023
REMARK INTER:                 -10.974
REMARK INTRA:                  -1.049
REMARK UNBOUND:                -1.027
REMARK  Name = 
REMARK  5 active torsions:
REMARK  status: ('A' for Active; 'I' for Inactive)
REMARK    1  A    between atoms: C_2  and  C_4
REMARK    2  A    between atoms: C_7  and  N_8
REMARK    3  A    between atoms: N_8  and  C_9
REMARK    4  A    between atoms: C_9  and  C_10
REMARK    5  A    between atoms: C_14  and  C_15
REMARK                            x       y       z     vdW  Elec       q    Type
REMARK                         _______ _______ _______ _____ _____    ______ ____
ROOT
ATOM      1  C   UNL     1      43.202   6.248  11.341  0.00  0.00    +0.000 C 
ENDROOT
BRANCH   1   2
ATOM      2  C   UNL     1      43.498   4.817  10.994  0.00  0.00    +0.000 A 
ATOM      3  C   UNL     1      43.048   3.764  11.788  0.00  0.00    +0.000 A 
ATOM      4  C   UNL     1      43.405   2.473  11.437  0.00  0.00    +0.000 A 
ATOM      5  N   UNL     1      44.175   2.169  10.373  0.00  0.00    +0.000 NA
ATOM      6  C   UNL     1      44.614   3.194   9.602  0.00  0.00    +0.000 A 
ATOM      7  C   UNL     1      44.271   4.517   9.870  0.00  0.00    +0.000 A 
BRANCH   6   8
ATOM      8  C   UNL     1      45.520   2.839   8.501  0.00  0.00    +0.000 A 
ATOM      9  C   UNL     1      45.919   3.802   7.552  0.00  0.00    +0.000 A 
ATOM     10  C   UNL     1      46.789   3.473   6.514  0.00  0.00    +0.000 A 
ATOM     11  C   UNL     1      47.278   2.177   6.419  0.00  0.00    +0.000 A 
ATOM     12  F   UNL     1      48.118   1.863   5.425  0.00  0.00    +0.000 F 
ATOM     13  C   UNL     1      46.914   1.207   7.344  0.00  0.00    +0.000 A 
ATOM     14  C   UNL     1      46.040   1.537   8.380  0.00  0.00    +0.000 A 
ENDBRANCH   6   8
ENDBRANCH   1   2
BRANCH   1  15
ATOM     15  N   UNL     1      43.875   6.637  12.566  0.00  0.00    +0.000 N 
ATOM     16  H   UNL     1      43.428   7.393  13.082  0.00  0.00    +0.000 HD
BRANCH  15  20
ATOM     17  C   UNL     1      48.074   7.028  12.813  0.00  0.00    +0.000 A 
ATOM     18  C   UNL     1      47.454   5.906  13.359  0.00  0.00    +0.000 A 
ATOM     19  C   UNL     1      46.067   5.759  13.259  0.00  0.00    +0.000 A 
ATOM     20  C   UNL     1      45.272   6.699  12.590  0.00  0.00    +0.000 A 
ATOM     21  C   UNL     1      45.915   7.819  12.042  0.00  0.00    +0.000 A 
ATOM     22  C   UNL     1      47.303   7.988  12.155  0.00  0.00    +0.000 A 
BRANCH  17  24
ATOM     23  N   UNL     1      50.292   7.351  11.861  0.00  0.00    +0.000 N 
ATOM     24  C   UNL     1      49.530   7.268  12.997  0.00  0.00    +0.000 C 
ATOM     25  O   UNL     1      50.025   7.394  14.102  0.00  0.00    +0.000 OA
ATOM     26  H   UNL     1      51.273   7.565  11.992  0.00  0.00    +0.000 HD
ATOM     27  H   UNL     1      49.896   7.480  10.943  0.00  0.00    +0.000 HD
ENDBRANCH  17  24
ENDBRANCH  15  20
ENDBRANCH   1  15
TORSDOF 5
ENDMDL
MODEL 4
REMARK VINA RESULT:    -7.707      1.635      2.085
REMARK INTER + INTRA:         -10.987
REMARK INTER:                 -10.187
REMARK INTRA:                  -0.799
REMARK UNBOUND:                -1.027
REMARK  Name = 
REMARK  5 active torsions:
REMARK  status: ('A' for Active; 'I' for Inactive)
REMARK    1  A    between atoms: C_2  and  C_4
REMARK    2  A    between atoms: C_7  and  N_8
REMARK    3  A    between atoms: N_8  and  C_9
REMARK    4  A    between atoms: C_9  and  C_10
REMARK    5  A    between atoms: C_14  and  C_15
REMARK                            x       y       z     vdW  Elec       q    Type
REMARK                         _______ _______ _______ _____ _____    ______ ____
ROOT
ATOM      1  C   UNL     1      44.707   3.586  11.868  0.00  0.00    +0.000 C 
ENDROOT
BRANCH   1   2
ATOM      2  C   UNL     1      45.053   5.048  11.927  0.00  0.00    +0.000 A 
ATOM      3  C   UNL     1      44.132   6.031  11.570  0.00  0.00    +0.000 A 
ATOM      4  C   UNL     1      44.537   7.355  11.596  0.00  0.00    +0.000 A 
ATOM      5  N   UNL     1      45.779   7.755  11.940  0.00  0.00    +0.000 NA
ATOM      6  C   UNL     1      46.673   6.797  12.286  0.00  0.00    +0.000 A 
ATOM      7  C   UNL     1      46.333   5.447  12.315  0.00  0.00    +0.000 A 
BRANCH   6   8
ATOM      8  C   UNL     1      48.040   7.256  12.572  0.00  0.00    +0.000 A 
ATOM      9  C   UNL     1      48.802   7.921  11.591  0.00  0.00    +0.000 A 
ATOM     10  C   UNL     1      50.092   8.370  11.863  0.00  0.00    +0.000 A 
ATOM     11  C   UNL     1      50.634   8.165  13.124  0.00  0.00    +0.000 A 
ATOM     12  F   UNL     1      51.872   8.600  13.386  0.00  0.00    +0.000 F 
ATOM     13  C   UNL     1      49.907   7.522  14.118  0.00  0.00    +0.000 A 
ATOM     14  C   UNL     1      48.615   7.071  13.843  0.00  0.00    +0.000 A 
ENDBRANCH   6   8
ENDBRANCH   1   2
BRANCH   1  15
ATOM     15  N   UNL     1      44.015   3.265  10.634  0.00  0.00    +0.000 N 
ATOM     16  H   UNL     1      43.222   2.634  10.737  0.00  0.00    +0.000 HD
BRANCH  15  20
ATOM     17  C   UNL     1      46.461   2.715   7.234  0.00  0.00    +0.000 A 
ATOM     18  C   UNL     1      46.123   1.618   8.025  0.00  0.00    +0.000 A 
ATOM     19  C   UNL     1      45.294   1.789   9.137  0.00  0.00    +0.000 A 
ATOM     20  C   UNL     1      44.757   3.040   9.470  0.00  0.00    +0.000 A 
ATOM     21  C   UNL     1      45.103   4.131   8.660  0.00  0.00    +0.000 A 
ATOM     22  C   UNL     1      45.951   3.975   7.553  0.00  0.00    +0.000 A 
BRANCH  17  24
ATOM     23  N   UNL     1      48.687   2.150   6.424  0.00  0.00    +0.000 N 
ATOM     24  C   UNL     1      47.425   2.586   6.110  0.00  0.00    +0.000 C 
ATOM     25  O   UNL     1      47.113   2.846   4.963  0.00  0.00    +0.000 OA
ATOM     26  H   UNL     1      49.322   2.016   5.648  0.00  0.00    +0.000 HD
ATOM     27  H   UNL     1      48.913   1.714   7.304  0.00  0.00    +0.000 HD
ENDBRANCH  17  24
ENDBRANCH  15  20
ENDBRANCH   1  15
TORSDOF 5
ENDMDL
MODEL 5
REMARK VINA RESULT:    -7.647      4.228      7.575
REMARK INTER + INTRA:         -10.909
REMARK INTER:                 -10.126
REMARK INTRA:                  -0.784
REMARK UNBOUND:                -1.027
REMARK  Name = 
REMARK  5 active torsions:
REMARK  status: ('A' for Active; 'I' for Inactive)
REMARK    1  A    between atoms: C_2  and  C_4
REMARK    2  A    between atoms: C_7  and  N_8
REMARK    3  A    between atoms: N_8  and  C_9
REMARK    4  A    between atoms: C_9  and  C_10
REMARK    5  A    between atoms: C_14  and  C_15
REMARK                            x       y       z     vdW  Elec       q    Type
REMARK                         _______ _______ _______ _____ _____    ______ ____
ROOT
ATOM      1  C   UNL     1      45.150   6.178  12.911  0.00  0.00    +0.000 C 
ENDROOT
BRANCH   1   2
ATOM      2  C   UNL     1      44.628   5.040  12.080  0.00  0.00    +0.000 A 
ATOM      3  C   UNL     1      43.543   4.270  12.495  0.00  0.00    +0.000 A 
ATOM      4  C   UNL     1      43.150   3.203  11.705  0.00  0.00    +0.000 A 
ATOM      5  N   UNL     1      43.764   2.852  10.556  0.00  0.00    +0.000 NA
ATOM      6  C   UNL     1      44.820   3.601  10.155  0.00  0.00    +0.000 A 
ATOM      7  C   UNL     1      45.255   4.709  10.877  0.00  0.00    +0.000 A 
BRANCH   6   8
ATOM      8  C   UNL     1      45.520   3.144   8.946  0.00  0.00    +0.000 A 
ATOM      9  C   UNL     1      45.960   4.062   7.972  0.00  0.00    +0.000 A 
ATOM     10  C   UNL     1      46.636   3.634   6.832  0.00  0.00    +0.000 A 
ATOM     11  C   UNL     1      46.888   2.281   6.656  0.00  0.00    +0.000 A 
ATOM     12  F   UNL     1      47.543   1.871   5.563  0.00  0.00    +0.000 F 
ATOM     13  C   UNL     1      46.478   1.349   7.602  0.00  0.00    +0.000 A 
ATOM     14  C   UNL     1      45.799   1.780   8.742  0.00  0.00    +0.000 A 
ENDBRANCH   6   8
ENDBRANCH   1   2
BRANCH   1  15
ATOM     15  N   UNL     1      46.597   6.139  12.997  0.00  0.00    +0.000 N 
ATOM     16  H   UNL     1      47.073   5.877  12.136  0.00  0.00    +0.000 HD
BRANCH  15  20
ATOM     17  C   UNL     1      48.292   4.754  16.610  0.00  0.00    +0.000 A 
ATOM     18  C   UNL     1      47.363   3.963  15.937  0.00  0.00    +0.000 A 
ATOM     19  C   UNL     1      46.817   4.405  14.729  0.00  0.00    +0.000 A 
ATOM     20  C   UNL     1      47.202   5.620  14.146  0.00  0.00    +0.000 A 
ATOM     21  C   UNL     1      48.142   6.400  14.835  0.00  0.00    +0.000 A 
ATOM     22  C   UNL     1      48.681   5.977  16.060  0.00  0.00    +0.000 A 
BRANCH  17  24
ATOM     23  N   UNL     1      48.046   3.489  18.677  0.00  0.00    +0.000 N 
ATOM     24  C   UNL     1      48.809   4.365  17.949  0.00  0.00    +0.000 C 
ATOM     25  O   UNL     1      49.863   4.794  18.379  0.00  0.00    +0.000 OA
ATOM     26  H   UNL     1      48.428   3.190  19.565  0.00  0.00    +0.000 HD
ATOM     27  H   UNL     1      47.301   2.945  18.272  0.00  0.00    +0.000 HD
ENDBRANCH  17  24
ENDBRANCH  15  20
ENDBRANCH   1  15
TORSDOF 5
ENDMDL
MODEL 6
REMARK VINA RESULT:    -7.467      3.711      6.986
REMARK INTER + INTRA:         -10.677
REMARK INTER:                  -9.823
REMARK INTRA:                  -0.853
REMARK UNBOUND:                -1.027
REMARK  Name = 
REMARK  5 active torsions:
REMARK  status: ('A' for Active; 'I' for Inactive)
REMARK    1  A    between atoms: C_2  and  C_4
REMARK    2  A    between atoms: C_7  and  N_8
REMARK    3  A    between atoms: N_8  and  C_9
REMARK    4  A    between atoms: C_9  and  C_10
REMARK    5  A    between atoms: C_14  and  C_15
REMARK                            x       y       z     vdW  Elec       q    Type
REMARK                         _______ _______ _______ _____ _____    ______ ____
ROOT
ATOM      1  C   UNL     1      44.712   6.591  12.548  0.00  0.00    +0.000 C 
ENDROOT
BRANCH   1   2
ATOM      2  C   UNL     1      44.356   5.302  11.861  0.00  0.00    +0.000 A 
ATOM      3  C   UNL     1      43.387   4.443  12.376  0.00  0.00    +0.000 A 
ATOM      4  C   UNL     1      43.149   3.247  11.720  0.00  0.00    +0.000 A 
ATOM      5  N   UNL     1      43.810   2.854  10.612  0.00  0.00    +0.000 NA
ATOM      6  C   UNL     1      44.753   3.689  10.113  0.00  0.00    +0.000 A 
ATOM      7  C   UNL     1      45.027   4.924  10.696  0.00  0.00    +0.000 A 
BRANCH   6   8
ATOM      8  C   UNL     1      45.514   3.196   8.956  0.00  0.00    +0.000 A 
ATOM      9  C   UNL     1      45.770   1.820   8.790  0.00  0.00    +0.000 A 
ATOM     10  C   UNL     1      46.479   1.347   7.688  0.00  0.00    +0.000 A 
ATOM     11  C   UNL     1      46.934   2.246   6.733  0.00  0.00    +0.000 A 
ATOM     12  F   UNL     1      47.611   1.791   5.672  0.00  0.00    +0.000 F 
ATOM     13  C   UNL     1      46.691   3.608   6.861  0.00  0.00    +0.000 A 
ATOM     14  C   UNL     1      45.983   4.080   7.967  0.00  0.00    +0.000 A 
ENDBRANCH   6   8
ENDBRANCH   1   2
BRANCH   1  15
ATOM     15  N   UNL     1      45.994   6.488  13.217  0.00  0.00    +0.000 N 
ATOM     16  H   UNL     1      45.954   6.529  14.234  0.00  0.00    +0.000 HD
BRANCH  15  20
ATOM     17  C   UNL     1      49.343   8.640  11.804  0.00  0.00    +0.000 A 
ATOM     18  C   UNL     1      49.503   7.326  12.239  0.00  0.00    +0.000 A 
ATOM     19  C   UNL     1      48.394   6.600  12.685  0.00  0.00    +0.000 A 
ATOM     20  C   UNL     1      47.104   7.146  12.678  0.00  0.00    +0.000 A 
ATOM     21  C   UNL     1      46.962   8.468  12.232  0.00  0.00    +0.000 A 
ATOM     22  C   UNL     1      48.071   9.214  11.803  0.00  0.00    +0.000 A 
BRANCH  17  24
ATOM     23  N   UNL     1      51.744   8.867  11.462  0.00  0.00    +0.000 N 
ATOM     24  C   UNL     1      50.515   9.473  11.427  0.00  0.00    +0.000 C 
ATOM     25  O   UNL     1      50.394  10.638  11.095  0.00  0.00    +0.000 OA
ATOM     26  H   UNL     1      52.530   9.425  11.156  0.00  0.00    +0.000 HD
ATOM     27  H   UNL     1      51.860   7.867  11.507  0.00  0.00    +0.000 HD
ENDBRANCH  17  24
ENDBRANCH  15  20
ENDBRANCH   1  15
TORSDOF 5
ENDMDL
MODEL 7
REMARK VINA RESULT:    -6.915      3.625      7.186
REMARK INTER + INTRA:          -9.963
REMARK INTER:                  -9.164
REMARK INTRA:                  -0.800
REMARK UNBOUND:                -1.027
REMARK  Name = 
REMARK  5 active torsions:
REMARK  status: ('A' for Active; 'I' for Inactive)
REMARK    1  A    between atoms: C_2  and  C_4
REMARK    2  A    between atoms: C_7  and  N_8
REMARK    3  A    between atoms: N_8  and  C_9
REMARK    4  A    between atoms: C_9  and  C_10
REMARK    5  A    between atoms: C_14  and  C_15
REMARK                            x       y       z     vdW  Elec       q    Type
REMARK                         _______ _______ _______ _____ _____    ______ ____
ROOT
ATOM      1  C   UNL     1      45.731   6.995  12.881  0.00  0.00    +0.000 C 
ENDROOT
BRANCH   1   2
ATOM      2  C   UNL     1      44.914   6.107  11.985  0.00  0.00    +0.000 A 
ATOM      3  C   UNL     1      43.551   5.910  12.197  0.00  0.00    +0.000 A 
ATOM      4  C   UNL     1      42.872   5.035  11.366  0.00  0.00    +0.000 A 
ATOM      5  N   UNL     1      43.456   4.348  10.362  0.00  0.00    +0.000 NA
ATOM      6  C   UNL     1      44.782   4.539  10.158  0.00  0.00    +0.000 A 
ATOM      7  C   UNL     1      45.527   5.426  10.931  0.00  0.00    +0.000 A 
BRANCH   6   8
ATOM      8  C   UNL     1      45.405   3.713   9.114  0.00  0.00    +0.000 A 
ATOM      9  C   UNL     1      46.036   4.305   8.001  0.00  0.00    +0.000 A 
ATOM     10  C   UNL     1      46.640   3.526   7.017  0.00  0.00    +0.000 A 
ATOM     11  C   UNL     1      46.628   2.143   7.139  0.00  0.00    +0.000 A 
ATOM     12  F   UNL     1      47.213   1.396   6.195  0.00  0.00    +0.000 F 
ATOM     13  C   UNL     1      46.025   1.527   8.228  0.00  0.00    +0.000 A 
ATOM     14  C   UNL     1      45.418   2.309   9.211  0.00  0.00    +0.000 A 
ENDBRANCH   6   8
ENDBRANCH   1   2
BRANCH   1  15
ATOM     15  N   UNL     1      46.125   8.209  12.191  0.00  0.00    +0.000 N 
ATOM     16  H   UNL     1      45.573   8.433  11.365  0.00  0.00    +0.000 HD
BRANCH  15  20
ATOM     17  C   UNL     1      50.219   8.996  11.513  0.00  0.00    +0.000 A 
ATOM     18  C   UNL     1      49.315  10.054  11.571  0.00  0.00    +0.000 A 
ATOM     19  C   UNL     1      47.962   9.803  11.819  0.00  0.00    +0.000 A 
ATOM     20  C   UNL     1      47.484   8.506  12.048  0.00  0.00    +0.000 A 
ATOM     21  C   UNL     1      48.410   7.454  11.991  0.00  0.00    +0.000 A 
ATOM     22  C   UNL     1      49.766   7.692  11.721  0.00  0.00    +0.000 A 
BRANCH  17  24
ATOM     23  N   UNL     1      52.431   9.851  12.069  0.00  0.00    +0.000 N 
ATOM     24  C   UNL     1      51.642   9.219  11.143  0.00  0.00    +0.000 C 
ATOM     25  O   UNL     1      52.092   8.851  10.074  0.00  0.00    +0.000 OA
ATOM     26  H   UNL     1      53.409   9.954  11.831  0.00  0.00    +0.000 HD
ATOM     27  H   UNL     1      52.162   9.961  13.034  0.00  0.00    +0.000 HD
ENDBRANCH  17  24
ENDBRANCH  15  20
ENDBRANCH   1  15
TORSDOF 5
ENDMDL
MODEL 8
REMARK VINA RESULT:    -6.047      4.705      8.293
REMARK INTER + INTRA:          -8.842
REMARK INTER:                  -8.050
REMARK INTRA:                  -0.792
REMARK UNBOUND:                -1.027
REMARK  Name = 
REMARK  5 active torsions:
REMARK  status: ('A' for Active; 'I' for Inactive)
REMARK    1  A    between atoms: C_2  and  C_4
REMARK    2  A    between atoms: C_7  and  N_8
REMARK    3  A    between atoms: N_8  and  C_9
REMARK    4  A    between atoms: C_9  and  C_10
REMARK    5  A    between atoms: C_14  and  C_15
REMARK                            x       y       z     vdW  Elec       q    Type
REMARK                         _______ _______ _______ _____ _____    ______ ____
ROOT
ATOM      1  C   UNL     1      48.824   8.014  13.182  0.00  0.00    +0.000 C 
ENDROOT
BRANCH   1   2
ATOM      2  C   UNL     1      47.459   7.872  12.569  0.00  0.00    +0.000 A 
ATOM      3  C   UNL     1      46.470   8.837  12.757  0.00  0.00    +0.000 A 
ATOM      4  C   UNL     1      45.218   8.614  12.208  0.00  0.00    +0.000 A 
ATOM      5  N   UNL     1      44.891   7.510  11.506  0.00  0.00    +0.000 NA
ATOM      6  C   UNL     1      45.853   6.573  11.326  0.00  0.00    +0.000 A 
ATOM      7  C   UNL     1      47.145   6.737  11.819  0.00  0.00    +0.000 A 
BRANCH   6   8
ATOM      8  C   UNL     1      45.443   5.343  10.632  0.00  0.00    +0.000 A 
ATOM      9  C   UNL     1      44.764   4.316  11.317  0.00  0.00    +0.000 A 
ATOM     10  C   UNL     1      44.361   3.155  10.660  0.00  0.00    +0.000 A 
ATOM     11  C   UNL     1      44.627   3.012   9.305  0.00  0.00    +0.000 A 
ATOM     12  F   UNL     1      44.235   1.899   8.673  0.00  0.00    +0.000 F 
ATOM     13  C   UNL     1      45.284   4.010   8.597  0.00  0.00    +0.000 A 
ATOM     14  C   UNL     1      45.689   5.170   9.258  0.00  0.00    +0.000 A 
ENDBRANCH   6   8
ENDBRANCH   1   2
BRANCH   1  15
ATOM     15  N   UNL     1      48.739   8.580  14.516  0.00  0.00    +0.000 N 
ATOM     16  H   UNL     1      49.294   9.421  14.663  0.00  0.00    +0.000 HD
BRANCH  15  20
ATOM     17  C   UNL     1      48.437   6.076  17.905  0.00  0.00    +0.000 A 
ATOM     18  C   UNL     1      48.507   5.509  16.634  0.00  0.00    +0.000 A 
ATOM     19  C   UNL     1      48.632   6.331  15.510  0.00  0.00    +0.000 A 
ATOM     20  C   UNL     1      48.723   7.725  15.623  0.00  0.00    +0.000 A 
ATOM     21  C   UNL     1      48.655   8.277  16.910  0.00  0.00    +0.000 A 
ATOM     22  C   UNL     1      48.508   7.464  18.044  0.00  0.00    +0.000 A 
BRANCH  17  24
ATOM     23  N   UNL     1      47.073   5.520  19.845  0.00  0.00    +0.000 N 
ATOM     24  C   UNL     1      48.195   5.239  19.109  0.00  0.00    +0.000 C 
ATOM     25  O   UNL     1      48.950   4.339  19.427  0.00  0.00    +0.000 OA
ATOM     26  H   UNL     1      46.888   4.914  20.633  0.00  0.00    +0.000 HD
ATOM     27  H   UNL     1      46.318   6.090  19.496  0.00  0.00    +0.000 HD
ENDBRANCH  17  24
ENDBRANCH  15  20
ENDBRANCH   1  15
TORSDOF 5
ENDMDL
