MODEL 1
REMARK VINA RESULT:    -8.627      0.000      0.000
REMARK INTER + INTRA:         -11.461
REMARK INTER:                 -10.896
REMARK INTRA:                  -0.565
REMARK UNBOUND:                -0.565
REMARK  Name = 
REMARK  5 active torsions:
REMARK  status: ('A' for Active; 'I' for Inactive)
REMARK    1  A    between atoms: C_2  and  C_4
REMARK    2  A    between atoms: N_8  and  C_9
REMARK    3  A    between atoms: C_9  and  C_10
REMARK    4  A    between atoms: C_10  and  O_11
REMARK    5  A    between atoms: C_10  and  C_12
REMARK                            x       y       z     vdW  Elec       q    Type
REMARK                         _______ _______ _______ _____ _____    ______ ____
ROOT
ATOM      1  C   UNL     1      46.260   2.137   7.991  0.00  0.00    +0.000 A 
ATOM      2  C   UNL     1      46.311   3.470   7.604  0.00  0.00    +0.000 A 
ATOM      3  C   UNL     1      45.528   4.406   8.290  0.00  0.00    +0.000 A 
ATOM      4  C   UNL     1      44.707   3.998   9.349  0.00  0.00    +0.000 A 
ATOM      5  N   UNL     1      43.847   4.931   9.929  0.00  0.00    +0.000 N 
ATOM      6  N   UNL     1      44.659   2.709   9.730  0.00  0.00    +0.000 NA
ATOM      7  C   UNL     1      45.416   1.799   9.039  0.00  0.00    +0.000 A 
ATOM      8  H   UNL     1      44.222   5.871   9.988  0.00  0.00    +0.000 HD
ENDROOT
BRANCH   1  10
ATOM      9  N   UNL     1      46.727  -0.221   7.661  0.00  0.00    +0.000 N 
ATOM     10  C   UNL     1      47.035   1.075   7.327  0.00  0.00    +0.000 C 
ATOM     11  O   UNL     1      47.898   1.326   6.501  0.00  0.00    +0.000 OA
ATOM     12  H   UNL     1      47.197  -0.951   7.137  0.00  0.00    +0.000 HD
ATOM     13  H   UNL     1      45.875  -0.468   8.145  0.00  0.00    +0.000 HD
ENDBRANCH   1  10
BRANCH   5  14
ATOM     14  C   UNL     1      43.087   4.478  11.105  0.00  0.00    +0.000 C 
BRANCH  14  15
ATOM     15  C   UNL     1      43.219   5.484  12.281  0.00  0.00    +0.000 C 
BRANCH  15  16
ATOM     16  C   UNL     1      44.664   5.862  12.553  0.00  0.00    +0.000 A 
ATOM     17  C   UNL     1      45.546   4.920  13.104  0.00  0.00    +0.000 A 
ATOM     18  C   UNL     1      46.872   5.261  13.386  0.00  0.00    +0.000 A 
ATOM     19  C   UNL     1      47.341   6.550  13.122  0.00  0.00    +0.000 A 
ATOM     20 CL   UNL     1      48.993   6.899  13.490  0.00  0.00    +0.000 Cl
ATOM     21  C   UNL     1      46.476   7.502  12.575  0.00  0.00    +0.000 A 
ATOM     22 CL   UNL     1      46.978   9.120  12.229  0.00  0.00    +0.000 Cl
ATOM     23  C   UNL     1      45.148   7.159  12.297  0.00  0.00    +0.000 A 
ENDBRANCH  15  16
BRANCH  15  24
ATOM     24  O   UNL     1      42.637   4.966  13.482  0.00  0.00    +0.000 OA
ATOM     25  H   UNL     1      43.298   4.376  13.886  0.00  0.00    +0.000 HD
ENDBRANCH  15  24
ENDBRANCH  14  15
ENDBRANCH   5  14
TORSDOF 5
ENDMDL
MODEL 2
REMARK VINA RESULT:    -7.972      4.229      7.060
REMARK INTER + INTRA:         -10.634
REMARK INTER:                 -10.318
REMARK INTRA:                  -0.317
REMARK UNBOUND:                -0.565
REMARK  Name = 
REMARK  5 active torsions:
REMARK  status: ('A' for Active; 'I' for Inactive)
REMARK    1  A    between atoms: C_2  and  C_4
REMARK    2  A    between atoms: N_8  and  C_9
REMARK    3  A    between atoms: C_9  and  C_10
REMARK    4  A    between atoms: C_10  and  O_11
REMARK    5  A    between atoms: C_10  and  C_12
REMARK                            x       y       z     vdW  Elec       q    Type
REMARK                         _______ _______ _______ _____ _____    ______ ____
ROOT
ATOM      1  C   UNL     1      47.826   5.507  15.205  0.00  0.00    +0.000 A 
ATOM      2  C   UNL     1      47.897   6.482  14.218  0.00  0.00    +0.000 A 
ATOM      3  C   UNL     1      47.136   6.327  13.054  0.00  0.00    +0.000 A 
ATOM      4  C   UNL     1      46.316   5.202  12.891  0.00  0.00    +0.000 A 
ATOM      5  N   UNL     1      45.669   5.014  11.671  0.00  0.00    +0.000 N 
ATOM      6  N   UNL     1      46.240   4.258  13.847  0.00  0.00    +0.000 NA
ATOM      7  C   UNL     1      47.005   4.413  14.974  0.00  0.00    +0.000 A 
ATOM      8  H   UNL     1      45.352   5.868  11.226  0.00  0.00    +0.000 HD
ENDROOT
BRANCH   1  10
ATOM      9  N   UNL     1      48.204   6.511  17.381  0.00  0.00    +0.000 N 
ATOM     10  C   UNL     1      48.596   5.572  16.459  0.00  0.00    +0.000 C 
ATOM     11  O   UNL     1      49.526   4.816  16.685  0.00  0.00    +0.000 OA
ATOM     12  H   UNL     1      48.676   6.493  18.278  0.00  0.00    +0.000 HD
ATOM     13  H   UNL     1      47.309   6.977  17.332  0.00  0.00    +0.000 HD
ENDBRANCH   1  10
BRANCH   5  14
ATOM     14  C   UNL     1      44.738   3.877  11.592  0.00  0.00    +0.000 C 
BRANCH  14  15
ATOM     15  C   UNL     1      44.091   3.777  10.184  0.00  0.00    +0.000 C 
BRANCH  15  16
ATOM     16  C   UNL     1      45.086   3.340   9.124  0.00  0.00    +0.000 A 
ATOM     17  C   UNL     1      45.687   4.293   8.288  0.00  0.00    +0.000 A 
ATOM     18  C   UNL     1      46.586   3.904   7.289  0.00  0.00    +0.000 A 
ATOM     19  C   UNL     1      46.899   2.554   7.109  0.00  0.00    +0.000 A 
ATOM     20 CL   UNL     1      48.021   2.147   5.859  0.00  0.00    +0.000 Cl
ATOM     21  C   UNL     1      46.308   1.592   7.931  0.00  0.00    +0.000 A 
ATOM     22 CL   UNL     1      46.636  -0.098   7.764  0.00  0.00    +0.000 Cl
ATOM     23  C   UNL     1      45.407   1.983   8.928  0.00  0.00    +0.000 A 
ENDBRANCH  15  16
BRANCH  15  24
ATOM     24  O   UNL     1      43.502   5.021   9.788  0.00  0.00    +0.000 OA
ATOM     25  H   UNL     1      43.962   5.307   8.978  0.00  0.00    +0.000 HD
ENDBRANCH  15  24
ENDBRANCH  14  15
ENDBRANCH   5  14
TORSDOF 5
ENDMDL
MODEL 3
REMARK VINA RESULT:    -7.919      1.265      1.604
REMARK INTER + INTRA:         -10.567
REMARK INTER:                 -10.061
REMARK INTRA:                  -0.506
REMARK UNBOUND:                -0.565
REMARK  Name = 
REMARK  5 active torsions:
REMARK  status: ('A' for Active; 'I' for Inactive)
REMARK    1  A    between atoms: C_2  and  C_4
REMARK    2  A    between atoms: N_8  and  C_9
REMARK    3  A    between atoms: C_9  and  C_10
REMARK    4  A    between atoms: C_10  and  O_11
REMARK    5  A    between atoms: C_10  and  C_12
REMARK                            x       y       z     vdW  Elec       q    Type
REMARK                         _______ _______ _______ _____ _____    ______ ____
ROOT
ATOM      1  C   UNL     1      46.406   2.770   7.381  0.00  0.00    +0.000 A 
ATOM      2  C   UNL     1      45.983   1.621   8.037  0.00  0.00    +0.000 A 
ATOM      3  C   UNL     1      45.113   1.744   9.126  0.00  0.00    +0.000 A 
ATOM      4  C   UNL     1      44.679   3.008   9.545  0.00  0.00    +0.000 A 
ATOM      5  N   UNL     1      43.915   3.105  10.707  0.00  0.00    +0.000 N 
ATOM      6  N   UNL     1      45.082   4.123   8.908  0.00  0.00    +0.000 NA
ATOM      7  C   UNL     1      45.949   3.991   7.854  0.00  0.00    +0.000 A 
ATOM      8  H   UNL     1      43.267   2.338  10.851  0.00  0.00    +0.000 HD
ENDROOT
BRANCH   1  10
ATOM      9  N   UNL     1      48.649   2.480   6.502  0.00  0.00    +0.000 N 
ATOM     10  C   UNL     1      47.329   2.749   6.233  0.00  0.00    +0.000 C 
ATOM     11  O   UNL     1      46.944   2.940   5.091  0.00  0.00    +0.000 OA
ATOM     12  H   UNL     1      49.265   2.376   5.703  0.00  0.00    +0.000 HD
ATOM     13  H   UNL     1      48.953   2.085   7.381  0.00  0.00    +0.000 HD
ENDBRANCH   1  10
BRANCH   5  14
ATOM     14  C   UNL     1      43.396   4.441  11.040  0.00  0.00    +0.000 C 
BRANCH  14  15
ATOM     15  C   UNL     1      43.585   4.757  12.549  0.00  0.00    +0.000 C 
BRANCH  15  16
ATOM     16  C   UNL     1      44.949   5.355  12.844  0.00  0.00    +0.000 A 
ATOM     17  C   UNL     1      45.896   4.618  13.572  0.00  0.00    +0.000 A 
ATOM     18  C   UNL     1      47.147   5.165  13.875  0.00  0.00    +0.000 A 
ATOM     19  C   UNL     1      47.473   6.457  13.458  0.00  0.00    +0.000 A 
ATOM     20 CL   UNL     1      49.039   7.066  13.864  0.00  0.00    +0.000 Cl
ATOM     21  C   UNL     1      46.541   7.206  12.735  0.00  0.00    +0.000 A 
ATOM     22 CL   UNL     1      46.864   8.815  12.192  0.00  0.00    +0.000 Cl
ATOM     23  C   UNL     1      45.288   6.658  12.435  0.00  0.00    +0.000 A 
ENDBRANCH  15  16
BRANCH  15  24
ATOM     24  O   UNL     1      43.401   3.589  13.356  0.00  0.00    +0.000 OA
ATOM     25  H   UNL     1      44.286   3.216  13.521  0.00  0.00    +0.000 HD
ENDBRANCH  15  24
ENDBRANCH  14  15
ENDBRANCH   5  14
TORSDOF 5
ENDMDL
MODEL 4
REMARK VINA RESULT:    -7.495      4.008      6.846
REMARK INTER + INTRA:         -10.031
REMARK INTER:                  -9.541
REMARK INTRA:                  -0.490
REMARK UNBOUND:                -0.565
REMARK  Name = 
REMARK  5 active torsions:
REMARK  status: ('A' for Active; 'I' for Inactive)
REMARK    1  A    between atoms: C_2  and  C_4
REMARK    2  A    between atoms: N_8  and  C_9
REMARK    3  A    between atoms: C_9  and  C_10
REMARK    4  A    between atoms: C_10  and  O_11
REMARK    5  A    between atoms: C_10  and  C_12
REMARK                            x       y       z     vdW  Elec       q    Type
REMARK                         _______ _______ _______ _____ _____    ______ ____
ROOT
ATOM      1  C   UNL     1      47.058   8.193  12.294  0.00  0.00    +0.000 A 
ATOM      2  C   UNL     1      45.834   8.334  12.936  0.00  0.00    +0.000 A 
ATOM      3  C   UNL     1      44.923   7.272  12.900  0.00  0.00    +0.000 A 
ATOM      4  C   UNL     1      45.245   6.088  12.225  0.00  0.00    +0.000 A 
ATOM      5  N   UNL     1      44.269   5.099  12.102  0.00  0.00    +0.000 N 
ATOM      6  N   UNL     1      46.431   5.944  11.608  0.00  0.00    +0.000 NA
ATOM      7  C   UNL     1      47.308   6.998  11.634  0.00  0.00    +0.000 A 
ATOM      8  H   UNL     1      43.659   5.005  12.907  0.00  0.00    +0.000 HD
ENDROOT
BRANCH   1  10
ATOM      9  N   UNL     1      47.819  10.389  12.993  0.00  0.00    +0.000 N 
ATOM     10  C   UNL     1      48.079   9.254  12.264  0.00  0.00    +0.000 C 
ATOM     11  O   UNL     1      49.120   9.130  11.639  0.00  0.00    +0.000 OA
ATOM     12  H   UNL     1      48.561  11.077  13.044  0.00  0.00    +0.000 HD
ATOM     13  H   UNL     1      47.098  10.424  13.700  0.00  0.00    +0.000 HD
ENDBRANCH   1  10
BRANCH   5  14
ATOM     14  C   UNL     1      44.694   3.835  11.480  0.00  0.00    +0.000 C 
BRANCH  14  15
ATOM     15  C   UNL     1      44.069   3.665  10.068  0.00  0.00    +0.000 C 
BRANCH  15  16
ATOM     16  C   UNL     1      45.098   3.255   9.031  0.00  0.00    +0.000 A 
ATOM     17  C   UNL     1      45.711   4.227   8.225  0.00  0.00    +0.000 A 
ATOM     18  C   UNL     1      46.640   3.862   7.246  0.00  0.00    +0.000 A 
ATOM     19  C   UNL     1      46.975   2.519   7.055  0.00  0.00    +0.000 A 
ATOM     20 CL   UNL     1      48.135   2.143   5.831  0.00  0.00    +0.000 Cl
ATOM     21  C   UNL     1      46.373   1.538   7.847  0.00  0.00    +0.000 A 
ATOM     22 CL   UNL     1      46.726  -0.145   7.665  0.00  0.00    +0.000 Cl
ATOM     23  C   UNL     1      45.440   1.905   8.824  0.00  0.00    +0.000 A 
ENDBRANCH  15  16
BRANCH  15  24
ATOM     24  O   UNL     1      43.420   4.866   9.634  0.00  0.00    +0.000 OA
ATOM     25  H   UNL     1      43.579   4.943   8.676  0.00  0.00    +0.000 HD
ENDBRANCH  15  24
ENDBRANCH  14  15
ENDBRANCH   5  14
TORSDOF 5
ENDMDL
MODEL 5
REMARK VINA RESULT:    -6.657      4.709      6.285
REMARK INTER + INTRA:          -8.973
REMARK INTER:                  -8.666
REMARK INTRA:                  -0.308
REMARK UNBOUND:                -0.565
REMARK  Name = 
REMARK  5 active torsions:
REMARK  status: ('A' for Active; 'I' for Inactive)
REMARK    1  A    between atoms: C_2  and  C_4
REMARK    2  A    between atoms: N_8  and  C_9
REMARK    3  A    between atoms: C_9  and  C_10
REMARK    4  A    between atoms: C_10  and  O_11
REMARK    5  A    between atoms: C_10  and  C_12
REMARK                            x       y       z     vdW  Elec       q    Type
REMARK                         _______ _______ _______ _____ _____    ______ ____
ROOT
ATOM      1  C   UNL     1      45.219   4.661  11.222  0.00  0.00    +0.000 A 
ATOM      2  C   UNL     1      45.834   5.878  11.484  0.00  0.00    +0.000 A 
ATOM      3  C   UNL     1      46.484   6.059  12.711  0.00  0.00    +0.000 A 
ATOM      4  C   UNL     1      46.511   5.025  13.655  0.00  0.00    +0.000 A 
ATOM      5  N   UNL     1      47.057   5.279  14.913  0.00  0.00    +0.000 N 
ATOM      6  N   UNL     1      45.921   3.842  13.403  0.00  0.00    +0.000 NA
ATOM      7  C   UNL     1      45.271   3.684  12.206  0.00  0.00    +0.000 A 
ATOM      8  H   UNL     1      47.857   5.902  14.908  0.00  0.00    +0.000 HD
ENDROOT
BRANCH   1  10
ATOM      9  N   UNL     1      45.103   4.772   8.801  0.00  0.00    +0.000 N 
ATOM     10  C   UNL     1      44.500   4.375   9.969  0.00  0.00    +0.000 C 
ATOM     11  O   UNL     1      43.427   3.794   9.959  0.00  0.00    +0.000 OA
ATOM     12  H   UNL     1      44.651   4.494   7.937  0.00  0.00    +0.000 HD
ATOM     13  H   UNL     1      46.079   5.030   8.756  0.00  0.00    +0.000 HD
ENDBRANCH   1  10
BRANCH   5  14
ATOM     14  C   UNL     1      47.157   4.129  15.827  0.00  0.00    +0.000 C 
BRANCH  14  15
ATOM     15  C   UNL     1      47.822   4.536  17.170  0.00  0.00    +0.000 C 
BRANCH  15  16
ATOM     16  C   UNL     1      49.194   3.909  17.344  0.00  0.00    +0.000 A 
ATOM     17  C   UNL     1      49.370   2.533  17.128  0.00  0.00    +0.000 A 
ATOM     18  C   UNL     1      50.622   1.936  17.310  0.00  0.00    +0.000 A 
ATOM     19  C   UNL     1      51.718   2.702  17.712  0.00  0.00    +0.000 A 
ATOM     20 CL   UNL     1      53.235   1.898  17.912  0.00  0.00    +0.000 Cl
ATOM     21  C   UNL     1      51.560   4.072  17.934  0.00  0.00    +0.000 A 
ATOM     22 CL   UNL     1      52.865   5.086  18.441  0.00  0.00    +0.000 Cl
ATOM     23  C   UNL     1      50.306   4.668  17.754  0.00  0.00    +0.000 A 
ENDBRANCH  15  16
BRANCH  15  24
ATOM     24  O   UNL     1      47.001   4.184  18.290  0.00  0.00    +0.000 OA
ATOM     25  H   UNL     1      47.334   3.333  18.629  0.00  0.00    +0.000 HD
ENDBRANCH  15  24
ENDBRANCH  14  15
ENDBRANCH   5  14
TORSDOF 5
ENDMDL
MODEL 6
REMARK VINA RESULT:    -6.564      5.301      7.858
REMARK INTER + INTRA:          -8.856
REMARK INTER:                  -8.565
REMARK INTRA:                  -0.290
REMARK UNBOUND:                -0.565
REMARK  Name = 
REMARK  5 active torsions:
REMARK  status: ('A' for Active; 'I' for Inactive)
REMARK    1  A    between atoms: C_2  and  C_4
REMARK    2  A    between atoms: N_8  and  C_9
REMARK    3  A    between atoms: C_9  and  C_10
REMARK    4  A    between atoms: C_10  and  O_11
REMARK    5  A    between atoms: C_10  and  C_12
REMARK                            x       y       z     vdW  Elec       q    Type
REMARK                         _______ _______ _______ _____ _____    ______ ____
ROOT
ATOM      1  C   UNL     1      49.358   4.459  17.779  0.00  0.00    +0.000 A 
ATOM      2  C   UNL     1      48.537   3.339  17.785  0.00  0.00    +0.000 A 
ATOM      3  C   UNL     1      47.567   3.203  16.785  0.00  0.00    +0.000 A 
ATOM      4  C   UNL     1      47.430   4.186  15.796  0.00  0.00    +0.000 A 
ATOM      5  N   UNL     1      46.375   4.083  14.890  0.00  0.00    +0.000 N 
ATOM      6  N   UNL     1      48.227   5.269  15.783  0.00  0.00    +0.000 NA
ATOM      7  C   UNL     1      49.161   5.400  16.778  0.00  0.00    +0.000 A 
ATOM      8  H   UNL     1      46.146   3.135  14.615  0.00  0.00    +0.000 HD
ENDROOT
BRANCH   1  10
ATOM      9  N   UNL     1      51.441   3.806  18.839  0.00  0.00    +0.000 N 
ATOM     10  C   UNL     1      50.400   4.701  18.791  0.00  0.00    +0.000 C 
ATOM     11  O   UNL     1      50.358   5.661  19.544  0.00  0.00    +0.000 OA
ATOM     12  H   UNL     1      52.200   4.024  19.474  0.00  0.00    +0.000 HD
ATOM     13  H   UNL     1      51.629   3.155  18.090  0.00  0.00    +0.000 HD
ENDBRANCH   1  10
BRANCH   5  14
ATOM     14  C   UNL     1      46.342   5.081  13.809  0.00  0.00    +0.000 C 
BRANCH  14  15
ATOM     15  C   UNL     1      44.985   5.047  13.054  0.00  0.00    +0.000 C 
BRANCH  15  16
ATOM     16  C   UNL     1      45.151   4.680  11.591  0.00  0.00    +0.000 A 
ATOM     17  C   UNL     1      45.662   5.621  10.683  0.00  0.00    +0.000 A 
ATOM     18  C   UNL     1      45.795   5.306   9.327  0.00  0.00    +0.000 A 
ATOM     19  C   UNL     1      45.421   4.047   8.854  0.00  0.00    +0.000 A 
ATOM     20 CL   UNL     1      45.619   3.726   7.167  0.00  0.00    +0.000 Cl
ATOM     21  C   UNL     1      44.909   3.099   9.743  0.00  0.00    +0.000 A 
ATOM     22 CL   UNL     1      44.414   1.522   9.234  0.00  0.00    +0.000 Cl
ATOM     23  C   UNL     1      44.773   3.416  11.099  0.00  0.00    +0.000 A 
ENDBRANCH  15  16
BRANCH  15  24
ATOM     24  O   UNL     1      44.302   6.303  13.147  0.00  0.00    +0.000 OA
ATOM     25  H   UNL     1      43.883   6.333  14.026  0.00  0.00    +0.000 HD
ENDBRANCH  15  24
ENDBRANCH  14  15
ENDBRANCH   5  14
TORSDOF 5
ENDMDL
MODEL 7
REMARK VINA RESULT:    -5.735      4.313      6.215
REMARK INTER + INTRA:          -7.808
REMARK INTER:                  -7.252
REMARK INTRA:                  -0.557
REMARK UNBOUND:                -0.565
REMARK  Name = 
REMARK  5 active torsions:
REMARK  status: ('A' for Active; 'I' for Inactive)
REMARK    1  A    between atoms: C_2  and  C_4
REMARK    2  A    between atoms: N_8  and  C_9
REMARK    3  A    between atoms: C_9  and  C_10
REMARK    4  A    between atoms: C_10  and  O_11
REMARK    5  A    between atoms: C_10  and  C_12
REMARK                            x       y       z     vdW  Elec       q    Type
REMARK                         _______ _______ _______ _____ _____    ______ ____
ROOT
ATOM      1  C   UNL     1      45.566   4.401  12.342  0.00  0.00    +0.000 A 
ATOM      2  C   UNL     1      45.524   5.580  11.608  0.00  0.00    +0.000 A 
ATOM      3  C   UNL     1      46.416   6.611  11.929  0.00  0.00    +0.000 A 
ATOM      4  C   UNL     1      47.333   6.450  12.975  0.00  0.00    +0.000 A 
ATOM      5  N   UNL     1      48.121   7.539  13.350  0.00  0.00    +0.000 N 
ATOM      6  N   UNL     1      47.381   5.308  13.684  0.00  0.00    +0.000 NA
ATOM      7  C   UNL     1      46.490   4.313  13.373  0.00  0.00    +0.000 A 
ATOM      8  H   UNL     1      48.415   8.131  12.582  0.00  0.00    +0.000 HD
ENDROOT
BRANCH   1  10
ATOM      9  N   UNL     1      44.803   2.613  10.890  0.00  0.00    +0.000 N 
ATOM     10  C   UNL     1      44.664   3.265  12.091  0.00  0.00    +0.000 C 
ATOM     11  O   UNL     1      43.843   2.899  12.916  0.00  0.00    +0.000 OA
ATOM     12  H   UNL     1      44.246   1.777  10.758  0.00  0.00    +0.000 HD
ATOM     13  H   UNL     1      45.616   2.731  10.301  0.00  0.00    +0.000 HD
ENDBRANCH   1  10
BRANCH   5  14
ATOM     14  C   UNL     1      49.141   7.284  14.380  0.00  0.00    +0.000 C 
BRANCH  14  15
ATOM     15  C   UNL     1      48.826   8.062  15.687  0.00  0.00    +0.000 C 
BRANCH  15  16
ATOM     16  C   UNL     1      48.764   7.148  16.898  0.00  0.00    +0.000 A 
ATOM     17  C   UNL     1      48.446   7.673  18.160  0.00  0.00    +0.000 A 
ATOM     18  C   UNL     1      48.412   6.849  19.289  0.00  0.00    +0.000 A 
ATOM     19  C   UNL     1      48.696   5.486  19.178  0.00  0.00    +0.000 A 
ATOM     20 CL   UNL     1      48.629   4.528  20.614  0.00  0.00    +0.000 Cl
ATOM     21  C   UNL     1      49.017   4.947  17.929  0.00  0.00    +0.000 A 
ATOM     22 CL   UNL     1      49.390   3.273  17.711  0.00  0.00    +0.000 Cl
ATOM     23  C   UNL     1      49.054   5.774  16.801  0.00  0.00    +0.000 A 
ENDBRANCH  15  16
BRANCH  15  24
ATOM     24  O   UNL     1      47.594   8.785  15.583  0.00  0.00    +0.000 OA
ATOM     25  H   UNL     1      47.820   9.688  15.294  0.00  0.00    +0.000 HD
ENDBRANCH  15  24
ENDBRANCH  14  15
ENDBRANCH   5  14
TORSDOF 5
ENDMDL
MODEL 8
REMARK VINA RESULT:    -5.727      6.307      8.706
REMARK INTER + INTRA:          -7.799
REMARK INTER:                  -7.305
REMARK INTRA:                  -0.494
REMARK UNBOUND:                -0.565
REMARK  Name = 
REMARK  5 active torsions:
REMARK  status: ('A' for Active; 'I' for Inactive)
REMARK    1  A    between atoms: C_2  and  C_4
REMARK    2  A    between atoms: N_8  and  C_9
REMARK    3  A    between atoms: C_9  and  C_10
REMARK    4  A    between atoms: C_10  and  O_11
REMARK    5  A    between atoms: C_10  and  C_12
REMARK                            x       y       z     vdW  Elec       q    Type
REMARK                         _______ _______ _______ _____ _____    ______ ____
ROOT
ATOM      1  C   UNL     1      50.896   4.443  18.885  0.00  0.00    +0.000 A 
ATOM      2  C   UNL     1      49.779   4.881  19.585  0.00  0.00    +0.000 A 
ATOM      3  C   UNL     1      48.551   4.968  18.919  0.00  0.00    +0.000 A 
ATOM      4  C   UNL     1      48.456   4.619  17.565  0.00  0.00    +0.000 A 
ATOM      5  N   UNL     1      47.250   4.835  16.899  0.00  0.00    +0.000 N 
ATOM      6  N   UNL     1      49.534   4.190  16.884  0.00  0.00    +0.000 NA
ATOM      7  C   UNL     1      50.735   4.126  17.543  0.00  0.00    +0.000 A 
ATOM      8  H   UNL     1      46.422   4.675  17.463  0.00  0.00    +0.000 HD
ENDROOT
BRANCH   1  10
ATOM      9  N   UNL     1      52.828   3.091  19.455  0.00  0.00    +0.000 N 
ATOM     10  C   UNL     1      52.233   4.328  19.490  0.00  0.00    +0.000 C 
ATOM     11  O   UNL     1      52.802   5.288  19.984  0.00  0.00    +0.000 OA
ATOM     12  H   UNL     1      53.782   3.034  19.790  0.00  0.00    +0.000 HD
ATOM     13  H   UNL     1      52.498   2.349  18.853  0.00  0.00    +0.000 HD
ENDBRANCH   1  10
BRANCH   5  14
ATOM     14  C   UNL     1      47.173   4.352  15.512  0.00  0.00    +0.000 C 
BRANCH  14  15
ATOM     15  C   UNL     1      47.226   5.531  14.502  0.00  0.00    +0.000 C 
BRANCH  15  16
ATOM     16  C   UNL     1      46.428   5.245  13.243  0.00  0.00    +0.000 A 
ATOM     17  C   UNL     1      46.640   6.011  12.086  0.00  0.00    +0.000 A 
ATOM     18  C   UNL     1      45.893   5.778  10.927  0.00  0.00    +0.000 A 
ATOM     19  C   UNL     1      44.921   4.775  10.903  0.00  0.00    +0.000 A 
ATOM     20 CL   UNL     1      44.041   4.539   9.435  0.00  0.00    +0.000 Cl
ATOM     21  C   UNL     1      44.695   4.004  12.047  0.00  0.00    +0.000 A 
ATOM     22 CL   UNL     1      43.504   2.752  12.100  0.00  0.00    +0.000 Cl
ATOM     23  C   UNL     1      45.441   4.241  13.207  0.00  0.00    +0.000 A 
ENDBRANCH  15  16
BRANCH  15  24
ATOM     24  O   UNL     1      48.574   5.850  14.139  0.00  0.00    +0.000 OA
ATOM     25  H   UNL     1      49.101   5.829  14.958  0.00  0.00    +0.000 HD
ENDBRANCH  15  24
ENDBRANCH  14  15
ENDBRANCH   5  14
TORSDOF 5
ENDMDL
