MODEL 1
REMARK VINA RESULT:    -7.833      0.000      0.000
REMARK INTER + INTRA:          -9.889
REMARK INTER:                  -9.665
REMARK INTRA:                  -0.224
REMARK UNBOUND:                -0.224
REMARK  Name = 
REMARK  4 active torsions:
REMARK  status: ('A' for Active; 'I' for Inactive)
REMARK    1  A    between atoms: C_2  and  C_3
REMARK    2  A    between atoms: N_7  and  C_8
REMARK    3  A    between atoms: C_8  and  C_9
REMARK    4  A    between atoms: C_13  and  N_14
REMARK                            x       y       z     vdW  Elec       q    Type
REMARK                         _______ _______ _______ _____ _____    ______ ____
ROOT
ATOM      1  C   UNL     1      44.021   4.813  11.279  0.00  0.00    +0.000 C 
ATOM      2  C   UNL     1      42.979   3.732  11.578  0.00  0.00    +0.000 C 
ATOM      3  C   UNL     1      42.571   5.165  11.586  0.00  0.00    +0.000 C 
ENDROOT
BRANCH   1   8
ATOM      4  C   UNL     1      46.782   2.810   7.432  0.00  0.00    +0.000 A 
ATOM      5  C   UNL     1      46.028   2.268   8.438  0.00  0.00    +0.000 A 
ATOM      6  N   UNL     1      45.284   3.014   9.275  0.00  0.00    +0.000 NA
ATOM      7  C   UNL     1      45.271   4.351   9.114  0.00  0.00    +0.000 A 
ATOM      8  N   UNL     1      44.522   5.168   9.949  0.00  0.00    +0.000 N 
ATOM      9  N   UNL     1      45.958   4.956   8.130  0.00  0.00    +0.000 NA
ATOM     10  C   UNL     1      46.711   4.177   7.321  0.00  0.00    +0.000 A 
ATOM     11  H   UNL     1      44.542   6.127   9.632  0.00  0.00    +0.000 HD
BRANCH   4  13
ATOM     12  N   UNL     1      48.251   1.373   5.878  0.00  0.00    +0.000 NA
ATOM     13  C   UNL     1      47.584   2.015   6.575  0.00  0.00    +0.000 C 
ENDBRANCH   4  13
ENDBRANCH   1   8
BRANCH   1  14
ATOM     14  C   UNL     1      45.054   4.918  12.405  0.00  0.00    +0.000 A 
ATOM     15  C   UNL     1      45.664   3.784  12.959  0.00  0.00    +0.000 A 
ATOM     16  C   UNL     1      46.876   3.894  13.636  0.00  0.00    +0.000 A 
ATOM     17  C   UNL     1      47.489   5.142  13.765  0.00  0.00    +0.000 A 
ATOM     18  C   UNL     1      46.865   6.309  13.312  0.00  0.00    +0.000 A 
ATOM     19  C   UNL     1      45.609   6.177  12.710  0.00  0.00    +0.000 A 
BRANCH  18  20
ATOM     20  N   UNL     1      47.494   7.532  13.327  0.00  0.00    +0.000 N 
ATOM     21  C   UNL     1      46.756   8.786  13.497  0.00  0.00    +0.000 C 
ATOM     22  C   UNL     1      46.941   9.669  12.260  0.00  0.00    +0.000 C 
ATOM     23  O   UNL     1      48.334   9.874  11.961  0.00  0.00    +0.000 OA
ATOM     24  C   UNL     1      48.991   8.613  11.729  0.00  0.00    +0.000 C 
ATOM     25  C   UNL     1      48.902   7.684  12.954  0.00  0.00    +0.000 C 
ENDBRANCH  18  20
ENDBRANCH   1  14
TORSDOF 4
ENDMDL
MODEL 2
REMARK VINA RESULT:    -6.995      1.977      2.997
REMARK INTER + INTRA:          -8.854
REMARK INTER:                  -8.591
REMARK INTRA:                  -0.263
REMARK UNBOUND:                -0.224
REMARK  Name = 
REMARK  4 active torsions:
REMARK  status: ('A' for Active; 'I' for Inactive)
REMARK    1  A    between atoms: C_2  and  C_3
REMARK    2  A    between atoms: N_7  and  C_8
REMARK    3  A    between atoms: C_8  and  C_9
REMARK    4  A    between atoms: C_13  and  N_14
REMARK                            x       y       z     vdW  Elec       q    Type
REMARK                         _______ _______ _______ _____ _____    ______ ____
ROOT
ATOM      1  C   UNL     1      44.025   4.986  11.916  0.00  0.00    +0.000 C 
ATOM      2  C   UNL     1      42.888   5.107  12.934  0.00  0.00    +0.000 C 
ATOM      3  C   UNL     1      42.627   5.427  11.503  0.00  0.00    +0.000 C 
ENDROOT
BRANCH   1   8
ATOM      4  C   UNL     1      46.067   3.181   7.558  0.00  0.00    +0.000 A 
ATOM      5  C   UNL     1      46.020   4.419   8.139  0.00  0.00    +0.000 A 
ATOM      6  N   UNL     1      45.519   4.629   9.370  0.00  0.00    +0.000 NA
ATOM      7  C   UNL     1      45.051   3.576  10.067  0.00  0.00    +0.000 A 
ATOM      8  N   UNL     1      44.523   3.735  11.341  0.00  0.00    +0.000 N 
ATOM      9  N   UNL     1      45.093   2.324   9.580  0.00  0.00    +0.000 NA
ATOM     10  C   UNL     1      45.583   2.154   8.331  0.00  0.00    +0.000 A 
ATOM     11  H   UNL     1      44.313   2.840  11.761  0.00  0.00    +0.000 HD
BRANCH   4  13
ATOM     12  N   UNL     1      46.996   2.808   5.183  0.00  0.00    +0.000 NA
ATOM     13  C   UNL     1      46.571   2.977   6.248  0.00  0.00    +0.000 C 
ENDBRANCH   4  13
ENDBRANCH   1   8
BRANCH   1  14
ATOM     14  C   UNL     1      45.093   6.060  12.143  0.00  0.00    +0.000 A 
ATOM     15  C   UNL     1      44.826   7.423  11.952  0.00  0.00    +0.000 A 
ATOM     16  C   UNL     1      45.619   8.391  12.562  0.00  0.00    +0.000 A 
ATOM     17  C   UNL     1      46.689   8.003  13.372  0.00  0.00    +0.000 A 
ATOM     18  C   UNL     1      47.046   6.658  13.509  0.00  0.00    +0.000 A 
ATOM     19  C   UNL     1      46.282   5.713  12.817  0.00  0.00    +0.000 A 
BRANCH  18  20
ATOM     20  N   UNL     1      48.022   6.243  14.385  0.00  0.00    +0.000 N 
ATOM     21  C   UNL     1      47.888   5.019  15.179  0.00  0.00    +0.000 C 
ATOM     22  C   UNL     1      47.903   5.365  16.671  0.00  0.00    +0.000 C 
ATOM     23  O   UNL     1      49.067   6.136  17.022  0.00  0.00    +0.000 OA
ATOM     24  C   UNL     1      49.107   7.362  16.266  0.00  0.00    +0.000 C 
ATOM     25  C   UNL     1      49.153   7.099  14.749  0.00  0.00    +0.000 C 
ENDBRANCH  18  20
ENDBRANCH   1  14
TORSDOF 4
ENDMDL
MODEL 3
REMARK VINA RESULT:    -6.598      3.009      7.131
REMARK INTER + INTRA:          -8.365
REMARK INTER:                  -8.275
REMARK INTRA:                  -0.089
REMARK UNBOUND:                -0.224
REMARK  Name = 
REMARK  4 active torsions:
REMARK  status: ('A' for Active; 'I' for Inactive)
REMARK    1  A    between atoms: C_2  and  C_3
REMARK    2  A    between atoms: N_7  and  C_8
REMARK    3  A    between atoms: C_8  and  C_9
REMARK    4  A    between atoms: C_13  and  N_14
REMARK                            x       y       z     vdW  Elec       q    Type
REMARK                         _______ _______ _______ _____ _____    ______ ____
ROOT
ATOM      1  C   UNL     1      45.766   6.055  12.324  0.00  0.00    +0.000 C 
ATOM      2  C   UNL     1      45.172   7.077  11.352  0.00  0.00    +0.000 C 
ATOM      3  C   UNL     1      44.775   7.115  12.787  0.00  0.00    +0.000 C 
ENDROOT
BRANCH   1   8
ATOM      4  C   UNL     1      48.259   4.868  16.661  0.00  0.00    +0.000 A 
ATOM      5  C   UNL     1      47.111   4.409  16.073  0.00  0.00    +0.000 A 
ATOM      6  N   UNL     1      46.712   4.799  14.849  0.00  0.00    +0.000 NA
ATOM      7  C   UNL     1      47.476   5.673  14.165  0.00  0.00    +0.000 A 
ATOM      8  N   UNL     1      47.112   6.108  12.899  0.00  0.00    +0.000 N 
ATOM      9  N   UNL     1      48.634   6.144  14.659  0.00  0.00    +0.000 NA
ATOM     10  C   UNL     1      48.993   5.746  15.902  0.00  0.00    +0.000 A 
ATOM     11  H   UNL     1      47.840   6.677  12.488  0.00  0.00    +0.000 HD
BRANCH   4  13
ATOM     12  N   UNL     1      48.969   4.135  19.027  0.00  0.00    +0.000 NA
ATOM     13  C   UNL     1      48.653   4.471  17.964  0.00  0.00    +0.000 C 
ENDBRANCH   4  13
ENDBRANCH   1   8
BRANCH   1  14
ATOM     14  C   UNL     1      45.245   4.643  12.036  0.00  0.00    +0.000 A 
ATOM     15  C   UNL     1      44.230   4.057  12.805  0.00  0.00    +0.000 A 
ATOM     16  C   UNL     1      43.475   3.005  12.293  0.00  0.00    +0.000 A 
ATOM     17  C   UNL     1      43.730   2.529  11.006  0.00  0.00    +0.000 A 
ATOM     18  C   UNL     1      44.795   3.022  10.246  0.00  0.00    +0.000 A 
ATOM     19  C   UNL     1      45.589   4.021  10.819  0.00  0.00    +0.000 A 
BRANCH  18  20
ATOM     20  N   UNL     1      44.999   2.650   8.937  0.00  0.00    +0.000 N 
ATOM     21  C   UNL     1      45.355   1.280   8.562  0.00  0.00    +0.000 C 
ATOM     22  C   UNL     1      46.726   1.269   7.878  0.00  0.00    +0.000 C 
ATOM     23  O   UNL     1      46.768   2.183   6.767  0.00  0.00    +0.000 OA
ATOM     24  C   UNL     1      46.484   3.526   7.207  0.00  0.00    +0.000 C 
ATOM     25  C   UNL     1      45.092   3.635   7.857  0.00  0.00    +0.000 C 
ENDBRANCH  18  20
ENDBRANCH   1  14
TORSDOF 4
ENDMDL
MODEL 4
REMARK VINA RESULT:    -6.457      2.712      6.927
REMARK INTER + INTRA:          -8.190
REMARK INTER:                  -7.887
REMARK INTRA:                  -0.303
REMARK UNBOUND:                -0.224
REMARK  Name = 
REMARK  4 active torsions:
REMARK  status: ('A' for Active; 'I' for Inactive)
REMARK    1  A    between atoms: C_2  and  C_3
REMARK    2  A    between atoms: N_7  and  C_8
REMARK    3  A    between atoms: C_8  and  C_9
REMARK    4  A    between atoms: C_13  and  N_14
REMARK                            x       y       z     vdW  Elec       q    Type
REMARK                         _______ _______ _______ _____ _____    ______ ____
ROOT
ATOM      1  C   UNL     1      45.833   7.119  11.933  0.00  0.00    +0.000 C 
ATOM      2  C   UNL     1      44.840   8.148  11.387  0.00  0.00    +0.000 C 
ATOM      3  C   UNL     1      45.195   8.169  12.834  0.00  0.00    +0.000 C 
ENDROOT
BRANCH   1   8
ATOM      4  C   UNL     1      50.105   7.339  14.784  0.00  0.00    +0.000 A 
ATOM      5  C   UNL     1      48.836   6.879  15.015  0.00  0.00    +0.000 A 
ATOM      6  N   UNL     1      47.897   6.818  14.053  0.00  0.00    +0.000 NA
ATOM      7  C   UNL     1      48.218   7.217  12.807  0.00  0.00    +0.000 A 
ATOM      8  N   UNL     1      47.288   7.174  11.777  0.00  0.00    +0.000 N 
ATOM      9  N   UNL     1      49.451   7.648  12.493  0.00  0.00    +0.000 NA
ATOM     10  C   UNL     1      50.363   7.717  13.490  0.00  0.00    +0.000 A 
ATOM     11  H   UNL     1      47.716   7.409  10.892  0.00  0.00    +0.000 HD
BRANCH   4  13
ATOM     12  N   UNL     1      51.877   7.485  16.650  0.00  0.00    +0.000 NA
ATOM     13  C   UNL     1      51.077   7.426  15.814  0.00  0.00    +0.000 C 
ENDBRANCH   4  13
ENDBRANCH   1   8
BRANCH   1  14
ATOM     14  C   UNL     1      45.237   5.708  11.920  0.00  0.00    +0.000 A 
ATOM     15  C   UNL     1      44.259   5.308  12.840  0.00  0.00    +0.000 A 
ATOM     16  C   UNL     1      43.428   4.226  12.562  0.00  0.00    +0.000 A 
ATOM     17  C   UNL     1      43.569   3.533  11.358  0.00  0.00    +0.000 A 
ATOM     18  C   UNL     1      44.595   3.839  10.459  0.00  0.00    +0.000 A 
ATOM     19  C   UNL     1      45.467   4.878  10.804  0.00  0.00    +0.000 A 
BRANCH  18  20
ATOM     20  N   UNL     1      44.688   3.248   9.220  0.00  0.00    +0.000 N 
ATOM     21  C   UNL     1      44.779   1.795   9.055  0.00  0.00    +0.000 C 
ATOM     22  C   UNL     1      46.104   1.433   8.376  0.00  0.00    +0.000 C 
ATOM     23  O   UNL     1      46.277   2.150   7.140  0.00  0.00    +0.000 OA
ATOM     24  C   UNL     1      46.255   3.572   7.374  0.00  0.00    +0.000 C 
ATOM     25  C   UNL     1      44.926   4.029   8.004  0.00  0.00    +0.000 C 
ENDBRANCH  18  20
ENDBRANCH   1  14
TORSDOF 4
ENDMDL
MODEL 5
REMARK VINA RESULT:    -6.406      3.862      6.207
REMARK INTER + INTRA:          -8.128
REMARK INTER:                  -7.726
REMARK INTRA:                  -0.402
REMARK UNBOUND:                -0.224
REMARK  Name = 
REMARK  4 active torsions:
REMARK  status: ('A' for Active; 'I' for Inactive)
REMARK    1  A    between atoms: C_2  and  C_3
REMARK    2  A    between atoms: N_7  and  C_8
REMARK    3  A    between atoms: C_8  and  C_9
REMARK    4  A    between atoms: C_13  and  N_14
REMARK                            x       y       z     vdW  Elec       q    Type
REMARK                         _______ _______ _______ _____ _____    ______ ____
ROOT
ATOM      1  C   UNL     1      48.017   7.763  13.575  0.00  0.00    +0.000 C 
ATOM      2  C   UNL     1      48.972   8.536  12.663  0.00  0.00    +0.000 C 
ATOM      3  C   UNL     1      48.879   7.055  12.537  0.00  0.00    +0.000 C 
ENDROOT
BRANCH   1   8
ATOM      4  C   UNL     1      44.390   4.322  12.380  0.00  0.00    +0.000 A 
ATOM      5  C   UNL     1      45.648   4.225  12.910  0.00  0.00    +0.000 A 
ATOM      6  N   UNL     1      46.381   5.301  13.251  0.00  0.00    +0.000 NA
ATOM      7  C   UNL     1      45.854   6.527  13.073  0.00  0.00    +0.000 A 
ATOM      8  N   UNL     1      46.565   7.671  13.407  0.00  0.00    +0.000 N 
ATOM      9  N   UNL     1      44.612   6.705  12.589  0.00  0.00    +0.000 NA
ATOM     10  C   UNL     1      43.913   5.602  12.238  0.00  0.00    +0.000 A 
ATOM     11  H   UNL     1      45.992   8.497  13.307  0.00  0.00    +0.000 HD
BRANCH   4  13
ATOM     12  N   UNL     1      43.030   2.242  11.698  0.00  0.00    +0.000 NA
ATOM     13  C   UNL     1      43.639   3.181  11.998  0.00  0.00    +0.000 C 
ENDBRANCH   4  13
ENDBRANCH   1   8
BRANCH   1  14
ATOM     14  C   UNL     1      48.496   7.785  15.030  0.00  0.00    +0.000 A 
ATOM     15  C   UNL     1      48.388   8.932  15.829  0.00  0.00    +0.000 A 
ATOM     16  C   UNL     1      48.404   8.829  17.217  0.00  0.00    +0.000 A 
ATOM     17  C   UNL     1      48.529   7.576  17.821  0.00  0.00    +0.000 A 
ATOM     18  C   UNL     1      48.737   6.421  17.060  0.00  0.00    +0.000 A 
ATOM     19  C   UNL     1      48.800   6.565  15.670  0.00  0.00    +0.000 A 
BRANCH  18  20
ATOM     20  N   UNL     1      48.752   5.165  17.621  0.00  0.00    +0.000 N 
ATOM     21  C   UNL     1      49.957   4.598  18.229  0.00  0.00    +0.000 C 
ATOM     22  C   UNL     1      50.370   3.329  17.477  0.00  0.00    +0.000 C 
ATOM     23  O   UNL     1      49.285   2.386  17.397  0.00  0.00    +0.000 OA
ATOM     24  C   UNL     1      48.155   2.973  16.723  0.00  0.00    +0.000 C 
ATOM     25  C   UNL     1      47.639   4.228  17.452  0.00  0.00    +0.000 C 
ENDBRANCH  18  20
ENDBRANCH   1  14
TORSDOF 4
ENDMDL
MODEL 6
REMARK VINA RESULT:    -6.322      3.300      7.025
REMARK INTER + INTRA:          -8.024
REMARK INTER:                  -8.050
REMARK INTRA:                   0.027
REMARK UNBOUND:                -0.224
REMARK  Name = 
REMARK  4 active torsions:
REMARK  status: ('A' for Active; 'I' for Inactive)
REMARK    1  A    between atoms: C_2  and  C_3
REMARK    2  A    between atoms: N_7  and  C_8
REMARK    3  A    between atoms: C_8  and  C_9
REMARK    4  A    between atoms: C_13  and  N_14
REMARK                            x       y       z     vdW  Elec       q    Type
REMARK                         _______ _______ _______ _____ _____    ______ ____
ROOT
ATOM      1  C   UNL     1      48.573   8.148  12.704  0.00  0.00    +0.000 C 
ATOM      2  C   UNL     1      49.204   7.637  11.406  0.00  0.00    +0.000 C 
ATOM      3  C   UNL     1      49.529   9.009  11.887  0.00  0.00    +0.000 C 
ENDROOT
BRANCH   1   8
ATOM      4  C   UNL     1      47.678   4.592  16.307  0.00  0.00    +0.000 A 
ATOM      5  C   UNL     1      47.548   4.612  14.944  0.00  0.00    +0.000 A 
ATOM      6  N   UNL     1      47.967   5.642  14.187  0.00  0.00    +0.000 NA
ATOM      7  C   UNL     1      48.548   6.697  14.791  0.00  0.00    +0.000 A 
ATOM      8  N   UNL     1      48.999   7.786  14.058  0.00  0.00    +0.000 N 
ATOM      9  N   UNL     1      48.744   6.738  16.120  0.00  0.00    +0.000 NA
ATOM     10  C   UNL     1      48.290   5.694  16.851  0.00  0.00    +0.000 A 
ATOM     11  H   UNL     1      49.497   8.438  14.647  0.00  0.00    +0.000 HD
BRANCH   4  13
ATOM     12  N   UNL     1      46.807   2.636  17.740  0.00  0.00    +0.000 NA
ATOM     13  C   UNL     1      47.206   3.513  17.097  0.00  0.00    +0.000 C 
ENDBRANCH   4  13
ENDBRANCH   1   8
BRANCH   1  14
ATOM     14  C   UNL     1      47.067   8.372  12.541  0.00  0.00    +0.000 A 
ATOM     15  C   UNL     1      46.522   9.652  12.371  0.00  0.00    +0.000 A 
ATOM     16  C   UNL     1      45.264   9.814  11.798  0.00  0.00    +0.000 A 
ATOM     17  C   UNL     1      44.537   8.694  11.388  0.00  0.00    +0.000 A 
ATOM     18  C   UNL     1      45.004   7.398  11.628  0.00  0.00    +0.000 A 
ATOM     19  C   UNL     1      46.233   7.264  12.282  0.00  0.00    +0.000 A 
BRANCH  18  20
ATOM     20  N   UNL     1      44.363   6.284  11.138  0.00  0.00    +0.000 N 
ATOM     21  C   UNL     1      42.959   5.996  11.440  0.00  0.00    +0.000 C 
ATOM     22  C   UNL     1      42.852   4.667  12.195  0.00  0.00    +0.000 C 
ATOM     23  O   UNL     1      43.502   3.600  11.480  0.00  0.00    +0.000 OA
ATOM     24  C   UNL     1      44.897   3.904  11.278  0.00  0.00    +0.000 C 
ATOM     25  C   UNL     1      45.091   5.201  10.472  0.00  0.00    +0.000 C 
ENDBRANCH  18  20
ENDBRANCH   1  14
TORSDOF 4
ENDMDL
MODEL 7
REMARK VINA RESULT:    -5.932      3.329      7.861
REMARK INTER + INTRA:          -7.543
REMARK INTER:                  -7.389
REMARK INTRA:                  -0.154
REMARK UNBOUND:                -0.224
REMARK  Name = 
REMARK  4 active torsions:
REMARK  status: ('A' for Active; 'I' for Inactive)
REMARK    1  A    between atoms: C_2  and  C_3
REMARK    2  A    between atoms: N_7  and  C_8
REMARK    3  A    between atoms: C_8  and  C_9
REMARK    4  A    between atoms: C_13  and  N_14
REMARK                            x       y       z     vdW  Elec       q    Type
REMARK                         _______ _______ _______ _____ _____    ______ ____
ROOT
ATOM      1  C   UNL     1      48.692   8.160  13.199  0.00  0.00    +0.000 C 
ATOM      2  C   UNL     1      49.577   7.360  12.240  0.00  0.00    +0.000 C 
ATOM      3  C   UNL     1      49.509   8.842  12.109  0.00  0.00    +0.000 C 
ENDROOT
BRANCH   1   8
ATOM      4  C   UNL     1      48.819   6.003  17.863  0.00  0.00    +0.000 A 
ATOM      5  C   UNL     1      48.894   5.508  16.590  0.00  0.00    +0.000 A 
ATOM      6  N   UNL     1      48.959   6.298  15.502  0.00  0.00    +0.000 NA
ATOM      7  C   UNL     1      48.959   7.635  15.671  0.00  0.00    +0.000 A 
ATOM      8  N   UNL     1      49.024   8.496  14.585  0.00  0.00    +0.000 N 
ATOM      9  N   UNL     1      48.922   8.198  16.891  0.00  0.00    +0.000 NA
ATOM     10  C   UNL     1      48.835   7.373  17.959  0.00  0.00    +0.000 A 
ATOM     11  H   UNL     1      49.117   9.456  14.888  0.00  0.00    +0.000 HD
BRANCH   4  13
ATOM     12  N   UNL     1      48.632   4.478  19.932  0.00  0.00    +0.000 NA
ATOM     13  C   UNL     1      48.722   5.160  18.999  0.00  0.00    +0.000 C 
ENDBRANCH   4  13
ENDBRANCH   1   8
BRANCH   1  14
ATOM     14  C   UNL     1      47.206   7.893  12.939  0.00  0.00    +0.000 A 
ATOM     15  C   UNL     1      46.306   8.929  12.652  0.00  0.00    +0.000 A 
ATOM     16  C   UNL     1      45.105   8.661  12.001  0.00  0.00    +0.000 A 
ATOM     17  C   UNL     1      44.792   7.351  11.632  0.00  0.00    +0.000 A 
ATOM     18  C   UNL     1      45.617   6.279  11.987  0.00  0.00    +0.000 A 
ATOM     19  C   UNL     1      46.777   6.569  12.714  0.00  0.00    +0.000 A 
BRANCH  18  20
ATOM     20  N   UNL     1      45.390   4.998  11.542  0.00  0.00    +0.000 N 
ATOM     21  C   UNL     1      45.169   4.692  10.126  0.00  0.00    +0.000 C 
ATOM     22  C   UNL     1      43.776   4.086   9.937  0.00  0.00    +0.000 C 
ATOM     23  O   UNL     1      43.575   2.947  10.794  0.00  0.00    +0.000 OA
ATOM     24  C   UNL     1      43.730   3.323  12.177  0.00  0.00    +0.000 C 
ATOM     25  C   UNL     1      45.132   3.890  12.464  0.00  0.00    +0.000 C 
ENDBRANCH  18  20
ENDBRANCH   1  14
TORSDOF 4
ENDMDL
MODEL 8
REMARK VINA RESULT:    -5.882      3.785      6.752
REMARK INTER + INTRA:          -7.481
REMARK INTER:                  -7.020
REMARK INTRA:                  -0.461
REMARK UNBOUND:                -0.224
REMARK  Name = 
REMARK  4 active torsions:
REMARK  status: ('A' for Active; 'I' for Inactive)
REMARK    1  A    between atoms: C_2  and  C_3
REMARK    2  A    between atoms: N_7  and  C_8
REMARK    3  A    between atoms: C_8  and  C_9
REMARK    4  A    between atoms: C_13  and  N_14
REMARK                            x       y       z     vdW  Elec       q    Type
REMARK                         _______ _______ _______ _____ _____    ______ ____
ROOT
ATOM      1  C   UNL     1      48.633   8.843  15.276  0.00  0.00    +0.000 C 
ATOM      2  C   UNL     1      49.776   9.853  15.144  0.00  0.00    +0.000 C 
ATOM      3  C   UNL     1      49.861   8.553  14.421  0.00  0.00    +0.000 C 
ENDROOT
BRANCH   1   8
ATOM      4  C   UNL     1      45.907   6.328  11.716  0.00  0.00    +0.000 A 
ATOM      5  C   UNL     1      46.900   5.959  12.583  0.00  0.00    +0.000 A 
ATOM      6  N   UNL     1      47.390   6.785  13.526  0.00  0.00    +0.000 NA
ATOM      7  C   UNL     1      46.877   8.027  13.630  0.00  0.00    +0.000 A 
ATOM      8  N   UNL     1      47.345   8.919  14.584  0.00  0.00    +0.000 N 
ATOM      9  N   UNL     1      45.878   8.453  12.838  0.00  0.00    +0.000 NA
ATOM     10  C   UNL     1      45.426   7.603  11.888  0.00  0.00    +0.000 A 
ATOM     11  H   UNL     1      46.789   9.763  14.594  0.00  0.00    +0.000 HD
BRANCH   4  13
ATOM     12  N   UNL     1      45.009   4.752   9.886  0.00  0.00    +0.000 NA
ATOM     13  C   UNL     1      45.420   5.458  10.708  0.00  0.00    +0.000 C 
ENDBRANCH   4  13
ENDBRANCH   1   8
BRANCH   1  14
ATOM     14  C   UNL     1      48.571   8.253  16.688  0.00  0.00    +0.000 A 
ATOM     15  C   UNL     1      48.031   8.967  17.767  0.00  0.00    +0.000 A 
ATOM     16  C   UNL     1      47.580   8.298  18.902  0.00  0.00    +0.000 A 
ATOM     17  C   UNL     1      47.666   6.906  18.968  0.00  0.00    +0.000 A 
ATOM     18  C   UNL     1      48.286   6.167  17.956  0.00  0.00    +0.000 A 
ATOM     19  C   UNL     1      48.805   6.873  16.865  0.00  0.00    +0.000 A 
BRANCH  18  20
ATOM     20  N   UNL     1      48.285   4.791  17.944  0.00  0.00    +0.000 N 
ATOM     21  C   UNL     1      49.418   4.007  18.440  0.00  0.00    +0.000 C 
ATOM     22  C   UNL     1      49.999   3.159  17.303  0.00  0.00    +0.000 C 
ATOM     23  O   UNL     1      48.987   2.349  16.678  0.00  0.00    +0.000 OA
ATOM     24  C   UNL     1      47.937   3.178  16.143  0.00  0.00    +0.000 C 
ATOM     25  C   UNL     1      47.258   4.023  17.237  0.00  0.00    +0.000 C 
ENDBRANCH  18  20
ENDBRANCH   1  14
TORSDOF 4
ENDMDL
MODEL 9
REMARK VINA RESULT:    -5.552      5.986      8.388
REMARK INTER + INTRA:          -7.073
REMARK INTER:                  -6.739
REMARK INTRA:                  -0.335
REMARK UNBOUND:                -0.224
REMARK  Name = 
REMARK  4 active torsions:
REMARK  status: ('A' for Active; 'I' for Inactive)
REMARK    1  A    between atoms: C_2  and  C_3
REMARK    2  A    between atoms: N_7  and  C_8
REMARK    3  A    between atoms: C_8  and  C_9
REMARK    4  A    between atoms: C_13  and  N_14
REMARK                            x       y       z     vdW  Elec       q    Type
REMARK                         _______ _______ _______ _____ _____    ______ ____
ROOT
ATOM      1  C   UNL     1      48.749   5.023  17.539  0.00  0.00    +0.000 C 
ATOM      2  C   UNL     1      48.476   5.254  19.027  0.00  0.00    +0.000 C 
ATOM      3  C   UNL     1      48.217   6.354  18.056  0.00  0.00    +0.000 C 
ENDROOT
BRANCH   1   8
ATOM      4  C   UNL     1      46.531   5.509  12.927  0.00  0.00    +0.000 A 
ATOM      5  C   UNL     1      47.634   6.072  13.511  0.00  0.00    +0.000 A 
ATOM      6  N   UNL     1      48.096   5.691  14.716  0.00  0.00    +0.000 NA
ATOM      7  C   UNL     1      47.453   4.708  15.375  0.00  0.00    +0.000 A 
ATOM      8  N   UNL     1      47.887   4.276  16.621  0.00  0.00    +0.000 N 
ATOM      9  N   UNL     1      46.384   4.082  14.855  0.00  0.00    +0.000 NA
ATOM     10  C   UNL     1      45.935   4.506  13.651  0.00  0.00    +0.000 A 
ATOM     11  H   UNL     1      47.360   3.470  16.928  0.00  0.00    +0.000 HD
BRANCH   4  13
ATOM     12  N   UNL     1      45.622   6.298  10.649  0.00  0.00    +0.000 NA
ATOM     13  C   UNL     1      46.037   5.940  11.669  0.00  0.00    +0.000 C 
ENDBRANCH   4  13
ENDBRANCH   1   8
BRANCH   1  14
ATOM     14  C   UNL     1      50.250   4.893  17.262  0.00  0.00    +0.000 A 
ATOM     15  C   UNL     1      51.059   6.013  17.024  0.00  0.00    +0.000 A 
ATOM     16  C   UNL     1      52.437   5.942  17.211  0.00  0.00    +0.000 A 
ATOM     17  C   UNL     1      53.019   4.747  17.638  0.00  0.00    +0.000 A 
ATOM     18  C   UNL     1      52.259   3.583  17.792  0.00  0.00    +0.000 A 
ATOM     19  C   UNL     1      50.890   3.663  17.516  0.00  0.00    +0.000 A 
BRANCH  18  20
ATOM     20  N   UNL     1      52.786   2.425  18.316  0.00  0.00    +0.000 N 
ATOM     21  C   UNL     1      53.897   2.438  19.272  0.00  0.00    +0.000 C 
ATOM     22  C   UNL     1      55.100   1.698  18.678  0.00  0.00    +0.000 C 
ATOM     23  O   UNL     1      54.745   0.371  18.248  0.00  0.00    +0.000 OA
ATOM     24  C   UNL     1      53.702   0.425  17.254  0.00  0.00    +0.000 C 
ATOM     25  C   UNL     1      52.430   1.105  17.794  0.00  0.00    +0.000 C 
ENDBRANCH  18  20
ENDBRANCH   1  14
TORSDOF 4
ENDMDL
