MODEL 1
REMARK VINA RESULT:    -9.097      0.000      0.000
REMARK INTER + INTRA:         -14.433
REMARK INTER:                 -13.085
REMARK INTRA:                  -1.348
REMARK UNBOUND:                -1.348
REMARK  Name = 
REMARK  9 active torsions:
REMARK  status: ('A' for Active; 'I' for Inactive)
REMARK    1  A    between atoms: C_1  and  O_2
REMARK    2  A    between atoms: O_2  and  C_3
REMARK    3  A    between atoms: C_10  and  C_11
REMARK    4  A    between atoms: N_13  and  C_14
REMARK    5  A    between atoms: C_14  and  C_15
REMARK    6  A    between atoms: C_18  and  C_19
REMARK    7  A    between atoms: C_19  and  N_20
REMARK    8  A    between atoms: C_19  and  C_21
REMARK    9  A    between atoms: C_21  and  C_22
REMARK                            x       y       z     vdW  Elec       q    Type
REMARK                         _______ _______ _______ _____ _____    ______ ____
ROOT
ATOM      1  C   UNL     1      46.954   6.152  12.651  0.00  0.00    +0.000 A 
ATOM      2  C   UNL     1      46.617   4.955  13.302  0.00  0.00    +0.000 A 
ATOM      3  C   UNL     1      45.736   4.040  12.706  0.00  0.00    +0.000 A 
ATOM      4  C   UNL     1      45.186   4.296  11.443  0.00  0.00    +0.000 A 
ATOM      5  C   UNL     1      45.508   5.512  10.813  0.00  0.00    +0.000 A 
ATOM      6  C   UNL     1      46.380   6.425  11.406  0.00  0.00    +0.000 A 
ENDROOT
BRANCH   1   7
ATOM      7  C   UNL     1      47.951   7.116  13.236  0.00  0.00    +0.000 C 
BRANCH   7  10
ATOM      8  C   UNL     1      48.998   7.004  15.443  0.00  0.00    +0.000 C 
ATOM      9  O   UNL     1      50.108   6.894  14.928  0.00  0.00    +0.000 OA
ATOM     10  N   UNL     1      47.869   7.147  14.680  0.00  0.00    +0.000 N 
ATOM     11  H   UNL     1      46.955   7.135  15.114  0.00  0.00    +0.000 HD
BRANCH   8  19
ATOM     12  C   UNL     1      48.885   4.568  17.860  0.00  0.00    +0.000 A 
ATOM     13  N   UNL     1      48.865   3.846  19.001  0.00  0.00    +0.000 NA
ATOM     14  C   UNL     1      48.759   4.497  20.163  0.00  0.00    +0.000 A 
ATOM     15  N   UNL     1      48.653   5.810  20.335  0.00  0.00    +0.000 NA
ATOM     16  C   UNL     1      48.685   6.494  19.179  0.00  0.00    +0.000 A 
ATOM     17  S   UNL     1      48.572   8.188  19.211  0.00  0.00    +0.000 S 
ATOM     18  C   UNL     1      48.725   8.277  17.522  0.00  0.00    +0.000 A 
ATOM     19  C   UNL     1      48.839   7.038  16.903  0.00  0.00    +0.000 A 
ATOM     20  C   UNL     1      48.803   5.970  17.895  0.00  0.00    +0.000 A 
BRANCH  12  22
ATOM     21  C   UNL     1      47.772   3.222  16.299  0.00  0.00    +0.000 C 
ATOM     22  O   UNL     1      48.980   3.896  16.655  0.00  0.00    +0.000 OA
ENDBRANCH  12  22
ENDBRANCH   8  19
ENDBRANCH   7  10
ENDBRANCH   1   7
BRANCH   4  23
ATOM     23  C   UNL     1      44.286   3.278  10.750  0.00  0.00    +0.000 C 
BRANCH  23  24
ATOM     24  N   UNL     1      42.943   3.304  11.343  0.00  0.00    +0.000 NA
ATOM     25  H   UNL     1      42.842   4.124  11.935  0.00  0.00    +0.000 HD
ATOM     26  H   UNL     1      42.836   2.496  11.956  0.00  0.00    +0.000 HD
ENDBRANCH  23  24
BRANCH  23  27
ATOM     27  C   UNL     1      44.277   3.540   9.220  0.00  0.00    +0.000 C 
BRANCH  27  28
ATOM     28  C   UNL     1      45.409   2.910   8.442  0.00  0.00    +0.000 A 
ATOM     29  C   UNL     1      46.261   3.693   7.649  0.00  0.00    +0.000 A 
ATOM     30  C   UNL     1      47.290   3.100   6.911  0.00  0.00    +0.000 A 
ATOM     31  C   UNL     1      47.479   1.720   6.961  0.00  0.00    +0.000 A 
ATOM     32  C   UNL     1      46.641   0.945   7.752  0.00  0.00    +0.000 A 
ATOM     33  F   UNL     1      46.820  -0.382   7.799  0.00  0.00    +0.000 F 
ATOM     34  C   UNL     1      45.613   1.524   8.489  0.00  0.00    +0.000 A 
ENDBRANCH  27  28
ENDBRANCH  23  27
ENDBRANCH   4  23
TORSDOF 8
ENDMDL
MODEL 2
REMARK VINA RESULT:    -8.707      1.601      1.990
REMARK INTER + INTRA:         -13.873
REMARK INTER:                 -12.400
REMARK INTRA:                  -1.472
REMARK UNBOUND:                -1.348
REMARK  Name = 
REMARK  9 active torsions:
REMARK  status: ('A' for Active; 'I' for Inactive)
REMARK    1  A    between atoms: C_1  and  O_2
REMARK    2  A    between atoms: O_2  and  C_3
REMARK    3  A    between atoms: C_10  and  C_11
REMARK    4  A    between atoms: N_13  and  C_14
REMARK    5  A    between atoms: C_14  and  C_15
REMARK    6  A    between atoms: C_18  and  C_19
REMARK    7  A    between atoms: C_19  and  N_20
REMARK    8  A    between atoms: C_19  and  C_21
REMARK    9  A    between atoms: C_21  and  C_22
REMARK                            x       y       z     vdW  Elec       q    Type
REMARK                         _______ _______ _______ _____ _____    ______ ____
ROOT
ATOM      1  C   UNL     1      46.615   6.247  12.749  0.00  0.00    +0.000 A 
ATOM      2  C   UNL     1      46.082   6.453  11.468  0.00  0.00    +0.000 A 
ATOM      3  C   UNL     1      45.359   5.439  10.822  0.00  0.00    +0.000 A 
ATOM      4  C   UNL     1      45.142   4.205  11.449  0.00  0.00    +0.000 A 
ATOM      5  C   UNL     1      45.706   4.000  12.722  0.00  0.00    +0.000 A 
ATOM      6  C   UNL     1      46.429   5.005  13.364  0.00  0.00    +0.000 A 
ENDROOT
BRANCH   1   7
ATOM      7  C   UNL     1      47.332   7.342  13.493  0.00  0.00    +0.000 C 
BRANCH   7  10
ATOM      8  C   UNL     1      49.113   7.616  15.145  0.00  0.00    +0.000 C 
ATOM      9  O   UNL     1      48.757   8.773  15.360  0.00  0.00    +0.000 OA
ATOM     10  N   UNL     1      48.447   6.820  14.252  0.00  0.00    +0.000 N 
ATOM     11  H   UNL     1      48.813   5.907  14.012  0.00  0.00    +0.000 HD
BRANCH   8  19
ATOM     12  C   UNL     1      49.435   4.827  17.123  0.00  0.00    +0.000 A 
ATOM     13  N   UNL     1      49.859   3.789  17.875  0.00  0.00    +0.000 NA
ATOM     14  C   UNL     1      51.150   3.736  18.215  0.00  0.00    +0.000 A 
ATOM     15  N   UNL     1      52.093   4.619  17.904  0.00  0.00    +0.000 NA
ATOM     16  C   UNL     1      51.636   5.632  17.150  0.00  0.00    +0.000 A 
ATOM     17  S   UNL     1      52.708   6.849  16.650  0.00  0.00    +0.000 S 
ATOM     18  C   UNL     1      51.481   7.642  15.784  0.00  0.00    +0.000 A 
ATOM     19  C   UNL     1      50.241   7.022  15.875  0.00  0.00    +0.000 A 
ATOM     20  C   UNL     1      50.331   5.825  16.702  0.00  0.00    +0.000 A 
BRANCH  12  22
ATOM     21  C   UNL     1      47.405   3.663  17.008  0.00  0.00    +0.000 C 
ATOM     22  O   UNL     1      48.096   4.892  16.781  0.00  0.00    +0.000 OA
ENDBRANCH  12  22
ENDBRANCH   8  19
ENDBRANCH   7  10
ENDBRANCH   1   7
BRANCH   4  23
ATOM     23  C   UNL     1      44.295   3.120  10.792  0.00  0.00    +0.000 C 
BRANCH  23  24
ATOM     24  N   UNL     1      42.968   3.066  11.418  0.00  0.00    +0.000 NA
ATOM     25  H   UNL     1      42.375   3.798  11.037  0.00  0.00    +0.000 HD
ATOM     26  H   UNL     1      43.063   3.268  12.413  0.00  0.00    +0.000 HD
ENDBRANCH  23  24
BRANCH  23  27
ATOM     27  C   UNL     1      44.231   3.360   9.260  0.00  0.00    +0.000 C 
BRANCH  27  28
ATOM     28  C   UNL     1      45.369   2.771   8.457  0.00  0.00    +0.000 A 
ATOM     29  C   UNL     1      46.188   3.587   7.664  0.00  0.00    +0.000 A 
ATOM     30  C   UNL     1      47.223   3.032   6.905  0.00  0.00    +0.000 A 
ATOM     31  C   UNL     1      47.449   1.656   6.933  0.00  0.00    +0.000 A 
ATOM     32  C   UNL     1      46.643   0.849   7.725  0.00  0.00    +0.000 A 
ATOM     33  F   UNL     1      46.858  -0.474   7.751  0.00  0.00    +0.000 F 
ATOM     34  C   UNL     1      45.610   1.390   8.483  0.00  0.00    +0.000 A 
ENDBRANCH  27  28
ENDBRANCH  23  27
ENDBRANCH   4  23
TORSDOF 8
ENDMDL
MODEL 3
REMARK VINA RESULT:    -8.580      1.408      2.465
REMARK INTER + INTRA:         -13.690
REMARK INTER:                 -12.298
REMARK INTRA:                  -1.392
REMARK UNBOUND:                -1.348
REMARK  Name = 
REMARK  9 active torsions:
REMARK  status: ('A' for Active; 'I' for Inactive)
REMARK    1  A    between atoms: C_1  and  O_2
REMARK    2  A    between atoms: O_2  and  C_3
REMARK    3  A    between atoms: C_10  and  C_11
REMARK    4  A    between atoms: N_13  and  C_14
REMARK    5  A    between atoms: C_14  and  C_15
REMARK    6  A    between atoms: C_18  and  C_19
REMARK    7  A    between atoms: C_19  and  N_20
REMARK    8  A    between atoms: C_19  and  C_21
REMARK    9  A    between atoms: C_21  and  C_22
REMARK                            x       y       z     vdW  Elec       q    Type
REMARK                         _______ _______ _______ _____ _____    ______ ____
ROOT
ATOM      1  C   UNL     1      47.116   5.886  13.143  0.00  0.00    +0.000 A 
ATOM      2  C   UNL     1      46.483   6.391  11.997  0.00  0.00    +0.000 A 
ATOM      3  C   UNL     1      45.563   5.609  11.283  0.00  0.00    +0.000 A 
ATOM      4  C   UNL     1      45.246   4.312  11.708  0.00  0.00    +0.000 A 
ATOM      5  C   UNL     1      45.908   3.805  12.842  0.00  0.00    +0.000 A 
ATOM      6  C   UNL     1      46.826   4.580  13.550  0.00  0.00    +0.000 A 
ENDROOT
BRANCH   1   7
ATOM      7  C   UNL     1      48.051   6.729  13.967  0.00  0.00    +0.000 C 
BRANCH   7  10
ATOM      8  C   UNL     1      49.017   6.241  16.159  0.00  0.00    +0.000 C 
ATOM      9  O   UNL     1      50.153   6.338  15.698  0.00  0.00    +0.000 OA
ATOM     10  N   UNL     1      47.911   6.445  15.379  0.00  0.00    +0.000 N 
ATOM     11  H   UNL     1      46.986   6.263  15.747  0.00  0.00    +0.000 HD
BRANCH   8  19
ATOM     12  C   UNL     1      47.839   8.102  18.794  0.00  0.00    +0.000 A 
ATOM     13  N   UNL     1      47.369   8.565  19.972  0.00  0.00    +0.000 NA
ATOM     14  C   UNL     1      47.347   7.734  21.018  0.00  0.00    +0.000 A 
ATOM     15  N   UNL     1      47.758   6.471  21.042  0.00  0.00    +0.000 NA
ATOM     16  C   UNL     1      48.212   6.044  19.851  0.00  0.00    +0.000 A 
ATOM     17  S   UNL     1      48.769   4.448  19.695  0.00  0.00    +0.000 S 
ATOM     18  C   UNL     1      49.084   4.670  18.041  0.00  0.00    +0.000 A 
ATOM     19  C   UNL     1      48.800   5.950  17.582  0.00  0.00    +0.000 A 
ATOM     20  C   UNL     1      48.289   6.776  18.669  0.00  0.00    +0.000 A 
BRANCH  12  22
ATOM     21  C   UNL     1      49.131   9.636  17.583  0.00  0.00    +0.000 C 
ATOM     22  O   UNL     1      47.877   8.964  17.713  0.00  0.00    +0.000 OA
ENDBRANCH  12  22
ENDBRANCH   8  19
ENDBRANCH   7  10
ENDBRANCH   1   7
BRANCH   4  23
ATOM     23  C   UNL     1      44.193   3.477  10.987  0.00  0.00    +0.000 C 
BRANCH  23  24
ATOM     24  N   UNL     1      42.882   3.657  11.624  0.00  0.00    +0.000 NA
ATOM     25  H   UNL     1      42.143   3.433  10.964  0.00  0.00    +0.000 HD
ATOM     26  H   UNL     1      42.762   4.641  11.862  0.00  0.00    +0.000 HD
ENDBRANCH  23  24
BRANCH  23  27
ATOM     27  C   UNL     1      44.185   3.831   9.477  0.00  0.00    +0.000 C 
BRANCH  27  28
ATOM     28  C   UNL     1      45.246   3.153   8.639  0.00  0.00    +0.000 A 
ATOM     29  C   UNL     1      46.056   3.893   7.766  0.00  0.00    +0.000 A 
ATOM     30  C   UNL     1      47.017   3.256   6.976  0.00  0.00    +0.000 A 
ATOM     31  C   UNL     1      47.180   1.873   7.054  0.00  0.00    +0.000 A 
ATOM     32  C   UNL     1      46.383   1.141   7.924  0.00  0.00    +0.000 A 
ATOM     33  F   UNL     1      46.536  -0.189   7.998  0.00  0.00    +0.000 F 
ATOM     34  C   UNL     1      45.422   1.764   8.713  0.00  0.00    +0.000 A 
ENDBRANCH  27  28
ENDBRANCH  23  27
ENDBRANCH   4  23
TORSDOF 8
ENDMDL
MODEL 4
REMARK VINA RESULT:    -7.920      1.125      1.653
REMARK INTER + INTRA:         -12.741
REMARK INTER:                 -11.486
REMARK INTRA:                  -1.255
REMARK UNBOUND:                -1.348
REMARK  Name = 
REMARK  9 active torsions:
REMARK  status: ('A' for Active; 'I' for Inactive)
REMARK    1  A    between atoms: C_1  and  O_2
REMARK    2  A    between atoms: O_2  and  C_3
REMARK    3  A    between atoms: C_10  and  C_11
REMARK    4  A    between atoms: N_13  and  C_14
REMARK    5  A    between atoms: C_14  and  C_15
REMARK    6  A    between atoms: C_18  and  C_19
REMARK    7  A    between atoms: C_19  and  N_20
REMARK    8  A    between atoms: C_19  and  C_21
REMARK    9  A    between atoms: C_21  and  C_22
REMARK                            x       y       z     vdW  Elec       q    Type
REMARK                         _______ _______ _______ _____ _____    ______ ____
ROOT
ATOM      1  C   UNL     1      47.284   5.918  12.848  0.00  0.00    +0.000 A 
ATOM      2  C   UNL     1      46.722   6.397  11.654  0.00  0.00    +0.000 A 
ATOM      3  C   UNL     1      45.713   5.675  10.998  0.00  0.00    +0.000 A 
ATOM      4  C   UNL     1      45.237   4.468  11.528  0.00  0.00    +0.000 A 
ATOM      5  C   UNL     1      45.828   3.984  12.710  0.00  0.00    +0.000 A 
ATOM      6  C   UNL     1      46.834   4.698  13.361  0.00  0.00    +0.000 A 
ENDROOT
BRANCH   1   7
ATOM      7  C   UNL     1      48.314   6.708  13.608  0.00  0.00    +0.000 C 
BRANCH   7  10
ATOM      8  C   UNL     1      48.917   7.177  15.931  0.00  0.00    +0.000 C 
ATOM      9  O   UNL     1      50.058   7.481  15.590  0.00  0.00    +0.000 OA
ATOM     10  N   UNL     1      47.973   6.805  15.011  0.00  0.00    +0.000 N 
ATOM     11  H   UNL     1      47.072   6.461  15.316  0.00  0.00    +0.000 HD
BRANCH   8  19
ATOM     12  C   UNL     1      48.761   4.861  18.462  0.00  0.00    +0.000 A 
ATOM     13  N   UNL     1      48.654   4.195  19.632  0.00  0.00    +0.000 NA
ATOM     14  C   UNL     1      48.248   4.869  20.712  0.00  0.00    +0.000 A 
ATOM     15  N   UNL     1      47.912   6.153  20.771  0.00  0.00    +0.000 NA
ATOM     16  C   UNL     1      48.039   6.784  19.591  0.00  0.00    +0.000 A 
ATOM     17  S   UNL     1      47.662   8.435  19.484  0.00  0.00    +0.000 S 
ATOM     18  C   UNL     1      48.092   8.476  17.841  0.00  0.00    +0.000 A 
ATOM     19  C   UNL     1      48.502   7.247  17.338  0.00  0.00    +0.000 A 
ATOM     20  C   UNL     1      48.459   6.231  18.383  0.00  0.00    +0.000 A 
BRANCH  12  22
ATOM     21  C   UNL     1      50.425   3.509  17.517  0.00  0.00    +0.000 C 
ATOM     22  O   UNL     1      49.168   4.163  17.340  0.00  0.00    +0.000 OA
ENDBRANCH  12  22
ENDBRANCH   8  19
ENDBRANCH   7  10
ENDBRANCH   1   7
BRANCH   4  23
ATOM     23  C   UNL     1      44.090   3.710  10.868  0.00  0.00    +0.000 C 
BRANCH  23  24
ATOM     24  N   UNL     1      42.815   4.072  11.499  0.00  0.00    +0.000 NA
ATOM     25  H   UNL     1      42.162   4.405  10.795  0.00  0.00    +0.000 HD
ATOM     26  H   UNL     1      42.970   4.855  12.135  0.00  0.00    +0.000 HD
ENDBRANCH  23  24
BRANCH  23  27
ATOM     27  C   UNL     1      44.102   3.969   9.337  0.00  0.00    +0.000 C 
BRANCH  27  28
ATOM     28  C   UNL     1      45.063   3.120   8.537  0.00  0.00    +0.000 A 
ATOM     29  C   UNL     1      45.313   1.787   8.892  0.00  0.00    +0.000 A 
ATOM     30  C   UNL     1      46.223   1.016   8.162  0.00  0.00    +0.000 A 
ATOM     31  C   UNL     1      46.889   1.569   7.070  0.00  0.00    +0.000 A 
ATOM     32  C   UNL     1      46.636   2.887   6.713  0.00  0.00    +0.000 A 
ATOM     33  F   UNL     1      47.277   3.421   5.664  0.00  0.00    +0.000 F 
ATOM     34  C   UNL     1      45.734   3.664   7.433  0.00  0.00    +0.000 A 
ENDBRANCH  27  28
ENDBRANCH  23  27
ENDBRANCH   4  23
TORSDOF 8
ENDMDL
MODEL 5
REMARK VINA RESULT:    -7.880      2.106      3.762
REMARK INTER + INTRA:         -12.683
REMARK INTER:                 -11.199
REMARK INTRA:                  -1.484
REMARK UNBOUND:                -1.348
REMARK  Name = 
REMARK  9 active torsions:
REMARK  status: ('A' for Active; 'I' for Inactive)
REMARK    1  A    between atoms: C_1  and  O_2
REMARK    2  A    between atoms: O_2  and  C_3
REMARK    3  A    between atoms: C_10  and  C_11
REMARK    4  A    between atoms: N_13  and  C_14
REMARK    5  A    between atoms: C_14  and  C_15
REMARK    6  A    between atoms: C_18  and  C_19
REMARK    7  A    between atoms: C_19  and  N_20
REMARK    8  A    between atoms: C_19  and  C_21
REMARK    9  A    between atoms: C_21  and  C_22
REMARK                            x       y       z     vdW  Elec       q    Type
REMARK                         _______ _______ _______ _____ _____    ______ ____
ROOT
ATOM      1  C   UNL     1      46.610   4.524  13.647  0.00  0.00    +0.000 A 
ATOM      2  C   UNL     1      46.053   3.304  13.233  0.00  0.00    +0.000 A 
ATOM      3  C   UNL     1      45.320   3.221  12.040  0.00  0.00    +0.000 A 
ATOM      4  C   UNL     1      45.139   4.351  11.231  0.00  0.00    +0.000 A 
ATOM      5  C   UNL     1      45.677   5.574  11.671  0.00  0.00    +0.000 A 
ATOM      6  C   UNL     1      46.403   5.660  12.859  0.00  0.00    +0.000 A 
ENDROOT
BRANCH   1   7
ATOM      7  C   UNL     1      47.461   4.624  14.884  0.00  0.00    +0.000 C 
BRANCH   7  10
ATOM      8  C   UNL     1      48.793   6.323  16.034  0.00  0.00    +0.000 C 
ATOM      9  O   UNL     1      49.560   5.459  16.455  0.00  0.00    +0.000 OA
ATOM     10  N   UNL     1      47.736   6.004  15.224  0.00  0.00    +0.000 N 
ATOM     11  H   UNL     1      47.058   6.710  14.969  0.00  0.00    +0.000 HD
BRANCH   8  19
ATOM     12  C   UNL     1      48.925   9.162  14.105  0.00  0.00    +0.000 A 
ATOM     13  N   UNL     1      48.966  10.420  13.616  0.00  0.00    +0.000 NA
ATOM     14  C   UNL     1      49.135  11.430  14.475  0.00  0.00    +0.000 A 
ATOM     15  N   UNL     1      49.286  11.340  15.792  0.00  0.00    +0.000 NA
ATOM     16  C   UNL     1      49.231  10.075  16.242  0.00  0.00    +0.000 A 
ATOM     17  S   UNL     1      49.395   9.774  17.904  0.00  0.00    +0.000 S 
ATOM     18  C   UNL     1      49.181   8.106  17.672  0.00  0.00    +0.000 A 
ATOM     19  C   UNL     1      49.008   7.742  16.342  0.00  0.00    +0.000 A 
ATOM     20  C   UNL     1      49.049   8.921  15.485  0.00  0.00    +0.000 A 
BRANCH  12  22
ATOM     21  C   UNL     1      48.780   8.533  11.853  0.00  0.00    +0.000 C 
ATOM     22  O   UNL     1      48.765   8.113  13.218  0.00  0.00    +0.000 OA
ENDBRANCH  12  22
ENDBRANCH   8  19
ENDBRANCH   7  10
ENDBRANCH   1   7
BRANCH   4  23
ATOM     23  C   UNL     1      44.409   4.260   9.896  0.00  0.00    +0.000 C 
BRANCH  23  24
ATOM     24  N   UNL     1      43.254   5.169   9.888  0.00  0.00    +0.000 NA
ATOM     25  H   UNL     1      43.547   6.102  10.165  0.00  0.00    +0.000 HD
ATOM     26  H   UNL     1      42.585   4.860  10.593  0.00  0.00    +0.000 HD
ENDBRANCH  23  24
BRANCH  23  27
ATOM     27  C   UNL     1      45.401   4.534   8.734  0.00  0.00    +0.000 C 
BRANCH  27  28
ATOM     28  C   UNL     1      45.981   3.308   8.067  0.00  0.00    +0.000 A 
ATOM     29  C   UNL     1      45.786   2.031   8.612  0.00  0.00    +0.000 A 
ATOM     30  C   UNL     1      46.349   0.905   8.003  0.00  0.00    +0.000 A 
ATOM     31  C   UNL     1      47.108   1.044   6.843  0.00  0.00    +0.000 A 
ATOM     32  C   UNL     1      47.295   2.308   6.298  0.00  0.00    +0.000 A 
ATOM     33  F   UNL     1      48.027   2.444   5.183  0.00  0.00    +0.000 F 
ATOM     34  C   UNL     1      46.742   3.435   6.896  0.00  0.00    +0.000 A 
ENDBRANCH  27  28
ENDBRANCH  23  27
ENDBRANCH   4  23
TORSDOF 8
ENDMDL
MODEL 6
REMARK VINA RESULT:    -7.512      1.676      2.478
REMARK INTER + INTRA:         -12.153
REMARK INTER:                 -11.780
REMARK INTRA:                  -0.373
REMARK UNBOUND:                -1.348
REMARK  Name = 
REMARK  9 active torsions:
REMARK  status: ('A' for Active; 'I' for Inactive)
REMARK    1  A    between atoms: C_1  and  O_2
REMARK    2  A    between atoms: O_2  and  C_3
REMARK    3  A    between atoms: C_10  and  C_11
REMARK    4  A    between atoms: N_13  and  C_14
REMARK    5  A    between atoms: C_14  and  C_15
REMARK    6  A    between atoms: C_18  and  C_19
REMARK    7  A    between atoms: C_19  and  N_20
REMARK    8  A    between atoms: C_19  and  C_21
REMARK    9  A    between atoms: C_21  and  C_22
REMARK                            x       y       z     vdW  Elec       q    Type
REMARK                         _______ _______ _______ _____ _____    ______ ____
ROOT
ATOM      1  C   UNL     1      46.607   4.373  13.772  0.00  0.00    +0.000 A 
ATOM      2  C   UNL     1      46.696   5.606  13.109  0.00  0.00    +0.000 A 
ATOM      3  C   UNL     1      46.142   5.773  11.831  0.00  0.00    +0.000 A 
ATOM      4  C   UNL     1      45.477   4.715  11.196  0.00  0.00    +0.000 A 
ATOM      5  C   UNL     1      45.419   3.476  11.858  0.00  0.00    +0.000 A 
ATOM      6  C   UNL     1      45.973   3.307  13.127  0.00  0.00    +0.000 A 
ENDROOT
BRANCH   1   7
ATOM      7  C   UNL     1      47.129   4.189  15.172  0.00  0.00    +0.000 C 
BRANCH   7  10
ATOM      8  C   UNL     1      48.622   5.567  16.532  0.00  0.00    +0.000 C 
ATOM      9  O   UNL     1      49.383   4.615  16.690  0.00  0.00    +0.000 OA
ATOM     10  N   UNL     1      47.489   5.456  15.770  0.00  0.00    +0.000 N 
ATOM     11  H   UNL     1      46.824   6.217  15.732  0.00  0.00    +0.000 HD
BRANCH   8  19
ATOM     12  C   UNL     1      48.320   6.870  19.695  0.00  0.00    +0.000 A 
ATOM     13  N   UNL     1      48.366   7.611  20.823  0.00  0.00    +0.000 NA
ATOM     14  C   UNL     1      48.857   8.851  20.749  0.00  0.00    +0.000 A 
ATOM     15  N   UNL     1      49.305   9.468  19.661  0.00  0.00    +0.000 NA
ATOM     16  C   UNL     1      49.250   8.699  18.561  0.00  0.00    +0.000 A 
ATOM     17  S   UNL     1      49.793   9.323  17.079  0.00  0.00    +0.000 S 
ATOM     18  C   UNL     1      49.467   7.857  16.287  0.00  0.00    +0.000 A 
ATOM     19  C   UNL     1      48.922   6.882  17.114  0.00  0.00    +0.000 A 
ATOM     20  C   UNL     1      48.782   7.390  18.473  0.00  0.00    +0.000 A 
BRANCH  12  22
ATOM     21  C   UNL     1      48.762   4.622  20.184  0.00  0.00    +0.000 C 
ATOM     22  O   UNL     1      47.799   5.591  19.765  0.00  0.00    +0.000 OA
ENDBRANCH  12  22
ENDBRANCH   8  19
ENDBRANCH   7  10
ENDBRANCH   1   7
BRANCH   4  23
ATOM     23  C   UNL     1      44.805   4.902   9.840  0.00  0.00    +0.000 C 
BRANCH  23  24
ATOM     24  N   UNL     1      45.683   5.664   8.942  0.00  0.00    +0.000 NA
ATOM     25  H   UNL     1      45.130   6.308   8.382  0.00  0.00    +0.000 HD
ATOM     26  H   UNL     1      46.123   5.021   8.285  0.00  0.00    +0.000 HD
ENDBRANCH  23  24
BRANCH  23  27
ATOM     27  C   UNL     1      44.399   3.521   9.260  0.00  0.00    +0.000 C 
BRANCH  27  28
ATOM     28  C   UNL     1      45.399   2.886   8.321  0.00  0.00    +0.000 A 
ATOM     29  C   UNL     1      45.937   3.608   7.246  0.00  0.00    +0.000 A 
ATOM     30  C   UNL     1      46.842   3.005   6.367  0.00  0.00    +0.000 A 
ATOM     31  C   UNL     1      47.219   1.677   6.555  0.00  0.00    +0.000 A 
ATOM     32  C   UNL     1      46.693   0.964   7.625  0.00  0.00    +0.000 A 
ATOM     33  F   UNL     1      47.053  -0.315   7.806  0.00  0.00    +0.000 F 
ATOM     34  C   UNL     1      45.790   1.552   8.504  0.00  0.00    +0.000 A 
ENDBRANCH  27  28
ENDBRANCH  23  27
ENDBRANCH   4  23
TORSDOF 8
ENDMDL
MODEL 7
REMARK VINA RESULT:    -7.379      2.330      3.326
REMARK INTER + INTRA:         -11.963
REMARK INTER:                 -11.432
REMARK INTRA:                  -0.530
REMARK UNBOUND:                -1.348
REMARK  Name = 
REMARK  9 active torsions:
REMARK  status: ('A' for Active; 'I' for Inactive)
REMARK    1  A    between atoms: C_1  and  O_2
REMARK    2  A    between atoms: O_2  and  C_3
REMARK    3  A    between atoms: C_10  and  C_11
REMARK    4  A    between atoms: N_13  and  C_14
REMARK    5  A    between atoms: C_14  and  C_15
REMARK    6  A    between atoms: C_18  and  C_19
REMARK    7  A    between atoms: C_19  and  N_20
REMARK    8  A    between atoms: C_19  and  C_21
REMARK    9  A    between atoms: C_21  and  C_22
REMARK                            x       y       z     vdW  Elec       q    Type
REMARK                         _______ _______ _______ _____ _____    ______ ____
ROOT
ATOM      1  C   UNL     1      45.851   4.525  13.620  0.00  0.00    +0.000 A 
ATOM      2  C   UNL     1      46.153   5.745  12.997  0.00  0.00    +0.000 A 
ATOM      3  C   UNL     1      45.963   5.911  11.617  0.00  0.00    +0.000 A 
ATOM      4  C   UNL     1      45.454   4.866  10.835  0.00  0.00    +0.000 A 
ATOM      5  C   UNL     1      45.182   3.637  11.465  0.00  0.00    +0.000 A 
ATOM      6  C   UNL     1      45.375   3.469  12.836  0.00  0.00    +0.000 A 
ENDROOT
BRANCH   1   7
ATOM      7  C   UNL     1      45.978   4.344  15.109  0.00  0.00    +0.000 C 
BRANCH   7  10
ATOM      8  C   UNL     1      47.619   3.408  16.661  0.00  0.00    +0.000 C 
ATOM      9  O   UNL     1      46.719   3.003  17.394  0.00  0.00    +0.000 OA
ATOM     10  N   UNL     1      47.345   4.063  15.490  0.00  0.00    +0.000 N 
ATOM     11  H   UNL     1      48.094   4.477  14.951  0.00  0.00    +0.000 HD
BRANCH   8  19
ATOM     12  C   UNL     1      50.142   5.403  17.866  0.00  0.00    +0.000 A 
ATOM     13  N   UNL     1      51.280   5.922  18.375  0.00  0.00    +0.000 NA
ATOM     14  C   UNL     1      52.335   5.116  18.524  0.00  0.00    +0.000 A 
ATOM     15  N   UNL     1      52.406   3.828  18.206  0.00  0.00    +0.000 NA
ATOM     16  C   UNL     1      51.254   3.345  17.710  0.00  0.00    +0.000 A 
ATOM     17  S   UNL     1      51.160   1.712  17.260  0.00  0.00    +0.000 S 
ATOM     18  C   UNL     1      49.527   1.875  16.826  0.00  0.00    +0.000 A 
ATOM     19  C   UNL     1      49.030   3.163  16.988  0.00  0.00    +0.000 A 
ATOM     20  C   UNL     1      50.068   4.046  17.507  0.00  0.00    +0.000 A 
BRANCH  12  22
ATOM     21  C   UNL     1      48.251   6.347  18.876  0.00  0.00    +0.000 C 
ATOM     22  O   UNL     1      49.052   6.237  17.698  0.00  0.00    +0.000 OA
ENDBRANCH  12  22
ENDBRANCH   8  19
ENDBRANCH   7  10
ENDBRANCH   1   7
BRANCH   4  23
ATOM     23  C   UNL     1      45.171   5.054   9.348  0.00  0.00    +0.000 C 
BRANCH  23  24
ATOM     24  N   UNL     1      46.374   5.544   8.663  0.00  0.00    +0.000 NA
ATOM     25  H   UNL     1      46.380   5.220   7.700  0.00  0.00    +0.000 HD
ATOM     26  H   UNL     1      47.197   5.135   9.105  0.00  0.00    +0.000 HD
ENDBRANCH  23  24
BRANCH  23  27
ATOM     27  C   UNL     1      44.628   3.732   8.745  0.00  0.00    +0.000 C 
BRANCH  27  28
ATOM     28  C   UNL     1      45.618   2.925   7.937  0.00  0.00    +0.000 A 
ATOM     29  C   UNL     1      46.221   3.463   6.791  0.00  0.00    +0.000 A 
ATOM     30  C   UNL     1      47.117   2.701   6.035  0.00  0.00    +0.000 A 
ATOM     31  C   UNL     1      47.422   1.396   6.419  0.00  0.00    +0.000 A 
ATOM     32  C   UNL     1      46.832   0.866   7.559  0.00  0.00    +0.000 A 
ATOM     33  F   UNL     1      47.122  -0.389   7.929  0.00  0.00    +0.000 F 
ATOM     34  C   UNL     1      45.938   1.614   8.318  0.00  0.00    +0.000 A 
ENDBRANCH  27  28
ENDBRANCH  23  27
ENDBRANCH   4  23
TORSDOF 8
ENDMDL
MODEL 8
REMARK VINA RESULT:    -7.119      2.244      2.749
REMARK INTER + INTRA:         -11.588
REMARK INTER:                 -11.432
REMARK INTRA:                  -0.156
REMARK UNBOUND:                -1.348
REMARK  Name = 
REMARK  9 active torsions:
REMARK  status: ('A' for Active; 'I' for Inactive)
REMARK    1  A    between atoms: C_1  and  O_2
REMARK    2  A    between atoms: O_2  and  C_3
REMARK    3  A    between atoms: C_10  and  C_11
REMARK    4  A    between atoms: N_13  and  C_14
REMARK    5  A    between atoms: C_14  and  C_15
REMARK    6  A    between atoms: C_18  and  C_19
REMARK    7  A    between atoms: C_19  and  N_20
REMARK    8  A    between atoms: C_19  and  C_21
REMARK    9  A    between atoms: C_21  and  C_22
REMARK                            x       y       z     vdW  Elec       q    Type
REMARK                         _______ _______ _______ _____ _____    ______ ____
ROOT
ATOM      1  C   UNL     1      46.074   4.543  13.753  0.00  0.00    +0.000 A 
ATOM      2  C   UNL     1      45.999   5.810  13.155  0.00  0.00    +0.000 A 
ATOM      3  C   UNL     1      45.661   5.943  11.799  0.00  0.00    +0.000 A 
ATOM      4  C   UNL     1      45.378   4.814  11.019  0.00  0.00    +0.000 A 
ATOM      5  C   UNL     1      45.485   3.547  11.622  0.00  0.00    +0.000 A 
ATOM      6  C   UNL     1      45.825   3.413  12.968  0.00  0.00    +0.000 A 
ENDROOT
BRANCH   1   7
ATOM      7  C   UNL     1      46.363   4.377  15.220  0.00  0.00    +0.000 C 
BRANCH   7  10
ATOM      8  C   UNL     1      48.240   4.713  16.751  0.00  0.00    +0.000 C 
ATOM      9  O   UNL     1      47.832   3.808  17.475  0.00  0.00    +0.000 OA
ATOM     10  N   UNL     1      47.589   5.049  15.594  0.00  0.00    +0.000 N 
ATOM     11  H   UNL     1      47.879   5.860  15.063  0.00  0.00    +0.000 HD
BRANCH   8  19
ATOM     12  C   UNL     1      51.425   3.715  17.561  0.00  0.00    +0.000 A 
ATOM     13  N   UNL     1      52.743   3.616  17.837  0.00  0.00    +0.000 NA
ATOM     14  C   UNL     1      53.451   4.742  17.965  0.00  0.00    +0.000 A 
ATOM     15  N   UNL     1      52.996   5.987  17.864  0.00  0.00    +0.000 NA
ATOM     16  C   UNL     1      51.684   6.044  17.581  0.00  0.00    +0.000 A 
ATOM     17  S   UNL     1      50.934   7.557  17.406  0.00  0.00    +0.000 S 
ATOM     18  C   UNL     1      49.443   6.830  17.043  0.00  0.00    +0.000 A 
ATOM     19  C   UNL     1      49.475   5.441  17.071  0.00  0.00    +0.000 A 
ATOM     20  C   UNL     1      50.813   4.971  17.405  0.00  0.00    +0.000 A 
BRANCH  12  22
ATOM     21  C   UNL     1      51.493   1.374  17.489  0.00  0.00    +0.000 C 
ATOM     22  O   UNL     1      50.686   2.552  17.442  0.00  0.00    +0.000 OA
ENDBRANCH  12  22
ENDBRANCH   8  19
ENDBRANCH   7  10
ENDBRANCH   1   7
BRANCH   4  23
ATOM     23  C   UNL     1      44.937   4.946   9.565  0.00  0.00    +0.000 C 
BRANCH  23  24
ATOM     24  N   UNL     1      46.002   5.569   8.768  0.00  0.00    +0.000 NA
ATOM     25  H   UNL     1      46.586   4.851   8.350  0.00  0.00    +0.000 HD
ATOM     26  H   UNL     1      46.609   6.104   9.389  0.00  0.00    +0.000 HD
ENDBRANCH  23  24
BRANCH  23  27
ATOM     27  C   UNL     1      44.505   3.560   9.018  0.00  0.00    +0.000 C 
BRANCH  27  28
ATOM     28  C   UNL     1      45.515   2.859   8.140  0.00  0.00    +0.000 A 
ATOM     29  C   UNL     1      46.085   3.511   7.036  0.00  0.00    +0.000 A 
ATOM     30  C   UNL     1      47.000   2.847   6.213  0.00  0.00    +0.000 A 
ATOM     31  C   UNL     1      47.356   1.528   6.486  0.00  0.00    +0.000 A 
ATOM     32  C   UNL     1      46.799   0.884   7.584  0.00  0.00    +0.000 A 
ATOM     33  F   UNL     1      47.138  -0.385   7.846  0.00  0.00    +0.000 F 
ATOM     34  C   UNL     1      45.886   1.534   8.408  0.00  0.00    +0.000 A 
ENDBRANCH  27  28
ENDBRANCH  23  27
ENDBRANCH   4  23
TORSDOF 8
ENDMDL
MODEL 9
REMARK VINA RESULT:    -6.853      2.449      3.420
REMARK INTER + INTRA:         -11.206
REMARK INTER:                  -9.658
REMARK INTRA:                  -1.548
REMARK UNBOUND:                -1.348
REMARK  Name = 
REMARK  9 active torsions:
REMARK  status: ('A' for Active; 'I' for Inactive)
REMARK    1  A    between atoms: C_1  and  O_2
REMARK    2  A    between atoms: O_2  and  C_3
REMARK    3  A    between atoms: C_10  and  C_11
REMARK    4  A    between atoms: N_13  and  C_14
REMARK    5  A    between atoms: C_14  and  C_15
REMARK    6  A    between atoms: C_18  and  C_19
REMARK    7  A    between atoms: C_19  and  N_20
REMARK    8  A    between atoms: C_19  and  C_21
REMARK    9  A    between atoms: C_21  and  C_22
REMARK                            x       y       z     vdW  Elec       q    Type
REMARK                         _______ _______ _______ _____ _____    ______ ____
ROOT
ATOM      1  C   UNL     1      47.586   6.395  13.284  0.00  0.00    +0.000 A 
ATOM      2  C   UNL     1      47.308   5.040  13.524  0.00  0.00    +0.000 A 
ATOM      3  C   UNL     1      46.035   4.513  13.258  0.00  0.00    +0.000 A 
ATOM      4  C   UNL     1      45.020   5.324  12.734  0.00  0.00    +0.000 A 
ATOM      5  C   UNL     1      45.302   6.687  12.525  0.00  0.00    +0.000 A 
ATOM      6  C   UNL     1      46.565   7.214  12.793  0.00  0.00    +0.000 A 
ENDROOT
BRANCH   1   7
ATOM      7  C   UNL     1      48.961   6.968  13.492  0.00  0.00    +0.000 C 
BRANCH   7  10
ATOM      8  C   UNL     1      49.426   7.187  15.883  0.00  0.00    +0.000 C 
ATOM      9  O   UNL     1      49.785   6.012  15.937  0.00  0.00    +0.000 OA
ATOM     10  N   UNL     1      49.025   7.756  14.704  0.00  0.00    +0.000 N 
ATOM     11  H   UNL     1      48.638   8.691  14.695  0.00  0.00    +0.000 HD
BRANCH   8  19
ATOM     12  C   UNL     1      51.968   8.690  17.636  0.00  0.00    +0.000 A 
ATOM     13  N   UNL     1      52.739   9.429  18.462  0.00  0.00    +0.000 NA
ATOM     14  C   UNL     1      52.142  10.135  19.426  0.00  0.00    +0.000 A 
ATOM     15  N   UNL     1      50.841  10.186  19.688  0.00  0.00    +0.000 NA
ATOM     16  C   UNL     1      50.106   9.445  18.842  0.00  0.00    +0.000 A 
ATOM     17  S   UNL     1      48.418   9.402  19.022  0.00  0.00    +0.000 S 
ATOM     18  C   UNL     1      48.252   8.388  17.670  0.00  0.00    +0.000 A 
ATOM     19  C   UNL     1      49.460   8.045  17.075  0.00  0.00    +0.000 A 
ATOM     20  C   UNL     1      50.570   8.668  17.783  0.00  0.00    +0.000 A 
BRANCH  12  22
ATOM     21  C   UNL     1      52.806   8.694  15.448  0.00  0.00    +0.000 C 
ATOM     22  O   UNL     1      52.584   7.947  16.645  0.00  0.00    +0.000 OA
ENDBRANCH  12  22
ENDBRANCH   8  19
ENDBRANCH   7  10
ENDBRANCH   1   7
BRANCH   4  23
ATOM     23  C   UNL     1      43.655   4.750  12.369  0.00  0.00    +0.000 C 
BRANCH  23  24
ATOM     24  N   UNL     1      42.612   5.355  13.208  0.00  0.00    +0.000 NA
ATOM     25  H   UNL     1      42.498   6.335  12.964  0.00  0.00    +0.000 HD
ATOM     26  H   UNL     1      42.917   5.337  14.181  0.00  0.00    +0.000 HD
ENDBRANCH  23  24
BRANCH  23  27
ATOM     27  C   UNL     1      43.395   4.936  10.851  0.00  0.00    +0.000 C 
BRANCH  27  28
ATOM     28  C   UNL     1      44.242   4.086   9.932  0.00  0.00    +0.000 A 
ATOM     29  C   UNL     1      44.139   2.688   9.946  0.00  0.00    +0.000 A 
ATOM     30  C   UNL     1      44.944   1.908   9.111  0.00  0.00    +0.000 A 
ATOM     31  C   UNL     1      45.858   2.517   8.252  0.00  0.00    +0.000 A 
ATOM     32  C   UNL     1      45.955   3.903   8.233  0.00  0.00    +0.000 A 
ATOM     33  F   UNL     1      46.834   4.491   7.410  0.00  0.00    +0.000 F 
ATOM     34  C   UNL     1      45.160   4.689   9.060  0.00  0.00    +0.000 A 
ENDBRANCH  27  28
ENDBRANCH  23  27
ENDBRANCH   4  23
TORSDOF 8
ENDMDL
