MODEL 1
REMARK VINA RESULT:    -8.170      0.000      0.000
REMARK INTER + INTRA:          -9.740
REMARK INTER:                  -9.603
REMARK INTRA:                  -0.137
REMARK UNBOUND:                -0.137
REMARK  Name = 
REMARK  3 active torsions:
REMARK  status: ('A' for Active; 'I' for Inactive)
REMARK    1  A    between atoms: C_2  and  C_4
REMARK    2  A    between atoms: N_8  and  C_9
REMARK    3  A    between atoms: C_9  and  C_10
REMARK                            x       y       z     vdW  Elec       q    Type
REMARK                         _______ _______ _______ _____ _____    ______ ____
ROOT
ATOM      1  C   UNL     1      46.303   2.090   7.917  0.00  0.00    +0.000 A 
ATOM      2  C   UNL     1      46.444   3.426   7.551  0.00  0.00    +0.000 A 
ATOM      3  C   UNL     1      45.616   4.378   8.142  0.00  0.00    +0.000 A 
ATOM      4  C   UNL     1      44.694   3.990   9.115  0.00  0.00    +0.000 A 
ATOM      5  N   UNL     1      43.896   4.976   9.680  0.00  0.00    +0.000 N 
ATOM      6  N   UNL     1      44.567   2.705   9.495  0.00  0.00    +0.000 NA
ATOM      7  C   UNL     1      45.350   1.783   8.879  0.00  0.00    +0.000 A 
ATOM      8  H   UNL     1      43.230   5.344   9.006  0.00  0.00    +0.000 HD
ENDROOT
BRANCH   1  10
ATOM      9  N   UNL     1      46.777  -0.275   7.668  0.00  0.00    +0.000 N 
ATOM     10  C   UNL     1      47.073   1.005   7.289  0.00  0.00    +0.000 C 
ATOM     11  O   UNL     1      47.938   1.237   6.450  0.00  0.00    +0.000 OA
ATOM     12  H   UNL     1      47.263  -1.015   7.181  0.00  0.00    +0.000 HD
ATOM     13  H   UNL     1      45.927  -0.514   8.163  0.00  0.00    +0.000 HD
ENDBRANCH   1  10
BRANCH   5  14
ATOM     14  C   UNL     1      43.322   4.728  11.000  0.00  0.00    +0.000 C 
BRANCH  14  15
ATOM     15  C   UNL     1      43.620   5.953  11.904  0.00  0.00    +0.000 C 
ATOM     16  C   UNL     1      44.754   6.821  11.351  0.00  0.00    +0.000 C 
ATOM     17  C   UNL     1      46.117   6.159  11.533  0.00  0.00    +0.000 C 
ATOM     18  C   UNL     1      46.305   5.692  12.972  0.00  0.00    +0.000 C 
ATOM     19  C   UNL     1      45.112   4.881  13.455  0.00  0.00    +0.000 C 
ATOM     20  O   UNL     1      43.896   5.598  13.271  0.00  0.00    +0.000 OA
ENDBRANCH  14  15
ENDBRANCH   5  14
TORSDOF 3
ENDMDL
MODEL 2
REMARK VINA RESULT:    -7.560      1.468      1.652
REMARK INTER + INTRA:          -9.023
REMARK INTER:                  -9.310
REMARK INTRA:                   0.287
REMARK UNBOUND:                -0.137
REMARK  Name = 
REMARK  3 active torsions:
REMARK  status: ('A' for Active; 'I' for Inactive)
REMARK    1  A    between atoms: C_2  and  C_4
REMARK    2  A    between atoms: N_8  and  C_9
REMARK    3  A    between atoms: C_9  and  C_10
REMARK                            x       y       z     vdW  Elec       q    Type
REMARK                         _______ _______ _______ _____ _____    ______ ____
ROOT
ATOM      1  C   UNL     1      46.630   2.630   7.453  0.00  0.00    +0.000 A 
ATOM      2  C   UNL     1      46.250   3.965   7.552  0.00  0.00    +0.000 A 
ATOM      3  C   UNL     1      45.279   4.322   8.486  0.00  0.00    +0.000 A 
ATOM      4  C   UNL     1      44.736   3.351   9.330  0.00  0.00    +0.000 A 
ATOM      5  N   UNL     1      43.776   3.756  10.248  0.00  0.00    +0.000 N 
ATOM      6  N   UNL     1      45.115   2.062   9.260  0.00  0.00    +0.000 NA
ATOM      7  C   UNL     1      46.031   1.722   8.315  0.00  0.00    +0.000 A 
ATOM      8  H   UNL     1      42.913   4.027   9.785  0.00  0.00    +0.000 HD
ENDROOT
BRANCH   1  10
ATOM      9  N   UNL     1      47.773   2.923   5.334  0.00  0.00    +0.000 N 
ATOM     10  C   UNL     1      47.586   2.145   6.444  0.00  0.00    +0.000 C 
ATOM     11  O   UNL     1      48.199   1.094   6.595  0.00  0.00    +0.000 OA
ATOM     12  H   UNL     1      48.481   2.616   4.681  0.00  0.00    +0.000 HD
ATOM     13  H   UNL     1      47.476   3.889   5.288  0.00  0.00    +0.000 HD
ENDBRANCH   1  10
BRANCH   5  14
ATOM     14  C   UNL     1      43.574   2.939  11.441  0.00  0.00    +0.000 C 
BRANCH  14  15
ATOM     15  C   UNL     1      43.324   3.883  12.647  0.00  0.00    +0.000 C 
ATOM     16  C   UNL     1      43.048   5.324  12.209  0.00  0.00    +0.000 C 
ATOM     17  C   UNL     1      44.315   6.024  11.725  0.00  0.00    +0.000 C 
ATOM     18  C   UNL     1      45.444   5.862  12.736  0.00  0.00    +0.000 C 
ATOM     19  C   UNL     1      45.615   4.408  13.152  0.00  0.00    +0.000 C 
ATOM     20  O   UNL     1      44.387   3.860  13.617  0.00  0.00    +0.000 OA
ENDBRANCH  14  15
ENDBRANCH   5  14
TORSDOF 3
ENDMDL
MODEL 3
REMARK VINA RESULT:    -6.145      4.151      5.589
REMARK INTER + INTRA:          -7.360
REMARK INTER:                  -7.118
REMARK INTRA:                  -0.242
REMARK UNBOUND:                -0.137
REMARK  Name = 
REMARK  3 active torsions:
REMARK  status: ('A' for Active; 'I' for Inactive)
REMARK    1  A    between atoms: C_2  and  C_4
REMARK    2  A    between atoms: N_8  and  C_9
REMARK    3  A    between atoms: C_9  and  C_10
REMARK                            x       y       z     vdW  Elec       q    Type
REMARK                         _______ _______ _______ _____ _____    ______ ____
ROOT
ATOM      1  C   UNL     1      44.999   4.134  11.156  0.00  0.00    +0.000 A 
ATOM      2  C   UNL     1      45.329   5.456  11.439  0.00  0.00    +0.000 A 
ATOM      3  C   UNL     1      45.873   5.764  12.685  0.00  0.00    +0.000 A 
ATOM      4  C   UNL     1      46.117   4.745  13.607  0.00  0.00    +0.000 A 
ATOM      5  N   UNL     1      46.666   5.100  14.833  0.00  0.00    +0.000 N 
ATOM      6  N   UNL     1      45.826   3.460  13.334  0.00  0.00    +0.000 NA
ATOM      7  C   UNL     1      45.256   3.182  12.133  0.00  0.00    +0.000 A 
ATOM      8  H   UNL     1      46.006   5.632  15.394  0.00  0.00    +0.000 HD
ENDROOT
BRANCH   1  10
ATOM      9  N   UNL     1      43.846   4.718   9.105  0.00  0.00    +0.000 N 
ATOM     10  C   UNL     1      44.346   3.726   9.902  0.00  0.00    +0.000 C 
ATOM     11  O   UNL     1      44.263   2.546   9.578  0.00  0.00    +0.000 OA
ATOM     12  H   UNL     1      43.461   4.432   8.214  0.00  0.00    +0.000 HD
ATOM     13  H   UNL     1      44.103   5.691   9.217  0.00  0.00    +0.000 HD
ENDBRANCH   1  10
BRANCH   5  14
ATOM     14  C   UNL     1      47.392   4.081  15.585  0.00  0.00    +0.000 C 
BRANCH  14  15
ATOM     15  C   UNL     1      47.361   4.463  17.088  0.00  0.00    +0.000 C 
ATOM     16  C   UNL     1      48.248   5.673  17.398  0.00  0.00    +0.000 C 
ATOM     17  C   UNL     1      49.731   5.315  17.360  0.00  0.00    +0.000 C 
ATOM     18  C   UNL     1      50.012   4.076  18.202  0.00  0.00    +0.000 C 
ATOM     19  C   UNL     1      49.055   2.943  17.864  0.00  0.00    +0.000 C 
ATOM     20  O   UNL     1      47.700   3.370  17.961  0.00  0.00    +0.000 OA
ENDBRANCH  14  15
ENDBRANCH   5  14
TORSDOF 3
ENDMDL
MODEL 4
REMARK VINA RESULT:    -6.059      1.654      2.057
REMARK INTER + INTRA:          -7.259
REMARK INTER:                  -7.063
REMARK INTRA:                  -0.196
REMARK UNBOUND:                -0.137
REMARK  Name = 
REMARK  3 active torsions:
REMARK  status: ('A' for Active; 'I' for Inactive)
REMARK    1  A    between atoms: C_2  and  C_4
REMARK    2  A    between atoms: N_8  and  C_9
REMARK    3  A    between atoms: C_9  and  C_10
REMARK                            x       y       z     vdW  Elec       q    Type
REMARK                         _______ _______ _______ _____ _____    ______ ____
ROOT
ATOM      1  C   UNL     1      46.242   2.795   7.611  0.00  0.00    +0.000 A 
ATOM      2  C   UNL     1      45.547   1.938   8.459  0.00  0.00    +0.000 A 
ATOM      3  C   UNL     1      44.978   2.454   9.622  0.00  0.00    +0.000 A 
ATOM      4  C   UNL     1      45.075   3.819   9.896  0.00  0.00    +0.000 A 
ATOM      5  N   UNL     1      44.487   4.287  11.064  0.00  0.00    +0.000 N 
ATOM      6  N   UNL     1      45.724   4.662   9.071  0.00  0.00    +0.000 NA
ATOM      7  C   UNL     1      46.310   4.136   7.964  0.00  0.00    +0.000 A 
ATOM      8  H   UNL     1      44.980   3.951  11.887  0.00  0.00    +0.000 HD
ENDROOT
BRANCH   1  10
ATOM      9  N   UNL     1      47.072   3.214   5.371  0.00  0.00    +0.000 N 
ATOM     10  C   UNL     1      46.945   2.328   6.406  0.00  0.00    +0.000 C 
ATOM     11  O   UNL     1      47.410   1.195   6.334  0.00  0.00    +0.000 OA
ATOM     12  H   UNL     1      47.615   2.907   4.576  0.00  0.00    +0.000 HD
ATOM     13  H   UNL     1      46.920   4.208   5.483  0.00  0.00    +0.000 HD
ENDBRANCH   1  10
BRANCH   5  14
ATOM     14  C   UNL     1      44.119   5.698  11.134  0.00  0.00    +0.000 C 
BRANCH  14  15
ATOM     15  C   UNL     1      44.543   6.250  12.521  0.00  0.00    +0.000 C 
ATOM     16  C   UNL     1      44.611   7.780  12.541  0.00  0.00    +0.000 C 
ATOM     17  C   UNL     1      45.829   8.305  11.788  0.00  0.00    +0.000 C 
ATOM     18  C   UNL     1      47.098   7.597  12.247  0.00  0.00    +0.000 C 
ATOM     19  C   UNL     1      46.925   6.085  12.243  0.00  0.00    +0.000 C 
ATOM     20  O   UNL     1      45.783   5.697  12.998  0.00  0.00    +0.000 OA
ENDBRANCH  14  15
ENDBRANCH   5  14
TORSDOF 3
ENDMDL
MODEL 5
REMARK VINA RESULT:    -5.748      4.914      7.599
REMARK INTER + INTRA:          -6.894
REMARK INTER:                  -6.663
REMARK INTRA:                  -0.231
REMARK UNBOUND:                -0.137
REMARK  Name = 
REMARK  3 active torsions:
REMARK  status: ('A' for Active; 'I' for Inactive)
REMARK    1  A    between atoms: C_2  and  C_4
REMARK    2  A    between atoms: N_8  and  C_9
REMARK    3  A    between atoms: C_9  and  C_10
REMARK                            x       y       z     vdW  Elec       q    Type
REMARK                         _______ _______ _______ _____ _____    ______ ____
ROOT
ATOM      1  C   UNL     1      48.653   4.360  17.438  0.00  0.00    +0.000 A 
ATOM      2  C   UNL     1      48.866   5.602  16.846  0.00  0.00    +0.000 A 
ATOM      3  C   UNL     1      48.216   5.899  15.650  0.00  0.00    +0.000 A 
ATOM      4  C   UNL     1      47.336   4.972  15.088  0.00  0.00    +0.000 A 
ATOM      5  N   UNL     1      46.708   5.316  13.898  0.00  0.00    +0.000 N 
ATOM      6  N   UNL     1      47.104   3.779  15.665  0.00  0.00    +0.000 NA
ATOM      7  C   UNL     1      47.778   3.487  16.807  0.00  0.00    +0.000 A 
ATOM      8  H   UNL     1      47.370   5.354  13.128  0.00  0.00    +0.000 HD
ENDROOT
BRANCH   1  10
ATOM      9  N   UNL     1      48.605   3.347  19.641  0.00  0.00    +0.000 N 
ATOM     10  C   UNL     1      49.357   3.926  18.656  0.00  0.00    +0.000 C 
ATOM     11  O   UNL     1      50.569   4.065  18.778  0.00  0.00    +0.000 OA
ATOM     12  H   UNL     1      49.107   2.991  20.443  0.00  0.00    +0.000 HD
ATOM     13  H   UNL     1      47.667   3.004  19.481  0.00  0.00    +0.000 HD
ENDBRANCH   1  10
BRANCH   5  14
ATOM     14  C   UNL     1      45.452   4.651  13.563  0.00  0.00    +0.000 C 
BRANCH  14  15
ATOM     15  C   UNL     1      44.501   5.692  12.916  0.00  0.00    +0.000 C 
ATOM     16  C   UNL     1      43.088   5.138  12.712  0.00  0.00    +0.000 C 
ATOM     17  C   UNL     1      43.029   4.139  11.561  0.00  0.00    +0.000 C 
ATOM     18  C   UNL     1      43.684   4.713  10.310  0.00  0.00    +0.000 C 
ATOM     19  C   UNL     1      45.061   5.284  10.614  0.00  0.00    +0.000 C 
ATOM     20  O   UNL     1      45.002   6.227  11.678  0.00  0.00    +0.000 OA
ENDBRANCH  14  15
ENDBRANCH   5  14
TORSDOF 3
ENDMDL
MODEL 6
REMARK VINA RESULT:    -5.693      4.426      6.544
REMARK INTER + INTRA:          -6.829
REMARK INTER:                  -6.609
REMARK INTRA:                  -0.220
REMARK UNBOUND:                -0.137
REMARK  Name = 
REMARK  3 active torsions:
REMARK  status: ('A' for Active; 'I' for Inactive)
REMARK    1  A    between atoms: C_2  and  C_4
REMARK    2  A    between atoms: N_8  and  C_9
REMARK    3  A    between atoms: C_9  and  C_10
REMARK                            x       y       z     vdW  Elec       q    Type
REMARK                         _______ _______ _______ _____ _____    ______ ____
ROOT
ATOM      1  C   UNL     1      44.527   4.889  11.907  0.00  0.00    +0.000 A 
ATOM      2  C   UNL     1      44.879   3.545  11.829  0.00  0.00    +0.000 A 
ATOM      3  C   UNL     1      45.835   3.046  12.712  0.00  0.00    +0.000 A 
ATOM      4  C   UNL     1      46.390   3.883  13.681  0.00  0.00    +0.000 A 
ATOM      5  N   UNL     1      47.335   3.339  14.542  0.00  0.00    +0.000 N 
ATOM      6  N   UNL     1      46.039   5.179  13.781  0.00  0.00    +0.000 NA
ATOM      7  C   UNL     1      45.138   5.660  12.886  0.00  0.00    +0.000 A 
ATOM      8  H   UNL     1      48.196   3.115  14.052  0.00  0.00    +0.000 HD
ENDROOT
BRANCH   1  10
ATOM      9  N   UNL     1      43.017   6.704  11.352  0.00  0.00    +0.000 N 
ATOM     10  C   UNL     1      43.590   5.523  10.966  0.00  0.00    +0.000 C 
ATOM     11  O   UNL     1      43.341   5.022   9.874  0.00  0.00    +0.000 OA
ATOM     12  H   UNL     1      42.429   7.166  10.672  0.00  0.00    +0.000 HD
ATOM     13  H   UNL     1      43.374   7.257  12.121  0.00  0.00    +0.000 HD
ENDBRANCH   1  10
BRANCH   5  14
ATOM     14  C   UNL     1      47.544   3.986  15.834  0.00  0.00    +0.000 C 
BRANCH  14  15
ATOM     15  C   UNL     1      48.312   3.003  16.758  0.00  0.00    +0.000 C 
ATOM     16  C   UNL     1      47.807   3.050  18.202  0.00  0.00    +0.000 C 
ATOM     17  C   UNL     1      48.255   4.319  18.921  0.00  0.00    +0.000 C 
ATOM     18  C   UNL     1      49.754   4.537  18.754  0.00  0.00    +0.000 C 
ATOM     19  C   UNL     1      50.175   4.425  17.296  0.00  0.00    +0.000 C 
ATOM     20  O   UNL     1      49.738   3.194  16.729  0.00  0.00    +0.000 OA
ENDBRANCH  14  15
ENDBRANCH   5  14
TORSDOF 3
ENDMDL
MODEL 7
REMARK VINA RESULT:    -5.491      2.807      4.051
REMARK INTER + INTRA:          -6.592
REMARK INTER:                  -6.389
REMARK INTRA:                  -0.203
REMARK UNBOUND:                -0.137
REMARK  Name = 
REMARK  3 active torsions:
REMARK  status: ('A' for Active; 'I' for Inactive)
REMARK    1  A    between atoms: C_2  and  C_4
REMARK    2  A    between atoms: N_8  and  C_9
REMARK    3  A    between atoms: C_9  and  C_10
REMARK                            x       y       z     vdW  Elec       q    Type
REMARK                         _______ _______ _______ _____ _____    ______ ____
ROOT
ATOM      1  C   UNL     1      44.548   4.225   9.879  0.00  0.00    +0.000 A 
ATOM      2  C   UNL     1      43.565   4.384  10.852  0.00  0.00    +0.000 A 
ATOM      3  C   UNL     1      43.675   5.439  11.756  0.00  0.00    +0.000 A 
ATOM      4  C   UNL     1      44.737   6.338  11.649  0.00  0.00    +0.000 A 
ATOM      5  N   UNL     1      44.801   7.377  12.569  0.00  0.00    +0.000 N 
ATOM      6  N   UNL     1      45.679   6.209  10.697  0.00  0.00    +0.000 NA
ATOM      7  C   UNL     1      45.582   5.151   9.851  0.00  0.00    +0.000 A 
ATOM      8  H   UNL     1      45.012   7.032  13.502  0.00  0.00    +0.000 HD
ENDROOT
BRANCH   1  10
ATOM      9  N   UNL     1      44.469   1.838   9.462  0.00  0.00    +0.000 N 
ATOM     10  C   UNL     1      44.560   3.097   8.935  0.00  0.00    +0.000 C 
ATOM     11  O   UNL     1      44.637   3.276   7.724  0.00  0.00    +0.000 OA
ATOM     12  H   UNL     1      44.409   1.074   8.802  0.00  0.00    +0.000 HD
ATOM     13  H   UNL     1      44.167   1.665  10.412  0.00  0.00    +0.000 HD
ENDBRANCH   1  10
BRANCH   5  14
ATOM     14  C   UNL     1      45.543   8.579  12.203  0.00  0.00    +0.000 C 
BRANCH  14  15
ATOM     15  C   UNL     1      46.688   8.782  13.230  0.00  0.00    +0.000 C 
ATOM     16  C   UNL     1      47.539  10.016  12.914  0.00  0.00    +0.000 C 
ATOM     17  C   UNL     1      48.449   9.786  11.712  0.00  0.00    +0.000 C 
ATOM     18  C   UNL     1      49.230   8.486  11.863  0.00  0.00    +0.000 C 
ATOM     19  C   UNL     1      48.315   7.325  12.225  0.00  0.00    +0.000 C 
ATOM     20  O   UNL     1      47.534   7.627  13.376  0.00  0.00    +0.000 OA
ENDBRANCH  14  15
ENDBRANCH   5  14
TORSDOF 3
ENDMDL
