MODEL 1
REMARK VINA RESULT:    -8.758      0.000      0.000
REMARK INTER + INTRA:         -12.135
REMARK INTER:                 -11.319
REMARK INTRA:                  -0.816
REMARK UNBOUND:                -0.816
REMARK  Name = 
REMARK  5 active torsions:
REMARK  status: ('A' for Active; 'I' for Inactive)
REMARK    1  A    between atoms: C_2  and  C_4
REMARK    2  A    between atoms: C_7  and  N_8
REMARK    3  A    between atoms: N_8  and  C_9
REMARK    4  A    between atoms: C_9  and  C_10
REMARK    5  A    between atoms: C_12  and  N_13
REMARK                            x       y       z     vdW  Elec       q    Type
REMARK                         _______ _______ _______ _____ _____    ______ ____
ROOT
ATOM      1  C   UNL     1      44.014   5.801  10.863  0.00  0.00    +0.000 C 
ENDROOT
BRANCH   1   2
ATOM      2  C   UNL     1      45.077   5.450  11.870  0.00  0.00    +0.000 A 
ATOM      3  C   UNL     1      46.277   6.177  11.938  0.00  0.00    +0.000 A 
ATOM      4  C   UNL     1      47.258   5.912  12.900  0.00  0.00    +0.000 A 
ATOM      5  C   UNL     1      46.956   4.891  13.796  0.00  0.00    +0.000 A 
ATOM      6  N   UNL     1      45.814   4.160  13.787  0.00  0.00    +0.000 NA
ATOM      7  C   UNL     1      44.910   4.462  12.829  0.00  0.00    +0.000 A 
ATOM      8 CL   UNL     1      43.499   3.480  12.929  0.00  0.00    +0.000 Cl
BRANCH   4   9
ATOM      9  N   UNL     1      48.396   6.699  12.936  0.00  0.00    +0.000 N 
ATOM     10  C   UNL     1      48.730   7.572  11.801  0.00  0.00    +0.000 C 
ATOM     11  C   UNL     1      50.233   7.892  11.874  0.00  0.00    +0.000 C 
ATOM     12  O   UNL     1      50.579   8.518  13.123  0.00  0.00    +0.000 OA
ATOM     13  C   UNL     1      50.233   7.664  14.230  0.00  0.00    +0.000 C 
ATOM     14  C   UNL     1      48.733   7.325  14.233  0.00  0.00    +0.000 C 
ENDBRANCH   4   9
ENDBRANCH   1   2
BRANCH   1  15
ATOM     15  N   UNL     1      43.689   4.662  10.011  0.00  0.00    +0.000 N 
ATOM     16  H   UNL     1      42.826   4.175  10.226  0.00  0.00    +0.000 HD
BRANCH  15  20
ATOM     17  C   UNL     1      46.432   2.376   7.776  0.00  0.00    +0.000 A 
ATOM     18  C   UNL     1      46.385   3.759   7.605  0.00  0.00    +0.000 A 
ATOM     19  C   UNL     1      45.483   4.523   8.348  0.00  0.00    +0.000 A 
ATOM     20  C   UNL     1      44.640   3.944   9.302  0.00  0.00    +0.000 A 
ATOM     21  C   UNL     1      44.681   2.549   9.440  0.00  0.00    +0.000 A 
ATOM     22  C   UNL     1      45.565   1.768   8.682  0.00  0.00    +0.000 A 
BRANCH  17  24
ATOM     23  N   UNL     1      48.500   2.123   6.521  0.00  0.00    +0.000 N 
ATOM     24  C   UNL     1      47.353   1.532   6.975  0.00  0.00    +0.000 C 
ATOM     25  O   UNL     1      47.114   0.353   6.749  0.00  0.00    +0.000 OA
ATOM     26  H   UNL     1      49.160   1.525   6.046  0.00  0.00    +0.000 HD
ATOM     27  H   UNL     1      48.835   3.004   6.878  0.00  0.00    +0.000 HD
ENDBRANCH  17  24
ENDBRANCH  15  20
ENDBRANCH   1  15
TORSDOF 5
ENDMDL
MODEL 2
REMARK VINA RESULT:    -8.128      2.763      3.564
REMARK INTER + INTRA:         -11.321
REMARK INTER:                 -10.513
REMARK INTRA:                  -0.808
REMARK UNBOUND:                -0.816
REMARK  Name = 
REMARK  5 active torsions:
REMARK  status: ('A' for Active; 'I' for Inactive)
REMARK    1  A    between atoms: C_2  and  C_4
REMARK    2  A    between atoms: C_7  and  N_8
REMARK    3  A    between atoms: N_8  and  C_9
REMARK    4  A    between atoms: C_9  and  C_10
REMARK    5  A    between atoms: C_12  and  N_13
REMARK                            x       y       z     vdW  Elec       q    Type
REMARK                         _______ _______ _______ _____ _____    ______ ____
ROOT
ATOM      1  C   UNL     1      44.026   4.024  11.847  0.00  0.00    +0.000 C 
ENDROOT
BRANCH   1   2
ATOM      2  C   UNL     1      44.916   5.217  12.078  0.00  0.00    +0.000 A 
ATOM      3  C   UNL     1      44.552   6.492  11.616  0.00  0.00    +0.000 A 
ATOM      4  C   UNL     1      45.329   7.628  11.866  0.00  0.00    +0.000 A 
ATOM      5  C   UNL     1      46.479   7.412  12.619  0.00  0.00    +0.000 A 
ATOM      6  N   UNL     1      46.880   6.209  13.099  0.00  0.00    +0.000 NA
ATOM      7  C   UNL     1      46.088   5.151  12.819  0.00  0.00    +0.000 A 
ATOM      8 CL   UNL     1      46.689   3.686  13.494  0.00  0.00    +0.000 Cl
BRANCH   4   9
ATOM      9  N   UNL     1      44.884   8.860  11.418  0.00  0.00    +0.000 N 
ATOM     10  C   UNL     1      43.497   9.027  10.961  0.00  0.00    +0.000 C 
ATOM     11  C   UNL     1      43.439  10.275  10.062  0.00  0.00    +0.000 C 
ATOM     12  O   UNL     1      43.896  11.448  10.760  0.00  0.00    +0.000 OA
ATOM     13  C   UNL     1      45.249  11.270  11.220  0.00  0.00    +0.000 C 
ATOM     14  C   UNL     1      45.374  10.051  12.148  0.00  0.00    +0.000 C 
ENDBRANCH   4   9
ENDBRANCH   1   2
BRANCH   1  15
ATOM     15  N   UNL     1      43.656   3.899  10.441  0.00  0.00    +0.000 N 
ATOM     16  H   UNL     1      42.667   3.790  10.248  0.00  0.00    +0.000 HD
BRANCH  15  20
ATOM     17  C   UNL     1      46.444   2.650   7.539  0.00  0.00    +0.000 A 
ATOM     18  C   UNL     1      45.846   1.707   8.375  0.00  0.00    +0.000 A 
ATOM     19  C   UNL     1      44.916   2.113   9.333  0.00  0.00    +0.000 A 
ATOM     20  C   UNL     1      44.527   3.451   9.460  0.00  0.00    +0.000 A 
ATOM     21  C   UNL     1      45.159   4.390   8.631  0.00  0.00    +0.000 A 
ATOM     22  C   UNL     1      46.112   3.997   7.681  0.00  0.00    +0.000 A 
BRANCH  17  24
ATOM     23  N   UNL     1      47.478   2.952   5.360  0.00  0.00    +0.000 N 
ATOM     24  C   UNL     1      47.462   2.255   6.537  0.00  0.00    +0.000 C 
ATOM     25  O   UNL     1      48.271   1.363   6.757  0.00  0.00    +0.000 OA
ATOM     26  H   UNL     1      48.222   2.734   4.715  0.00  0.00    +0.000 HD
ATOM     27  H   UNL     1      46.993   3.827   5.240  0.00  0.00    +0.000 HD
ENDBRANCH  17  24
ENDBRANCH  15  20
ENDBRANCH   1  15
TORSDOF 5
ENDMDL
MODEL 3
REMARK VINA RESULT:    -7.770      1.372      1.901
REMARK INTER + INTRA:         -10.857
REMARK INTER:                 -10.216
REMARK INTRA:                  -0.642
REMARK UNBOUND:                -0.816
REMARK  Name = 
REMARK  5 active torsions:
REMARK  status: ('A' for Active; 'I' for Inactive)
REMARK    1  A    between atoms: C_2  and  C_4
REMARK    2  A    between atoms: C_7  and  N_8
REMARK    3  A    between atoms: N_8  and  C_9
REMARK    4  A    between atoms: C_9  and  C_10
REMARK    5  A    between atoms: C_12  and  N_13
REMARK                            x       y       z     vdW  Elec       q    Type
REMARK                         _______ _______ _______ _____ _____    ______ ____
ROOT
ATOM      1  C   UNL     1      44.565   3.613  11.859  0.00  0.00    +0.000 C 
ENDROOT
BRANCH   1   2
ATOM      2  C   UNL     1      44.903   5.068  12.047  0.00  0.00    +0.000 A 
ATOM      3  C   UNL     1      46.223   5.479  12.294  0.00  0.00    +0.000 A 
ATOM      4  C   UNL     1      46.576   6.827  12.415  0.00  0.00    +0.000 A 
ATOM      5  C   UNL     1      45.534   7.735  12.258  0.00  0.00    +0.000 A 
ATOM      6  N   UNL     1      44.243   7.402  12.012  0.00  0.00    +0.000 NA
ATOM      7  C   UNL     1      43.966   6.084  11.911  0.00  0.00    +0.000 A 
ATOM      8 CL   UNL     1      42.302   5.787  11.582  0.00  0.00    +0.000 Cl
BRANCH   4   9
ATOM      9  N   UNL     1      47.906   7.159  12.612  0.00  0.00    +0.000 N 
ATOM     10  C   UNL     1      48.644   7.908  11.584  0.00  0.00    +0.000 C 
ATOM     11  C   UNL     1      50.147   7.673  11.813  0.00  0.00    +0.000 C 
ATOM     12  O   UNL     1      50.549   8.080  13.135  0.00  0.00    +0.000 OA
ATOM     13  C   UNL     1      49.809   7.355  14.135  0.00  0.00    +0.000 C 
ATOM     14  C   UNL     1      48.294   7.568  13.981  0.00  0.00    +0.000 C 
ENDBRANCH   4   9
ENDBRANCH   1   2
BRANCH   1  15
ATOM     15  N   UNL     1      44.038   3.356  10.523  0.00  0.00    +0.000 N 
ATOM     16  H   UNL     1      43.077   3.035  10.476  0.00  0.00    +0.000 HD
BRANCH  15  20
ATOM     17  C   UNL     1      46.612   2.573   7.281  0.00  0.00    +0.000 A 
ATOM     18  C   UNL     1      46.179   1.522   8.088  0.00  0.00    +0.000 A 
ATOM     19  C   UNL     1      45.319   1.773   9.160  0.00  0.00    +0.000 A 
ATOM     20  C   UNL     1      44.840   3.059   9.431  0.00  0.00    +0.000 A 
ATOM     21  C   UNL     1      45.308   4.109   8.628  0.00  0.00    +0.000 A 
ATOM     22  C   UNL     1      46.191   3.872   7.563  0.00  0.00    +0.000 A 
BRANCH  17  24
ATOM     23  N   UNL     1      47.461   3.191   5.088  0.00  0.00    +0.000 N 
ATOM     24  C   UNL     1      47.554   2.344   6.159  0.00  0.00    +0.000 C 
ATOM     25  O   UNL     1      48.394   1.455   6.194  0.00  0.00    +0.000 OA
ATOM     26  H   UNL     1      48.155   3.081   4.364  0.00  0.00    +0.000 HD
ATOM     27  H   UNL     1      46.952   4.060   5.125  0.00  0.00    +0.000 HD
ENDBRANCH  17  24
ENDBRANCH  15  20
ENDBRANCH   1  15
TORSDOF 5
ENDMDL
MODEL 4
REMARK VINA RESULT:    -7.144      2.366      6.901
REMARK INTER + INTRA:         -10.049
REMARK INTER:                  -9.862
REMARK INTRA:                  -0.187
REMARK UNBOUND:                -0.816
REMARK  Name = 
REMARK  5 active torsions:
REMARK  status: ('A' for Active; 'I' for Inactive)
REMARK    1  A    between atoms: C_2  and  C_4
REMARK    2  A    between atoms: C_7  and  N_8
REMARK    3  A    between atoms: N_8  and  C_9
REMARK    4  A    between atoms: C_9  and  C_10
REMARK    5  A    between atoms: C_12  and  N_13
REMARK                            x       y       z     vdW  Elec       q    Type
REMARK                         _______ _______ _______ _____ _____    ______ ____
ROOT
ATOM      1  C   UNL     1      45.176   6.602  11.082  0.00  0.00    +0.000 C 
ENDROOT
BRANCH   1   2
ATOM      2  C   UNL     1      44.771   5.225  10.628  0.00  0.00    +0.000 A 
ATOM      3  C   UNL     1      45.544   4.515   9.694  0.00  0.00    +0.000 A 
ATOM      4  C   UNL     1      45.224   3.212   9.297  0.00  0.00    +0.000 A 
ATOM      5  C   UNL     1      44.098   2.661   9.902  0.00  0.00    +0.000 A 
ATOM      6  N   UNL     1      43.317   3.292  10.813  0.00  0.00    +0.000 NA
ATOM      7  C   UNL     1      43.677   4.550  11.151  0.00  0.00    +0.000 A 
ATOM      8 CL   UNL     1      42.623   5.240  12.325  0.00  0.00    +0.000 Cl
BRANCH   4   9
ATOM      9  N   UNL     1      46.058   2.556   8.407  0.00  0.00    +0.000 N 
ATOM     10  C   UNL     1      45.863   1.126   8.125  0.00  0.00    +0.000 C 
ATOM     11  C   UNL     1      47.182   0.569   7.562  0.00  0.00    +0.000 C 
ATOM     12  O   UNL     1      47.590   1.277   6.376  0.00  0.00    +0.000 OA
ATOM     13  C   UNL     1      47.761   2.679   6.657  0.00  0.00    +0.000 C 
ATOM     14  C   UNL     1      46.467   3.308   7.200  0.00  0.00    +0.000 C 
ENDBRANCH   4   9
ENDBRANCH   1   2
BRANCH   1  15
ATOM     15  N   UNL     1      46.494   6.591  11.710  0.00  0.00    +0.000 N 
ATOM     16  H   UNL     1      47.287   6.671  11.084  0.00  0.00    +0.000 HD
BRANCH  15  20
ATOM     17  C   UNL     1      47.318   4.702  15.384  0.00  0.00    +0.000 A 
ATOM     18  C   UNL     1      47.949   5.905  15.070  0.00  0.00    +0.000 A 
ATOM     19  C   UNL     1      47.674   6.541  13.856  0.00  0.00    +0.000 A 
ATOM     20  C   UNL     1      46.743   6.022  12.950  0.00  0.00    +0.000 A 
ATOM     21  C   UNL     1      46.140   4.797  13.269  0.00  0.00    +0.000 A 
ATOM     22  C   UNL     1      46.426   4.137  14.473  0.00  0.00    +0.000 A 
BRANCH  17  24
ATOM     23  N   UNL     1      48.900   4.057  17.114  0.00  0.00    +0.000 N 
ATOM     24  C   UNL     1      47.616   3.984  16.647  0.00  0.00    +0.000 C 
ATOM     25  O   UNL     1      46.751   3.373  17.261  0.00  0.00    +0.000 OA
ATOM     26  H   UNL     1      49.078   3.635  18.014  0.00  0.00    +0.000 HD
ATOM     27  H   UNL     1      49.566   4.729  16.769  0.00  0.00    +0.000 HD
ENDBRANCH  17  24
ENDBRANCH  15  20
ENDBRANCH   1  15
TORSDOF 5
ENDMDL
MODEL 5
REMARK VINA RESULT:    -7.004      2.404      3.278
REMARK INTER + INTRA:          -9.867
REMARK INTER:                  -9.838
REMARK INTRA:                  -0.029
REMARK UNBOUND:                -0.816
REMARK  Name = 
REMARK  5 active torsions:
REMARK  status: ('A' for Active; 'I' for Inactive)
REMARK    1  A    between atoms: C_2  and  C_4
REMARK    2  A    between atoms: C_7  and  N_8
REMARK    3  A    between atoms: N_8  and  C_9
REMARK    4  A    between atoms: C_9  and  C_10
REMARK    5  A    between atoms: C_12  and  N_13
REMARK                            x       y       z     vdW  Elec       q    Type
REMARK                         _______ _______ _______ _____ _____    ______ ____
ROOT
ATOM      1  C   UNL     1      44.362   4.150  12.123  0.00  0.00    +0.000 C 
ENDROOT
BRANCH   1   2
ATOM      2  C   UNL     1      45.347   5.032  12.843  0.00  0.00    +0.000 A 
ATOM      3  C   UNL     1      46.132   4.533  13.896  0.00  0.00    +0.000 A 
ATOM      4  C   UNL     1      47.095   5.313  14.544  0.00  0.00    +0.000 A 
ATOM      5  C   UNL     1      47.236   6.611  14.064  0.00  0.00    +0.000 A 
ATOM      6  N   UNL     1      46.516   7.148  13.048  0.00  0.00    +0.000 NA
ATOM      7  C   UNL     1      45.598   6.345  12.468  0.00  0.00    +0.000 A 
ATOM      8 CL   UNL     1      44.761   7.129  11.184  0.00  0.00    +0.000 Cl
BRANCH   4   9
ATOM      9  N   UNL     1      47.864   4.740  15.544  0.00  0.00    +0.000 N 
ATOM     10  C   UNL     1      48.562   5.588  16.520  0.00  0.00    +0.000 C 
ATOM     11  C   UNL     1      49.705   4.762  17.135  0.00  0.00    +0.000 C 
ATOM     12  O   UNL     1      49.212   3.560  17.757  0.00  0.00    +0.000 OA
ATOM     13  C   UNL     1      48.514   2.744  16.798  0.00  0.00    +0.000 C 
ATOM     14  C   UNL     1      47.337   3.502  16.161  0.00  0.00    +0.000 C 
ENDBRANCH   4   9
ENDBRANCH   1   2
BRANCH   1  15
ATOM     15  N   UNL     1      44.215   4.542  10.725  0.00  0.00    +0.000 N 
ATOM     16  H   UNL     1      43.341   4.993  10.478  0.00  0.00    +0.000 HD
BRANCH  15  20
ATOM     17  C   UNL     1      46.506   2.812   7.642  0.00  0.00    +0.000 A 
ATOM     18  C   UNL     1      45.806   1.992   8.525  0.00  0.00    +0.000 A 
ATOM     19  C   UNL     1      45.038   2.559   9.545  0.00  0.00    +0.000 A 
ATOM     20  C   UNL     1      44.915   3.945   9.688  0.00  0.00    +0.000 A 
ATOM     21  C   UNL     1      45.649   4.755   8.809  0.00  0.00    +0.000 A 
ATOM     22  C   UNL     1      46.442   4.196   7.796  0.00  0.00    +0.000 A 
BRANCH  17  24
ATOM     23  N   UNL     1      47.285   2.827   5.339  0.00  0.00    +0.000 N 
ATOM     24  C   UNL     1      47.359   2.240   6.572  0.00  0.00    +0.000 C 
ATOM     25  O   UNL     1      48.115   1.301   6.784  0.00  0.00    +0.000 OA
ATOM     26  H   UNL     1      47.925   2.486   4.636  0.00  0.00    +0.000 HD
ATOM     27  H   UNL     1      46.860   3.729   5.191  0.00  0.00    +0.000 HD
ENDBRANCH  17  24
ENDBRANCH  15  20
ENDBRANCH   1  15
TORSDOF 5
ENDMDL
MODEL 6
REMARK VINA RESULT:    -6.840      1.732      6.907
REMARK INTER + INTRA:          -9.656
REMARK INTER:                  -8.952
REMARK INTRA:                  -0.703
REMARK UNBOUND:                -0.816
REMARK  Name = 
REMARK  5 active torsions:
REMARK  status: ('A' for Active; 'I' for Inactive)
REMARK    1  A    between atoms: C_2  and  C_4
REMARK    2  A    between atoms: C_7  and  N_8
REMARK    3  A    between atoms: N_8  and  C_9
REMARK    4  A    between atoms: C_9  and  C_10
REMARK    5  A    between atoms: C_12  and  N_13
REMARK                            x       y       z     vdW  Elec       q    Type
REMARK                         _______ _______ _______ _____ _____    ______ ____
ROOT
ATOM      1  C   UNL     1      44.627   6.773  11.059  0.00  0.00    +0.000 C 
ENDROOT
BRANCH   1   2
ATOM      2  C   UNL     1      44.405   5.314  10.760  0.00  0.00    +0.000 A 
ATOM      3  C   UNL     1      45.161   4.653   9.778  0.00  0.00    +0.000 A 
ATOM      4  C   UNL     1      45.017   3.286   9.519  0.00  0.00    +0.000 A 
ATOM      5  C   UNL     1      44.086   2.621  10.311  0.00  0.00    +0.000 A 
ATOM      6  N   UNL     1      43.332   3.201  11.278  0.00  0.00    +0.000 NA
ATOM      7  C   UNL     1      43.515   4.524  11.475  0.00  0.00    +0.000 A 
ATOM      8 CL   UNL     1      42.517   5.142  12.736  0.00  0.00    +0.000 Cl
BRANCH   4   9
ATOM      9  N   UNL     1      45.830   2.692   8.568  0.00  0.00    +0.000 N 
ATOM     10  C   UNL     1      45.720   1.252   8.293  0.00  0.00    +0.000 C 
ATOM     11  C   UNL     1      47.032   0.792   7.633  0.00  0.00    +0.000 C 
ATOM     12  O   UNL     1      47.300   1.528   6.425  0.00  0.00    +0.000 OA
ATOM     13  C   UNL     1      47.388   2.939   6.699  0.00  0.00    +0.000 C 
ATOM     14  C   UNL     1      46.095   3.472   7.338  0.00  0.00    +0.000 C 
ENDBRANCH   4   9
ENDBRANCH   1   2
BRANCH   1  15
ATOM     15  N   UNL     1      45.390   6.955  12.290  0.00  0.00    +0.000 N 
ATOM     16  H   UNL     1      44.849   7.144  13.126  0.00  0.00    +0.000 HD
BRANCH  15  20
ATOM     17  C   UNL     1      49.382   8.283  12.514  0.00  0.00    +0.000 A 
ATOM     18  C   UNL     1      49.098   6.923  12.639  0.00  0.00    +0.000 A 
ATOM     19  C   UNL     1      47.777   6.475  12.558  0.00  0.00    +0.000 A 
ATOM     20  C   UNL     1      46.717   7.355  12.313  0.00  0.00    +0.000 A 
ATOM     21  C   UNL     1      47.017   8.721  12.217  0.00  0.00    +0.000 A 
ATOM     22  C   UNL     1      48.337   9.185  12.321  0.00  0.00    +0.000 A 
BRANCH  17  24
ATOM     23  N   UNL     1      51.778   7.926  12.317  0.00  0.00    +0.000 N 
ATOM     24  C   UNL     1      50.769   8.793  12.631  0.00  0.00    +0.000 C 
ATOM     25  O   UNL     1      51.005   9.946  12.970  0.00  0.00    +0.000 OA
ATOM     26  H   UNL     1      52.715   8.301  12.321  0.00  0.00    +0.000 HD
ATOM     27  H   UNL     1      51.619   7.064  11.820  0.00  0.00    +0.000 HD
ENDBRANCH  17  24
ENDBRANCH  15  20
ENDBRANCH   1  15
TORSDOF 5
ENDMDL
MODEL 7
REMARK VINA RESULT:    -6.694      1.578      6.642
REMARK INTER + INTRA:          -9.467
REMARK INTER:                  -8.613
REMARK INTRA:                  -0.854
REMARK UNBOUND:                -0.816
REMARK  Name = 
REMARK  5 active torsions:
REMARK  status: ('A' for Active; 'I' for Inactive)
REMARK    1  A    between atoms: C_2  and  C_4
REMARK    2  A    between atoms: C_7  and  N_8
REMARK    3  A    between atoms: N_8  and  C_9
REMARK    4  A    between atoms: C_9  and  C_10
REMARK    5  A    between atoms: C_12  and  N_13
REMARK                            x       y       z     vdW  Elec       q    Type
REMARK                         _______ _______ _______ _____ _____    ______ ____
ROOT
ATOM      1  C   UNL     1      45.105   3.867  13.089  0.00  0.00    +0.000 C 
ENDROOT
BRANCH   1   2
ATOM      2  C   UNL     1      44.795   3.994  11.621  0.00  0.00    +0.000 A 
ATOM      3  C   UNL     1      45.570   3.328  10.657  0.00  0.00    +0.000 A 
ATOM      4  C   UNL     1      45.271   3.381   9.291  0.00  0.00    +0.000 A 
ATOM      5  C   UNL     1      44.145   4.125   8.954  0.00  0.00    +0.000 A 
ATOM      6  N   UNL     1      43.354   4.783   9.836  0.00  0.00    +0.000 NA
ATOM      7  C   UNL     1      43.699   4.697  11.140  0.00  0.00    +0.000 A 
ATOM      8 CL   UNL     1      42.614   5.557  12.163  0.00  0.00    +0.000 Cl
BRANCH   4   9
ATOM      9  N   UNL     1      46.052   2.661   8.403  0.00  0.00    +0.000 N 
ATOM     10  C   UNL     1      45.807   1.226   8.194  0.00  0.00    +0.000 C 
ATOM     11  C   UNL     1      47.089   0.606   7.610  0.00  0.00    +0.000 C 
ATOM     12  O   UNL     1      47.472   1.248   6.379  0.00  0.00    +0.000 OA
ATOM     13  C   UNL     1      47.693   2.655   6.589  0.00  0.00    +0.000 C 
ATOM     14  C   UNL     1      46.438   3.346   7.149  0.00  0.00    +0.000 C 
ENDBRANCH   4   9
ENDBRANCH   1   2
BRANCH   1  15
ATOM     15  N   UNL     1      45.333   5.172  13.702  0.00  0.00    +0.000 N 
ATOM     16  H   UNL     1      44.561   5.554  14.236  0.00  0.00    +0.000 HD
BRANCH  15  20
ATOM     17  C   UNL     1      48.237   7.800  12.149  0.00  0.00    +0.000 A 
ATOM     18  C   UNL     1      46.888   8.152  12.098  0.00  0.00    +0.000 A 
ATOM     19  C   UNL     1      45.921   7.289  12.618  0.00  0.00    +0.000 A 
ATOM     20  C   UNL     1      46.269   6.081  13.233  0.00  0.00    +0.000 A 
ATOM     21  C   UNL     1      47.626   5.730  13.250  0.00  0.00    +0.000 A 
ATOM     22  C   UNL     1      48.604   6.577  12.709  0.00  0.00    +0.000 A 
BRANCH  17  24
ATOM     23  N   UNL     1      48.965   9.997  11.407  0.00  0.00    +0.000 N 
ATOM     24  C   UNL     1      49.284   8.678  11.573  0.00  0.00    +0.000 C 
ATOM     25  O   UNL     1      50.393   8.251  11.281  0.00  0.00    +0.000 OA
ATOM     26  H   UNL     1      49.706  10.605  11.090  0.00  0.00    +0.000 HD
ATOM     27  H   UNL     1      48.162  10.422  11.844  0.00  0.00    +0.000 HD
ENDBRANCH  17  24
ENDBRANCH  15  20
ENDBRANCH   1  15
TORSDOF 5
ENDMDL
MODEL 8
REMARK VINA RESULT:    -6.581      1.914      7.346
REMARK INTER + INTRA:          -9.321
REMARK INTER:                  -8.640
REMARK INTRA:                  -0.681
REMARK UNBOUND:                -0.816
REMARK  Name = 
REMARK  5 active torsions:
REMARK  status: ('A' for Active; 'I' for Inactive)
REMARK    1  A    between atoms: C_2  and  C_4
REMARK    2  A    between atoms: C_7  and  N_8
REMARK    3  A    between atoms: N_8  and  C_9
REMARK    4  A    between atoms: C_9  and  C_10
REMARK    5  A    between atoms: C_12  and  N_13
REMARK                            x       y       z     vdW  Elec       q    Type
REMARK                         _______ _______ _______ _____ _____    ______ ____
ROOT
ATOM      1  C   UNL     1      44.655   3.412  12.920  0.00  0.00    +0.000 C 
ENDROOT
BRANCH   1   2
ATOM      2  C   UNL     1      44.536   3.744  11.456  0.00  0.00    +0.000 A 
ATOM      3  C   UNL     1      45.327   3.087  10.498  0.00  0.00    +0.000 A 
ATOM      4  C   UNL     1      45.198   3.332   9.127  0.00  0.00    +0.000 A 
ATOM      5  C   UNL     1      44.222   4.259   8.775  0.00  0.00    +0.000 A 
ATOM      6  N   UNL     1      43.424   4.920   9.649  0.00  0.00    +0.000 NA
ATOM      7  C   UNL     1      43.602   4.642  10.959  0.00  0.00    +0.000 A 
ATOM      8 CL   UNL     1      42.523   5.527  11.968  0.00  0.00    +0.000 Cl
BRANCH   4   9
ATOM      9  N   UNL     1      45.980   2.614   8.238  0.00  0.00    +0.000 N 
ATOM     10  C   UNL     1      45.900   1.146   8.199  0.00  0.00    +0.000 C 
ATOM     11  C   UNL     1      47.191   0.617   7.550  0.00  0.00    +0.000 C 
ATOM     12  O   UNL     1      47.376   1.158   6.228  0.00  0.00    +0.000 OA
ATOM     13  C   UNL     1      47.435   2.596   6.273  0.00  0.00    +0.000 C 
ATOM     14  C   UNL     1      46.159   3.195   6.889  0.00  0.00    +0.000 C 
ENDBRANCH   4   9
ENDBRANCH   1   2
BRANCH   1  15
ATOM     15  N   UNL     1      46.050   3.296  13.330  0.00  0.00    +0.000 N 
ATOM     16  H   UNL     1      46.390   2.354  13.493  0.00  0.00    +0.000 HD
BRANCH  15  20
ATOM     17  C   UNL     1      48.326   6.277  15.248  0.00  0.00    +0.000 A 
ATOM     18  C   UNL     1      47.962   6.439  13.912  0.00  0.00    +0.000 A 
ATOM     19  C   UNL     1      47.201   5.458  13.272  0.00  0.00    +0.000 A 
ATOM     20  C   UNL     1      46.752   4.319  13.949  0.00  0.00    +0.000 A 
ATOM     21  C   UNL     1      47.150   4.159  15.284  0.00  0.00    +0.000 A 
ATOM     22  C   UNL     1      47.935   5.126  15.930  0.00  0.00    +0.000 A 
BRANCH  17  24
ATOM     23  N   UNL     1      50.506   7.262  15.682  0.00  0.00    +0.000 N 
ATOM     24  C   UNL     1      49.164   7.283  15.944  0.00  0.00    +0.000 C 
ATOM     25  O   UNL     1      48.678   8.113  16.702  0.00  0.00    +0.000 OA
ATOM     26  H   UNL     1      51.059   7.998  16.096  0.00  0.00    +0.000 HD
ATOM     27  H   UNL     1      50.900   6.758  14.903  0.00  0.00    +0.000 HD
ENDBRANCH  17  24
ENDBRANCH  15  20
ENDBRANCH   1  15
TORSDOF 5
ENDMDL
MODEL 9
REMARK VINA RESULT:    -6.266      4.570      8.038
REMARK INTER + INTRA:          -8.914
REMARK INTER:                  -8.191
REMARK INTRA:                  -0.723
REMARK UNBOUND:                -0.816
REMARK  Name = 
REMARK  5 active torsions:
REMARK  status: ('A' for Active; 'I' for Inactive)
REMARK    1  A    between atoms: C_2  and  C_4
REMARK    2  A    between atoms: C_7  and  N_8
REMARK    3  A    between atoms: N_8  and  C_9
REMARK    4  A    between atoms: C_9  and  C_10
REMARK    5  A    between atoms: C_12  and  N_13
REMARK                            x       y       z     vdW  Elec       q    Type
REMARK                         _______ _______ _______ _____ _____    ______ ____
ROOT
ATOM      1  C   UNL     1      48.644   6.684  15.939  0.00  0.00    +0.000 C 
ENDROOT
BRANCH   1   2
ATOM      2  C   UNL     1      48.234   6.625  14.492  0.00  0.00    +0.000 A 
ATOM      3  C   UNL     1      47.101   5.898  14.090  0.00  0.00    +0.000 A 
ATOM      4  C   UNL     1      46.663   5.873  12.761  0.00  0.00    +0.000 A 
ATOM      5  C   UNL     1      47.416   6.629  11.868  0.00  0.00    +0.000 A 
ATOM      6  N   UNL     1      48.513   7.355  12.196  0.00  0.00    +0.000 NA
ATOM      7  C   UNL     1      48.887   7.334  13.494  0.00  0.00    +0.000 A 
ATOM      8 CL   UNL     1      50.278   8.305  13.789  0.00  0.00    +0.000 Cl
BRANCH   4   9
ATOM      9  N   UNL     1      45.511   5.172  12.446  0.00  0.00    +0.000 N 
ATOM     10  C   UNL     1      45.479   3.707  12.564  0.00  0.00    +0.000 C 
ATOM     11  C   UNL     1      44.331   3.185  11.682  0.00  0.00    +0.000 C 
ATOM     12  O   UNL     1      43.068   3.760  12.065  0.00  0.00    +0.000 OA
ATOM     13  C   UNL     1      43.114   5.196  11.965  0.00  0.00    +0.000 C 
ATOM     14  C   UNL     1      44.227   5.788  12.845  0.00  0.00    +0.000 C 
ENDBRANCH   4   9
ENDBRANCH   1   2
BRANCH   1  15
ATOM     15  N   UNL     1      48.302   5.452  16.643  0.00  0.00    +0.000 N 
ATOM     16  H   UNL     1      47.459   5.480  17.206  0.00  0.00    +0.000 HD
BRANCH  15  20
ATOM     17  C   UNL     1      51.119   2.430  17.465  0.00  0.00    +0.000 A 
ATOM     18  C   UNL     1      51.473   3.768  17.633  0.00  0.00    +0.000 A 
ATOM     19  C   UNL     1      50.541   4.775  17.370  0.00  0.00    +0.000 A 
ATOM     20  C   UNL     1      49.232   4.479  16.974  0.00  0.00    +0.000 A 
ATOM     21  C   UNL     1      48.902   3.130  16.782  0.00  0.00    +0.000 A 
ATOM     22  C   UNL     1      49.836   2.111  17.020  0.00  0.00    +0.000 A 
BRANCH  17  24
ATOM     23  N   UNL     1      51.598   0.143  18.137  0.00  0.00    +0.000 N 
ATOM     24  C   UNL     1      52.096   1.340  17.701  0.00  0.00    +0.000 C 
ATOM     25  O   UNL     1      53.293   1.491  17.493  0.00  0.00    +0.000 OA
ATOM     26  H   UNL     1      52.256  -0.618  18.219  0.00  0.00    +0.000 HD
ATOM     27  H   UNL     1      50.617  -0.085  18.094  0.00  0.00    +0.000 HD
ENDBRANCH  17  24
ENDBRANCH  15  20
ENDBRANCH   1  15
TORSDOF 5
ENDMDL
