MODEL 1
REMARK VINA RESULT:    -7.635      0.000      0.000
REMARK INTER + INTRA:         -10.438
REMARK INTER:                  -9.420
REMARK INTRA:                  -1.018
REMARK UNBOUND:                -1.018
REMARK  Name = 
REMARK  4 active torsions:
REMARK  status: ('A' for Active; 'I' for Inactive)
REMARK    1  A    between atoms: C_2  and  C_3
REMARK    2  A    between atoms: N_7  and  C_8
REMARK    3  A    between atoms: C_8  and  C_9
REMARK    4  A    between atoms: C_13  and  C_14
REMARK                            x       y       z     vdW  Elec       q    Type
REMARK                         _______ _______ _______ _____ _____    ______ ____
ROOT
ATOM      1  C   UNL     1      43.740   5.296  11.516  0.00  0.00    +0.000 C 
ATOM      2  C   UNL     1      42.298   5.486  11.975  0.00  0.00    +0.000 C 
ATOM      3  C   UNL     1      42.908   6.449  11.009  0.00  0.00    +0.000 C 
ENDROOT
BRANCH   1   8
ATOM      4  C   UNL     1      46.325   2.794   7.681  0.00  0.00    +0.000 A 
ATOM      5  C   UNL     1      46.270   4.163   7.928  0.00  0.00    +0.000 A 
ATOM      6  C   UNL     1      45.515   4.642   9.005  0.00  0.00    +0.000 A 
ATOM      7  C   UNL     1      44.837   3.730   9.802  0.00  0.00    +0.000 A 
ATOM      8  N   UNL     1      43.911   4.038  10.784  0.00  0.00    +0.000 N 
ATOM      9  N   UNL     1      44.932   2.395   9.599  0.00  0.00    +0.000 NA
ATOM     10  C   UNL     1      45.657   1.954   8.551  0.00  0.00    +0.000 A 
ATOM     11  H   UNL     1      43.784   3.178  11.312  0.00  0.00    +0.000 HD
BRANCH   4  13
ATOM     12  N   UNL     1      47.613   1.815   5.661  0.00  0.00    +0.000 NA
ATOM     13  C   UNL     1      47.019   2.257   6.565  0.00  0.00    +0.000 C 
ENDBRANCH   4  13
ENDBRANCH   1   8
BRANCH   1  14
ATOM     14  C   UNL     1      44.903   5.534  12.477  0.00  0.00    +0.000 A 
ATOM     15  C   UNL     1      45.355   4.485  13.278  0.00  0.00    +0.000 A 
ATOM     16  C   UNL     1      46.690   4.449  13.655  0.00  0.00    +0.000 A 
ATOM     17  C   UNL     1      47.527   5.486  13.267  0.00  0.00    +0.000 A 
ATOM     18  C   UNL     1      46.988   6.583  12.599  0.00  0.00    +0.000 A 
ATOM     19  N   UNL     1      45.683   6.624  12.242  0.00  0.00    +0.000 NA
BRANCH  18  20
ATOM     20  C   UNL     1      47.796   7.740  12.191  0.00  0.00    +0.000 A 
ATOM     21  C   UNL     1      49.157   7.641  11.868  0.00  0.00    +0.000 A 
ATOM     22  C   UNL     1      49.895   8.781  11.550  0.00  0.00    +0.000 A 
ATOM     23  C   UNL     1      49.245  10.002  11.546  0.00  0.00    +0.000 A 
ATOM     24  N   UNL     1      47.930  10.148  11.806  0.00  0.00    +0.000 NA
ATOM     25  C   UNL     1      47.242   9.018  12.112  0.00  0.00    +0.000 A 
ENDBRANCH  18  20
ENDBRANCH   1  14
TORSDOF 4
ENDMDL
MODEL 2
REMARK VINA RESULT:    -7.429      1.868      3.325
REMARK INTER + INTRA:         -10.184
REMARK INTER:                  -9.721
REMARK INTRA:                  -0.462
REMARK UNBOUND:                -1.018
REMARK  Name = 
REMARK  4 active torsions:
REMARK  status: ('A' for Active; 'I' for Inactive)
REMARK    1  A    between atoms: C_2  and  C_3
REMARK    2  A    between atoms: N_7  and  C_8
REMARK    3  A    between atoms: C_8  and  C_9
REMARK    4  A    between atoms: C_13  and  C_14
REMARK                            x       y       z     vdW  Elec       q    Type
REMARK                         _______ _______ _______ _____ _____    ______ ____
ROOT
ATOM      1  C   UNL     1      43.971   4.931  11.438  0.00  0.00    +0.000 C 
ATOM      2  C   UNL     1      42.882   4.742  12.489  0.00  0.00    +0.000 C 
ATOM      3  C   UNL     1      42.686   5.720  11.377  0.00  0.00    +0.000 C 
ENDROOT
BRANCH   1   8
ATOM      4  C   UNL     1      46.556   2.694   7.443  0.00  0.00    +0.000 A 
ATOM      5  C   UNL     1      46.409   4.051   7.718  0.00  0.00    +0.000 A 
ATOM      6  C   UNL     1      45.670   4.454   8.837  0.00  0.00    +0.000 A 
ATOM      7  C   UNL     1      45.103   3.480   9.647  0.00  0.00    +0.000 A 
ATOM      8  N   UNL     1      44.203   3.701  10.676  0.00  0.00    +0.000 N 
ATOM      9  N   UNL     1      45.290   2.160   9.415  0.00  0.00    +0.000 NA
ATOM     10  C   UNL     1      45.996   1.792   8.327  0.00  0.00    +0.000 A 
ATOM     11  H   UNL     1      44.167   2.826  11.193  0.00  0.00    +0.000 HD
BRANCH   4  13
ATOM     12  N   UNL     1      47.811   1.831   5.350  0.00  0.00    +0.000 NA
ATOM     13  C   UNL     1      47.236   2.229   6.286  0.00  0.00    +0.000 C 
ENDBRANCH   4  13
ENDBRANCH   1   8
BRANCH   1  14
ATOM     14  C   UNL     1      45.291   5.613  11.795  0.00  0.00    +0.000 A 
ATOM     15  C   UNL     1      45.520   6.924  11.375  0.00  0.00    +0.000 A 
ATOM     16  C   UNL     1      46.331   7.747  12.142  0.00  0.00    +0.000 A 
ATOM     17  C   UNL     1      46.934   7.228  13.279  0.00  0.00    +0.000 A 
ATOM     18  C   UNL     1      46.793   5.872  13.567  0.00  0.00    +0.000 A 
ATOM     19  N   UNL     1      46.011   5.065  12.812  0.00  0.00    +0.000 NA
BRANCH  18  20
ATOM     20  C   UNL     1      47.431   5.236  14.726  0.00  0.00    +0.000 A 
ATOM     21  C   UNL     1      47.102   3.944  15.162  0.00  0.00    +0.000 A 
ATOM     22  C   UNL     1      47.691   3.411  16.308  0.00  0.00    +0.000 A 
ATOM     23  C   UNL     1      48.614   4.183  16.990  0.00  0.00    +0.000 A 
ATOM     24  N   UNL     1      48.998   5.413  16.592  0.00  0.00    +0.000 NA
ATOM     25  C   UNL     1      48.406   5.901  15.472  0.00  0.00    +0.000 A 
ENDBRANCH  18  20
ENDBRANCH   1  14
TORSDOF 4
ENDMDL
MODEL 3
REMARK VINA RESULT:    -6.719      1.317      6.494
REMARK INTER + INTRA:          -9.308
REMARK INTER:                  -8.494
REMARK INTRA:                  -0.815
REMARK UNBOUND:                -1.018
REMARK  Name = 
REMARK  4 active torsions:
REMARK  status: ('A' for Active; 'I' for Inactive)
REMARK    1  A    between atoms: C_2  and  C_3
REMARK    2  A    between atoms: N_7  and  C_8
REMARK    3  A    between atoms: C_8  and  C_9
REMARK    4  A    between atoms: C_13  and  C_14
REMARK                            x       y       z     vdW  Elec       q    Type
REMARK                         _______ _______ _______ _____ _____    ______ ____
ROOT
ATOM      1  C   UNL     1      46.207   4.962  13.653  0.00  0.00    +0.000 C 
ATOM      2  C   UNL     1      46.402   4.338  15.031  0.00  0.00    +0.000 C 
ATOM      3  C   UNL     1      47.428   4.131  13.966  0.00  0.00    +0.000 C 
ENDROOT
BRANCH   1   8
ATOM      4  C   UNL     1      48.193   9.452  11.769  0.00  0.00    +0.000 A 
ATOM      5  C   UNL     1      48.688   8.160  11.608  0.00  0.00    +0.000 A 
ATOM      6  C   UNL     1      48.015   7.083  12.198  0.00  0.00    +0.000 A 
ATOM      7  C   UNL     1      46.864   7.338  12.932  0.00  0.00    +0.000 A 
ATOM      8  N   UNL     1      46.185   6.426  13.722  0.00  0.00    +0.000 N 
ATOM      9  N   UNL     1      46.350   8.584  13.045  0.00  0.00    +0.000 NA
ATOM     10  C   UNL     1      47.018   9.609  12.477  0.00  0.00    +0.000 A 
ATOM     11  H   UNL     1      45.290   6.863  13.928  0.00  0.00    +0.000 HD
BRANCH   4  13
ATOM     12  N   UNL     1      49.450  11.513  10.837  0.00  0.00    +0.000 NA
ATOM     13  C   UNL     1      48.870  10.587  11.251  0.00  0.00    +0.000 C 
ENDBRANCH   4  13
ENDBRANCH   1   8
BRANCH   1  14
ATOM     14  C   UNL     1      45.129   4.441  12.705  0.00  0.00    +0.000 A 
ATOM     15  C   UNL     1      43.814   4.885  12.854  0.00  0.00    +0.000 A 
ATOM     16  C   UNL     1      42.995   4.956  11.737  0.00  0.00    +0.000 A 
ATOM     17  C   UNL     1      43.490   4.534  10.510  0.00  0.00    +0.000 A 
ATOM     18  C   UNL     1      44.756   3.957  10.449  0.00  0.00    +0.000 A 
ATOM     19  N   UNL     1      45.552   3.877  11.541  0.00  0.00    +0.000 NA
BRANCH  18  20
ATOM     20  C   UNL     1      45.337   3.448   9.200  0.00  0.00    +0.000 A 
ATOM     21  C   UNL     1      45.549   2.083   8.960  0.00  0.00    +0.000 A 
ATOM     22  C   UNL     1      46.164   1.656   7.784  0.00  0.00    +0.000 A 
ATOM     23  C   UNL     1      46.544   2.612   6.859  0.00  0.00    +0.000 A 
ATOM     24  N   UNL     1      46.327   3.933   7.020  0.00  0.00    +0.000 NA
ATOM     25  C   UNL     1      45.725   4.314   8.176  0.00  0.00    +0.000 A 
ENDBRANCH  18  20
ENDBRANCH   1  14
TORSDOF 4
ENDMDL
MODEL 4
REMARK VINA RESULT:    -6.371      1.688      6.478
REMARK INTER + INTRA:          -8.879
REMARK INTER:                  -8.180
REMARK INTRA:                  -0.698
REMARK UNBOUND:                -1.018
REMARK  Name = 
REMARK  4 active torsions:
REMARK  status: ('A' for Active; 'I' for Inactive)
REMARK    1  A    between atoms: C_2  and  C_3
REMARK    2  A    between atoms: N_7  and  C_8
REMARK    3  A    between atoms: C_8  and  C_9
REMARK    4  A    between atoms: C_13  and  C_14
REMARK                            x       y       z     vdW  Elec       q    Type
REMARK                         _______ _______ _______ _____ _____    ______ ____
ROOT
ATOM      1  C   UNL     1      44.256   5.513  11.751  0.00  0.00    +0.000 C 
ATOM      2  C   UNL     1      42.948   6.202  11.373  0.00  0.00    +0.000 C 
ATOM      3  C   UNL     1      43.237   5.880  12.802  0.00  0.00    +0.000 C 
ENDROOT
BRANCH   1   8
ATOM      4  C   UNL     1      48.974   7.229  13.313  0.00  0.00    +0.000 A 
ATOM      5  C   UNL     1      47.997   6.593  14.075  0.00  0.00    +0.000 A 
ATOM      6  C   UNL     1      46.789   6.215  13.473  0.00  0.00    +0.000 A 
ATOM      7  C   UNL     1      46.603   6.486  12.126  0.00  0.00    +0.000 A 
ATOM      8  N   UNL     1      45.417   6.346  11.424  0.00  0.00    +0.000 N 
ATOM      9  N   UNL     1      47.571   7.054  11.370  0.00  0.00    +0.000 NA
ATOM     10  C   UNL     1      48.723   7.420  11.969  0.00  0.00    +0.000 A 
ATOM     11  H   UNL     1      45.676   6.408  10.443  0.00  0.00    +0.000 HD
BRANCH   4  13
ATOM     12  N   UNL     1      51.173   8.096  14.369  0.00  0.00    +0.000 NA
ATOM     13  C   UNL     1      50.188   7.695  13.884  0.00  0.00    +0.000 C 
ENDBRANCH   4  13
ENDBRANCH   1   8
BRANCH   1  14
ATOM     14  C   UNL     1      44.505   4.053  11.379  0.00  0.00    +0.000 A 
ATOM     15  C   UNL     1      43.660   3.064  11.885  0.00  0.00    +0.000 A 
ATOM     16  C   UNL     1      43.447   1.913  11.142  0.00  0.00    +0.000 A 
ATOM     17  C   UNL     1      44.122   1.753   9.939  0.00  0.00    +0.000 A 
ATOM     18  C   UNL     1      45.068   2.701   9.558  0.00  0.00    +0.000 A 
ATOM     19  N   UNL     1      45.285   3.820  10.289  0.00  0.00    +0.000 NA
BRANCH  18  20
ATOM     20  C   UNL     1      45.854   2.587   8.323  0.00  0.00    +0.000 A 
ATOM     21  C   UNL     1      46.028   3.654   7.429  0.00  0.00    +0.000 A 
ATOM     22  C   UNL     1      46.729   3.474   6.238  0.00  0.00    +0.000 A 
ATOM     23  C   UNL     1      47.258   2.224   5.971  0.00  0.00    +0.000 A 
ATOM     24  N   UNL     1      47.157   1.176   6.813  0.00  0.00    +0.000 NA
ATOM     25  C   UNL     1      46.469   1.386   7.964  0.00  0.00    +0.000 A 
ENDBRANCH  18  20
ENDBRANCH   1  14
TORSDOF 4
ENDMDL
MODEL 5
REMARK VINA RESULT:    -6.001      3.489      7.962
REMARK INTER + INTRA:          -8.422
REMARK INTER:                  -7.712
REMARK INTRA:                  -0.710
REMARK UNBOUND:                -1.018
REMARK  Name = 
REMARK  4 active torsions:
REMARK  status: ('A' for Active; 'I' for Inactive)
REMARK    1  A    between atoms: C_2  and  C_3
REMARK    2  A    between atoms: N_7  and  C_8
REMARK    3  A    between atoms: C_8  and  C_9
REMARK    4  A    between atoms: C_13  and  C_14
REMARK                            x       y       z     vdW  Elec       q    Type
REMARK                         _______ _______ _______ _____ _____    ______ ____
ROOT
ATOM      1  C   UNL     1      48.593   7.707  12.780  0.00  0.00    +0.000 C 
ATOM      2  C   UNL     1      49.489   7.734  11.546  0.00  0.00    +0.000 C 
ATOM      3  C   UNL     1      49.199   8.998  12.286  0.00  0.00    +0.000 C 
ENDROOT
BRANCH   1   8
ATOM      4  C   UNL     1      49.209   7.121  17.969  0.00  0.00    +0.000 A 
ATOM      5  C   UNL     1      48.758   8.244  17.279  0.00  0.00    +0.000 A 
ATOM      6  C   UNL     1      48.669   8.207  15.882  0.00  0.00    +0.000 A 
ATOM      7  C   UNL     1      49.034   7.043  15.221  0.00  0.00    +0.000 A 
ATOM      8  N   UNL     1      49.178   6.896  13.852  0.00  0.00    +0.000 N 
ATOM      9  N   UNL     1      49.421   5.933  15.891  0.00  0.00    +0.000 NA
ATOM     10  C   UNL     1      49.510   5.991  17.235  0.00  0.00    +0.000 A 
ATOM     11  H   UNL     1      49.230   5.893  13.694  0.00  0.00    +0.000 HD
BRANCH   4  13
ATOM     12  N   UNL     1      49.554   7.130  20.534  0.00  0.00    +0.000 NA
ATOM     13  C   UNL     1      49.384   7.124  19.379  0.00  0.00    +0.000 C 
ENDBRANCH   4  13
ENDBRANCH   1   8
BRANCH   1  14
ATOM     14  C   UNL     1      47.094   7.447  12.651  0.00  0.00    +0.000 A 
ATOM     15  C   UNL     1      46.197   8.496  12.858  0.00  0.00    +0.000 A 
ATOM     16  C   UNL     1      44.985   8.492  12.183  0.00  0.00    +0.000 A 
ATOM     17  C   UNL     1      44.677   7.418  11.359  0.00  0.00    +0.000 A 
ATOM     18  C   UNL     1      45.542   6.327  11.310  0.00  0.00    +0.000 A 
ATOM     19  N   UNL     1      46.719   6.326  11.978  0.00  0.00    +0.000 NA
BRANCH  18  20
ATOM     20  C   UNL     1      45.270   5.135  10.497  0.00  0.00    +0.000 A 
ATOM     21  C   UNL     1      45.657   5.025   9.153  0.00  0.00    +0.000 A 
ATOM     22  C   UNL     1      45.317   3.897   8.407  0.00  0.00    +0.000 A 
ATOM     23  C   UNL     1      44.605   2.889   9.031  0.00  0.00    +0.000 A 
ATOM     24  N   UNL     1      44.245   2.924  10.330  0.00  0.00    +0.000 NA
ATOM     25  C   UNL     1      44.592   4.036  11.027  0.00  0.00    +0.000 A 
ENDBRANCH  18  20
ENDBRANCH   1  14
TORSDOF 4
ENDMDL
MODEL 6
REMARK VINA RESULT:    -5.733      5.678      8.477
REMARK INTER + INTRA:          -8.092
REMARK INTER:                  -7.785
REMARK INTRA:                  -0.307
REMARK UNBOUND:                -1.018
REMARK  Name = 
REMARK  4 active torsions:
REMARK  status: ('A' for Active; 'I' for Inactive)
REMARK    1  A    between atoms: C_2  and  C_3
REMARK    2  A    between atoms: N_7  and  C_8
REMARK    3  A    between atoms: C_8  and  C_9
REMARK    4  A    between atoms: C_13  and  C_14
REMARK                            x       y       z     vdW  Elec       q    Type
REMARK                         _______ _______ _______ _____ _____    ______ ____
ROOT
ATOM      1  C   UNL     1      48.560   3.880  16.993  0.00  0.00    +0.000 C 
ATOM      2  C   UNL     1      47.508   3.239  17.892  0.00  0.00    +0.000 C 
ATOM      3  C   UNL     1      47.951   2.542  16.648  0.00  0.00    +0.000 C 
ENDROOT
BRANCH   1   8
ATOM      4  C   UNL     1      53.233   1.712  18.051  0.00  0.00    +0.000 A 
ATOM      5  C   UNL     1      52.104   1.099  17.512  0.00  0.00    +0.000 A 
ATOM      6  C   UNL     1      50.940   1.851  17.308  0.00  0.00    +0.000 A 
ATOM      7  C   UNL     1      50.946   3.195  17.653  0.00  0.00    +0.000 A 
ATOM      8  N   UNL     1      49.842   4.031  17.688  0.00  0.00    +0.000 N 
ATOM      9  N   UNL     1      52.056   3.807  18.125  0.00  0.00    +0.000 NA
ATOM     10  C   UNL     1      53.165   3.064  18.323  0.00  0.00    +0.000 A 
ATOM     11  H   UNL     1      50.220   4.972  17.755  0.00  0.00    +0.000 HD
BRANCH   4  13
ATOM     12  N   UNL     1      55.396   0.403  18.601  0.00  0.00    +0.000 NA
ATOM     13  C   UNL     1      54.418   0.986  18.341  0.00  0.00    +0.000 C 
ENDBRANCH   4  13
ENDBRANCH   1   8
BRANCH   1  14
ATOM     14  C   UNL     1      48.232   5.124  16.171  0.00  0.00    +0.000 A 
ATOM     15  C   UNL     1      49.060   6.244  16.263  0.00  0.00    +0.000 A 
ATOM     16  C   UNL     1      49.185   7.083  15.165  0.00  0.00    +0.000 A 
ATOM     17  C   UNL     1      48.443   6.813  14.023  0.00  0.00    +0.000 A 
ATOM     18  C   UNL     1      47.519   5.772  14.041  0.00  0.00    +0.000 A 
ATOM     19  N   UNL     1      47.387   4.960  15.117  0.00  0.00    +0.000 NA
BRANCH  18  20
ATOM     20  C   UNL     1      46.666   5.447  12.891  0.00  0.00    +0.000 A 
ATOM     21  C   UNL     1      46.570   6.268  11.758  0.00  0.00    +0.000 A 
ATOM     22  C   UNL     1      45.695   5.947  10.721  0.00  0.00    +0.000 A 
ATOM     23  C   UNL     1      44.941   4.793  10.834  0.00  0.00    +0.000 A 
ATOM     24  N   UNL     1      45.025   3.946  11.880  0.00  0.00    +0.000 NA
ATOM     25  C   UNL     1      45.886   4.289  12.871  0.00  0.00    +0.000 A 
ENDBRANCH  18  20
ENDBRANCH   1  14
TORSDOF 4
ENDMDL
MODEL 7
REMARK VINA RESULT:    -5.619      3.266      6.440
REMARK INTER + INTRA:          -7.951
REMARK INTER:                  -7.057
REMARK INTRA:                  -0.894
REMARK UNBOUND:                -1.018
REMARK  Name = 
REMARK  4 active torsions:
REMARK  status: ('A' for Active; 'I' for Inactive)
REMARK    1  A    between atoms: C_2  and  C_3
REMARK    2  A    between atoms: N_7  and  C_8
REMARK    3  A    between atoms: C_8  and  C_9
REMARK    4  A    between atoms: C_13  and  C_14
REMARK                            x       y       z     vdW  Elec       q    Type
REMARK                         _______ _______ _______ _____ _____    ______ ____
ROOT
ATOM      1  C   UNL     1      49.511   8.277  12.525  0.00  0.00    +0.000 C 
ATOM      2  C   UNL     1      50.537   9.067  11.719  0.00  0.00    +0.000 C 
ATOM      3  C   UNL     1      50.502   7.577  11.627  0.00  0.00    +0.000 C 
ENDROOT
BRANCH   1   8
ATOM      4  C   UNL     1      44.634   6.464  11.768  0.00  0.00    +0.000 A 
ATOM      5  C   UNL     1      45.806   5.731  11.935  0.00  0.00    +0.000 A 
ATOM      6  C   UNL     1      47.021   6.402  12.120  0.00  0.00    +0.000 A 
ATOM      7  C   UNL     1      47.021   7.790  12.130  0.00  0.00    +0.000 A 
ATOM      8  N   UNL     1      48.141   8.604  12.119  0.00  0.00    +0.000 N 
ATOM      9  N   UNL     1      45.877   8.505  12.023  0.00  0.00    +0.000 NA
ATOM     10  C   UNL     1      44.718   7.841  11.837  0.00  0.00    +0.000 A 
ATOM     11  H   UNL     1      47.800   9.532  12.356  0.00  0.00    +0.000 HD
BRANCH   4  13
ATOM     12  N   UNL     1      42.347   5.337  11.320  0.00  0.00    +0.000 NA
ATOM     13  C   UNL     1      43.385   5.839  11.510  0.00  0.00    +0.000 C 
ENDBRANCH   4  13
ENDBRANCH   1   8
BRANCH   1  14
ATOM     14  C   UNL     1      49.623   8.174  14.045  0.00  0.00    +0.000 A 
ATOM     15  C   UNL     1      49.498   9.327  14.821  0.00  0.00    +0.000 A 
ATOM     16  C   UNL     1      48.985   9.224  16.105  0.00  0.00    +0.000 A 
ATOM     17  C   UNL     1      48.660   7.969  16.602  0.00  0.00    +0.000 A 
ATOM     18  C   UNL     1      48.949   6.839  15.841  0.00  0.00    +0.000 A 
ATOM     19  N   UNL     1      49.460   6.939  14.591  0.00  0.00    +0.000 NA
BRANCH  18  20
ATOM     20  C   UNL     1      48.675   5.475  16.309  0.00  0.00    +0.000 A 
ATOM     21  C   UNL     1      49.487   4.812  17.241  0.00  0.00    +0.000 A 
ATOM     22  C   UNL     1      49.220   3.493  17.604  0.00  0.00    +0.000 A 
ATOM     23  C   UNL     1      48.128   2.865  17.032  0.00  0.00    +0.000 A 
ATOM     24  N   UNL     1      47.290   3.467  16.164  0.00  0.00    +0.000 NA
ATOM     25  C   UNL     1      47.580   4.752  15.834  0.00  0.00    +0.000 A 
ENDBRANCH  18  20
ENDBRANCH   1  14
TORSDOF 4
ENDMDL
MODEL 8
REMARK VINA RESULT:    -5.606      3.084      5.941
REMARK INTER + INTRA:          -7.935
REMARK INTER:                  -8.000
REMARK INTRA:                   0.065
REMARK UNBOUND:                -1.018
REMARK  Name = 
REMARK  4 active torsions:
REMARK  status: ('A' for Active; 'I' for Inactive)
REMARK    1  A    between atoms: C_2  and  C_3
REMARK    2  A    between atoms: N_7  and  C_8
REMARK    3  A    between atoms: C_8  and  C_9
REMARK    4  A    between atoms: C_13  and  C_14
REMARK                            x       y       z     vdW  Elec       q    Type
REMARK                         _______ _______ _______ _____ _____    ______ ____
ROOT
ATOM      1  C   UNL     1      48.140   8.056  13.082  0.00  0.00    +0.000 C 
ATOM      2  C   UNL     1      47.033   8.897  13.711  0.00  0.00    +0.000 C 
ATOM      3  C   UNL     1      48.155   9.563  12.984  0.00  0.00    +0.000 C 
ENDROOT
BRANCH   1   8
ATOM      4  C   UNL     1      44.645   4.332  11.832  0.00  0.00    +0.000 A 
ATOM      5  C   UNL     1      45.019   4.767  13.100  0.00  0.00    +0.000 A 
ATOM      6  C   UNL     1      45.982   5.776  13.230  0.00  0.00    +0.000 A 
ATOM      7  C   UNL     1      46.539   6.317  12.080  0.00  0.00    +0.000 A 
ATOM      8  N   UNL     1      47.619   7.182  12.028  0.00  0.00    +0.000 N 
ATOM      9  N   UNL     1      46.139   5.936  10.845  0.00  0.00    +0.000 NA
ATOM     10  C   UNL     1      45.217   4.957  10.741  0.00  0.00    +0.000 A 
ATOM     11  H   UNL     1      47.622   7.551  11.081  0.00  0.00    +0.000 HD
BRANCH   4  13
ATOM     12  N   UNL     1      42.973   2.392  11.459  0.00  0.00    +0.000 NA
ATOM     13  C   UNL     1      43.725   3.267  11.641  0.00  0.00    +0.000 C 
ENDBRANCH   4  13
ENDBRANCH   1   8
BRANCH   1  14
ATOM     14  C   UNL     1      49.153   7.320  13.957  0.00  0.00    +0.000 A 
ATOM     15  C   UNL     1      50.361   7.942  14.276  0.00  0.00    +0.000 A 
ATOM     16  C   UNL     1      50.981   7.635  15.479  0.00  0.00    +0.000 A 
ATOM     17  C   UNL     1      50.408   6.679  16.307  0.00  0.00    +0.000 A 
ATOM     18  C   UNL     1      49.286   5.981  15.868  0.00  0.00    +0.000 A 
ATOM     19  N   UNL     1      48.687   6.272  14.689  0.00  0.00    +0.000 NA
BRANCH  18  20
ATOM     20  C   UNL     1      48.644   4.928  16.664  0.00  0.00    +0.000 A 
ATOM     21  C   UNL     1      49.241   4.361  17.799  0.00  0.00    +0.000 A 
ATOM     22  C   UNL     1      48.618   3.317  18.482  0.00  0.00    +0.000 A 
ATOM     23  C   UNL     1      47.394   2.870  18.019  0.00  0.00    +0.000 A 
ATOM     24  N   UNL     1      46.755   3.406  16.960  0.00  0.00    +0.000 NA
ATOM     25  C   UNL     1      47.390   4.421  16.318  0.00  0.00    +0.000 A 
ENDBRANCH  18  20
ENDBRANCH   1  14
TORSDOF 4
ENDMDL
MODEL 9
REMARK VINA RESULT:    -5.070      2.830      6.995
REMARK INTER + INTRA:          -7.273
REMARK INTER:                  -6.596
REMARK INTRA:                  -0.677
REMARK UNBOUND:                -1.018
REMARK  Name = 
REMARK  4 active torsions:
REMARK  status: ('A' for Active; 'I' for Inactive)
REMARK    1  A    between atoms: C_2  and  C_3
REMARK    2  A    between atoms: N_7  and  C_8
REMARK    3  A    between atoms: C_8  and  C_9
REMARK    4  A    between atoms: C_13  and  C_14
REMARK                            x       y       z     vdW  Elec       q    Type
REMARK                         _______ _______ _______ _____ _____    ______ ____
ROOT
ATOM      1  C   UNL     1      48.227   8.044  13.846  0.00  0.00    +0.000 C 
ATOM      2  C   UNL     1      48.537   7.965  15.337  0.00  0.00    +0.000 C 
ATOM      3  C   UNL     1      48.818   6.795  14.453  0.00  0.00    +0.000 C 
ENDROOT
BRANCH   1   8
ATOM      4  C   UNL     1      51.893   9.072  10.220  0.00  0.00    +0.000 A 
ATOM      5  C   UNL     1      51.550   7.839  10.768  0.00  0.00    +0.000 A 
ATOM      6  C   UNL     1      50.541   7.769  11.737  0.00  0.00    +0.000 A 
ATOM      7  C   UNL     1      49.907   8.942  12.124  0.00  0.00    +0.000 A 
ATOM      8  N   UNL     1      49.027   9.078  13.184  0.00  0.00    +0.000 N 
ATOM      9  N   UNL     1      50.200  10.134  11.554  0.00  0.00    +0.000 NA
ATOM     10  C   UNL     1      51.181  10.182  10.630  0.00  0.00    +0.000 A 
ATOM     11  H   UNL     1      48.587   9.986  13.052  0.00  0.00    +0.000 HD
BRANCH   4  13
ATOM     12  N   UNL     1      53.806   9.332   8.496  0.00  0.00    +0.000 NA
ATOM     13  C   UNL     1      52.953   9.212   9.284  0.00  0.00    +0.000 C 
ENDBRANCH   4  13
ENDBRANCH   1   8
BRANCH   1  14
ATOM     14  C   UNL     1      46.783   8.065  13.348  0.00  0.00    +0.000 A 
ATOM     15  C   UNL     1      46.279   9.224  12.755  0.00  0.00    +0.000 A 
ATOM     16  C   UNL     1      45.292   9.112  11.788  0.00  0.00    +0.000 A 
ATOM     17  C   UNL     1      44.795   7.855  11.474  0.00  0.00    +0.000 A 
ATOM     18  C   UNL     1      45.225   6.750  12.206  0.00  0.00    +0.000 A 
ATOM     19  N   UNL     1      46.180   6.860  13.158  0.00  0.00    +0.000 NA
BRANCH  18  20
ATOM     20  C   UNL     1      44.719   5.393  11.965  0.00  0.00    +0.000 A 
ATOM     21  C   UNL     1      44.631   4.829  10.684  0.00  0.00    +0.000 A 
ATOM     22  C   UNL     1      44.082   3.560  10.503  0.00  0.00    +0.000 A 
ATOM     23  C   UNL     1      43.644   2.871  11.620  0.00  0.00    +0.000 A 
ATOM     24  N   UNL     1      43.743   3.347  12.877  0.00  0.00    +0.000 NA
ATOM     25  C   UNL     1      44.283   4.585  13.017  0.00  0.00    +0.000 A 
ENDBRANCH  18  20
ENDBRANCH   1  14
TORSDOF 4
ENDMDL
