MODEL 1
REMARK VINA RESULT:    -8.866      0.000      0.000
REMARK INTER + INTRA:         -10.387
REMARK INTER:                 -10.939
REMARK INTRA:                   0.552
REMARK UNBOUND:                 0.552
REMARK  Name = 
REMARK  5 active torsions:
REMARK  status: ('A' for Active; 'I' for Inactive)
REMARK    1  A    between atoms: C_1  and  O_2
REMARK    2  A    between atoms: O_2  and  C_3
REMARK    3  A    between atoms: C_5  and  C_6
REMARK    4  A    between atoms: C_6  and  N_7
REMARK    5  A    between atoms: C_11  and  C_12
REMARK                            x       y       z     vdW  Elec       q    Type
REMARK                         _______ _______ _______ _____ _____    ______ ____
ROOT
ATOM      1  N   UNL     1      44.324   5.175   9.806  0.00  0.00    +0.000 N 
ATOM      2  C   UNL     1      45.030   4.184   9.132  0.00  0.00    +0.000 A 
ATOM      3  C   UNL     1      45.155   2.879   9.594  0.00  0.00    +0.000 A 
ATOM      4  C   UNL     1      45.867   1.944   8.838  0.00  0.00    +0.000 A 
ATOM      5  C   UNL     1      46.438   2.338   7.630  0.00  0.00    +0.000 A 
ATOM      6  C   UNL     1      46.269   3.658   7.241  0.00  0.00    +0.000 A 
ATOM      7  N   UNL     1      45.574   4.575   7.960  0.00  0.00    +0.000 NA
ATOM      8  H   UNL     1      44.459   6.054   9.316  0.00  0.00    +0.000 HD
ENDROOT
BRANCH   5   9
ATOM      9  C   UNL     1      47.228   1.436   6.768  0.00  0.00    +0.000 C 
ATOM     10  N   UNL     1      48.218   1.993   6.007  0.00  0.00    +0.000 N 
ATOM     11  O   UNL     1      47.023   0.229   6.750  0.00  0.00    +0.000 OA
ATOM     12  H   UNL     1      48.575   2.925   6.164  0.00  0.00    +0.000 HD
ATOM     13  H   UNL     1      48.805   1.347   5.493  0.00  0.00    +0.000 HD
ENDBRANCH   5   9
BRANCH   1  14
ATOM     14  C   UNL     1      44.003   5.173  11.238  0.00  0.00    +0.000 C 
ATOM     15  C   UNL     1      42.572   5.352  11.702  0.00  0.00    +0.000 C 
ATOM     16  C   UNL     1      43.177   3.986  11.724  0.00  0.00    +0.000 C 
BRANCH  14  19
ATOM     17  C   UNL     1      46.892   4.916  13.763  0.00  0.00    +0.000 A 
ATOM     18  C   UNL     1      45.795   4.616  12.947  0.00  0.00    +0.000 A 
ATOM     19  C   UNL     1      45.170   5.584  12.136  0.00  0.00    +0.000 A 
ATOM     20  C   UNL     1      45.682   6.891  12.190  0.00  0.00    +0.000 A 
ATOM     21  C   UNL     1      46.754   7.219  13.026  0.00  0.00    +0.000 A 
ATOM     22  C   UNL     1      47.354   6.235  13.814  0.00  0.00    +0.000 A 
ATOM     23 CL   UNL     1      48.685   6.691  14.817  0.00  0.00    +0.000 Cl
BRANCH  17  25
ATOM     24  C   UNL     1      47.212   4.037  15.934  0.00  0.00    +0.000 C 
ATOM     25  O   UNL     1      47.523   3.981  14.544  0.00  0.00    +0.000 OA
ENDBRANCH  17  25
ENDBRANCH  14  19
ENDBRANCH   1  14
TORSDOF 4
ENDMDL
MODEL 2
REMARK VINA RESULT:    -8.837      1.060      1.910
REMARK INTER + INTRA:         -10.352
REMARK INTER:                 -10.475
REMARK INTRA:                   0.124
REMARK UNBOUND:                 0.552
REMARK  Name = 
REMARK  5 active torsions:
REMARK  status: ('A' for Active; 'I' for Inactive)
REMARK    1  A    between atoms: C_1  and  O_2
REMARK    2  A    between atoms: O_2  and  C_3
REMARK    3  A    between atoms: C_5  and  C_6
REMARK    4  A    between atoms: C_6  and  N_7
REMARK    5  A    between atoms: C_11  and  C_12
REMARK                            x       y       z     vdW  Elec       q    Type
REMARK                         _______ _______ _______ _____ _____    ______ ____
ROOT
ATOM      1  N   UNL     1      44.369   5.187   9.832  0.00  0.00    +0.000 N 
ATOM      2  C   UNL     1      45.072   4.198   9.152  0.00  0.00    +0.000 A 
ATOM      3  C   UNL     1      45.106   2.866   9.549  0.00  0.00    +0.000 A 
ATOM      4  C   UNL     1      45.824   1.937   8.790  0.00  0.00    +0.000 A 
ATOM      5  C   UNL     1      46.491   2.365   7.645  0.00  0.00    +0.000 A 
ATOM      6  C   UNL     1      46.409   3.710   7.319  0.00  0.00    +0.000 A 
ATOM      7  N   UNL     1      45.711   4.621   8.040  0.00  0.00    +0.000 NA
ATOM      8  H   UNL     1      44.576   6.082   9.400  0.00  0.00    +0.000 HD
ENDROOT
BRANCH   5   9
ATOM      9  C   UNL     1      47.295   1.470   6.788  0.00  0.00    +0.000 C 
ATOM     10  N   UNL     1      48.333   2.025   6.091  0.00  0.00    +0.000 N 
ATOM     11  O   UNL     1      47.058   0.271   6.718  0.00  0.00    +0.000 OA
ATOM     12  H   UNL     1      48.707   2.940   6.296  0.00  0.00    +0.000 HD
ATOM     13  H   UNL     1      48.925   1.380   5.581  0.00  0.00    +0.000 HD
ENDBRANCH   5   9
BRANCH   1  14
ATOM     14  C   UNL     1      43.953   5.127  11.239  0.00  0.00    +0.000 C 
ATOM     15  C   UNL     1      42.527   5.454  11.629  0.00  0.00    +0.000 C 
ATOM     16  C   UNL     1      42.957   4.024  11.583  0.00  0.00    +0.000 C 
BRANCH  14  19
ATOM     17  C   UNL     1      46.675   6.862  13.330  0.00  0.00    +0.000 A 
ATOM     18  C   UNL     1      45.652   6.606  12.409  0.00  0.00    +0.000 A 
ATOM     19  C   UNL     1      45.098   5.323  12.233  0.00  0.00    +0.000 A 
ATOM     20  C   UNL     1      45.633   4.282  13.011  0.00  0.00    +0.000 A 
ATOM     21  C   UNL     1      46.680   4.510  13.909  0.00  0.00    +0.000 A 
ATOM     22  C   UNL     1      47.203   5.795  14.064  0.00  0.00    +0.000 A 
ATOM     23 CL   UNL     1      48.486   6.024  15.199  0.00  0.00    +0.000 Cl
BRANCH  17  25
ATOM     24  C   UNL     1      46.775   9.112  12.613  0.00  0.00    +0.000 C 
ATOM     25  O   UNL     1      47.211   8.109  13.526  0.00  0.00    +0.000 OA
ENDBRANCH  17  25
ENDBRANCH  14  19
ENDBRANCH   1  14
TORSDOF 4
ENDMDL
MODEL 3
REMARK VINA RESULT:    -7.294      3.253      6.918
REMARK INTER + INTRA:          -8.447
REMARK INTER:                  -9.197
REMARK INTRA:                   0.750
REMARK UNBOUND:                 0.552
REMARK  Name = 
REMARK  5 active torsions:
REMARK  status: ('A' for Active; 'I' for Inactive)
REMARK    1  A    between atoms: C_1  and  O_2
REMARK    2  A    between atoms: O_2  and  C_3
REMARK    3  A    between atoms: C_5  and  C_6
REMARK    4  A    between atoms: C_6  and  N_7
REMARK    5  A    between atoms: C_11  and  C_12
REMARK                            x       y       z     vdW  Elec       q    Type
REMARK                         _______ _______ _______ _____ _____    ______ ____
ROOT
ATOM      1  N   UNL     1      44.662   6.007  11.253  0.00  0.00    +0.000 N 
ATOM      2  C   UNL     1      45.610   6.592  12.086  0.00  0.00    +0.000 A 
ATOM      3  C   UNL     1      46.756   5.938  12.525  0.00  0.00    +0.000 A 
ATOM      4  C   UNL     1      47.665   6.613  13.345  0.00  0.00    +0.000 A 
ATOM      5  C   UNL     1      47.405   7.933  13.705  0.00  0.00    +0.000 A 
ATOM      6  C   UNL     1      46.240   8.512  13.226  0.00  0.00    +0.000 A 
ATOM      7  N   UNL     1      45.353   7.873  12.424  0.00  0.00    +0.000 NA
ATOM      8  H   UNL     1      43.883   6.650  11.153  0.00  0.00    +0.000 HD
ENDROOT
BRANCH   5   9
ATOM      9  C   UNL     1      48.287   8.727  14.584  0.00  0.00    +0.000 C 
ATOM     10  N   UNL     1      47.731   9.287  15.702  0.00  0.00    +0.000 N 
ATOM     11  O   UNL     1      49.479   8.864  14.338  0.00  0.00    +0.000 OA
ATOM     12  H   UNL     1      46.831   9.011  16.065  0.00  0.00    +0.000 HD
ATOM     13  H   UNL     1      48.371   9.751  16.335  0.00  0.00    +0.000 HD
ENDBRANCH   5   9
BRANCH   1  14
ATOM     14  C   UNL     1      44.453   4.565  11.074  0.00  0.00    +0.000 C 
ATOM     15  C   UNL     1      44.171   3.679  12.270  0.00  0.00    +0.000 C 
ATOM     16  C   UNL     1      43.042   4.064  11.370  0.00  0.00    +0.000 C 
BRANCH  14  19
ATOM     17  C   UNL     1      45.725   2.010   8.496  0.00  0.00    +0.000 A 
ATOM     18  C   UNL     1      45.171   2.598   9.640  0.00  0.00    +0.000 A 
ATOM     19  C   UNL     1      45.111   3.994   9.818  0.00  0.00    +0.000 A 
ATOM     20  C   UNL     1      45.656   4.793   8.799  0.00  0.00    +0.000 A 
ATOM     21  C   UNL     1      46.247   4.225   7.666  0.00  0.00    +0.000 A 
ATOM     22  C   UNL     1      46.286   2.838   7.518  0.00  0.00    +0.000 A 
ATOM     23 CL   UNL     1      47.013   2.189   6.091  0.00  0.00    +0.000 Cl
BRANCH  17  25
ATOM     24  C   UNL     1      46.959   0.170   7.672  0.00  0.00    +0.000 C 
ATOM     25  O   UNL     1      45.774   0.653   8.300  0.00  0.00    +0.000 OA
ENDBRANCH  17  25
ENDBRANCH  14  19
ENDBRANCH   1  14
TORSDOF 4
ENDMDL
MODEL 4
REMARK VINA RESULT:    -6.752      3.995      6.719
REMARK INTER + INTRA:          -7.778
REMARK INTER:                  -7.559
REMARK INTRA:                  -0.219
REMARK UNBOUND:                 0.552
REMARK  Name = 
REMARK  5 active torsions:
REMARK  status: ('A' for Active; 'I' for Inactive)
REMARK    1  A    between atoms: C_1  and  O_2
REMARK    2  A    between atoms: O_2  and  C_3
REMARK    3  A    between atoms: C_5  and  C_6
REMARK    4  A    between atoms: C_6  and  N_7
REMARK    5  A    between atoms: C_11  and  C_12
REMARK                            x       y       z     vdW  Elec       q    Type
REMARK                         _______ _______ _______ _____ _____    ______ ____
ROOT
ATOM      1  N   UNL     1      47.559   3.005  15.338  0.00  0.00    +0.000 N 
ATOM      2  C   UNL     1      47.053   3.866  14.368  0.00  0.00    +0.000 A 
ATOM      3  C   UNL     1      47.245   5.242  14.386  0.00  0.00    +0.000 A 
ATOM      4  C   UNL     1      46.716   6.027  13.358  0.00  0.00    +0.000 A 
ATOM      5  C   UNL     1      46.007   5.411  12.329  0.00  0.00    +0.000 A 
ATOM      6  C   UNL     1      45.859   4.034  12.386  0.00  0.00    +0.000 A 
ATOM      7  N   UNL     1      46.373   3.259  13.373  0.00  0.00    +0.000 NA
ATOM      8  H   UNL     1      47.207   2.071  15.152  0.00  0.00    +0.000 HD
ENDROOT
BRANCH   5   9
ATOM      9  C   UNL     1      45.389   6.150  11.209  0.00  0.00    +0.000 C 
ATOM     10  N   UNL     1      45.276   5.503  10.009  0.00  0.00    +0.000 N 
ATOM     11  O   UNL     1      44.971   7.292  11.351  0.00  0.00    +0.000 OA
ATOM     12  H   UNL     1      45.385   4.504   9.909  0.00  0.00    +0.000 HD
ATOM     13  H   UNL     1      44.770   5.994   9.281  0.00  0.00    +0.000 HD
ENDBRANCH   5   9
BRANCH   1  14
ATOM     14  C   UNL     1      47.950   3.386  16.700  0.00  0.00    +0.000 C 
ATOM     15  C   UNL     1      47.174   4.449  17.450  0.00  0.00    +0.000 C 
ATOM     16  C   UNL     1      46.958   3.012  17.797  0.00  0.00    +0.000 C 
BRANCH  14  19
ATOM     17  C   UNL     1      51.601   4.029  17.724  0.00  0.00    +0.000 A 
ATOM     18  C   UNL     1      50.255   4.203  17.382  0.00  0.00    +0.000 A 
ATOM     19  C   UNL     1      49.423   3.126  17.018  0.00  0.00    +0.000 A 
ATOM     20  C   UNL     1      50.007   1.848  16.987  0.00  0.00    +0.000 A 
ATOM     21  C   UNL     1      51.359   1.658  17.288  0.00  0.00    +0.000 A 
ATOM     22  C   UNL     1      52.154   2.746  17.650  0.00  0.00    +0.000 A 
ATOM     23 CL   UNL     1      53.815   2.453  18.028  0.00  0.00    +0.000 Cl
BRANCH  17  25
ATOM     24  C   UNL     1      52.701   6.019  17.078  0.00  0.00    +0.000 C 
ATOM     25  O   UNL     1      52.419   5.064  18.098  0.00  0.00    +0.000 OA
ENDBRANCH  17  25
ENDBRANCH  14  19
ENDBRANCH   1  14
TORSDOF 4
ENDMDL
MODEL 5
REMARK VINA RESULT:    -6.680      3.890      7.202
REMARK INTER + INTRA:          -7.690
REMARK INTER:                  -7.399
REMARK INTRA:                  -0.291
REMARK UNBOUND:                 0.552
REMARK  Name = 
REMARK  5 active torsions:
REMARK  status: ('A' for Active; 'I' for Inactive)
REMARK    1  A    between atoms: C_1  and  O_2
REMARK    2  A    between atoms: O_2  and  C_3
REMARK    3  A    between atoms: C_5  and  C_6
REMARK    4  A    between atoms: C_6  and  N_7
REMARK    5  A    between atoms: C_11  and  C_12
REMARK                            x       y       z     vdW  Elec       q    Type
REMARK                         _______ _______ _______ _____ _____    ______ ____
ROOT
ATOM      1  N   UNL     1      47.175   7.029  11.539  0.00  0.00    +0.000 N 
ATOM      2  C   UNL     1      48.053   7.108  12.615  0.00  0.00    +0.000 A 
ATOM      3  C   UNL     1      47.859   6.439  13.817  0.00  0.00    +0.000 A 
ATOM      4  C   UNL     1      48.806   6.561  14.837  0.00  0.00    +0.000 A 
ATOM      5  C   UNL     1      49.933   7.351  14.627  0.00  0.00    +0.000 A 
ATOM      6  C   UNL     1      50.052   7.987  13.400  0.00  0.00    +0.000 A 
ATOM      7  N   UNL     1      49.145   7.872  12.399  0.00  0.00    +0.000 NA
ATOM      8  H   UNL     1      47.489   7.675  10.821  0.00  0.00    +0.000 HD
ENDROOT
BRANCH   5   9
ATOM      9  C   UNL     1      50.982   7.565  15.646  0.00  0.00    +0.000 C 
ATOM     10  N   UNL     1      52.271   7.268  15.300  0.00  0.00    +0.000 N 
ATOM     11  O   UNL     1      50.713   8.012  16.753  0.00  0.00    +0.000 OA
ATOM     12  H   UNL     1      52.566   7.127  14.345  0.00  0.00    +0.000 HD
ATOM     13  H   UNL     1      52.983   7.506  15.981  0.00  0.00    +0.000 HD
ENDBRANCH   5   9
BRANCH   1  14
ATOM     14  C   UNL     1      45.760   6.647  11.615  0.00  0.00    +0.000 C 
ATOM     15  C   UNL     1      44.886   7.169  12.737  0.00  0.00    +0.000 C 
ATOM     16  C   UNL     1      44.760   7.776  11.378  0.00  0.00    +0.000 C 
BRANCH  14  19
ATOM     17  C   UNL     1      45.356   4.006   8.849  0.00  0.00    +0.000 A 
ATOM     18  C   UNL     1      45.595   5.203   9.534  0.00  0.00    +0.000 A 
ATOM     19  C   UNL     1      45.438   5.319  10.930  0.00  0.00    +0.000 A 
ATOM     20  C   UNL     1      45.004   4.176  11.622  0.00  0.00    +0.000 A 
ATOM     21  C   UNL     1      44.724   2.982  10.951  0.00  0.00    +0.000 A 
ATOM     22  C   UNL     1      44.894   2.898   9.569  0.00  0.00    +0.000 A 
ATOM     23 CL   UNL     1      44.549   1.394   8.792  0.00  0.00    +0.000 Cl
BRANCH  17  25
ATOM     24  C   UNL     1      46.846   3.561   7.069  0.00  0.00    +0.000 C 
ATOM     25  O   UNL     1      45.521   3.872   7.494  0.00  0.00    +0.000 OA
ENDBRANCH  17  25
ENDBRANCH  14  19
ENDBRANCH   1  14
TORSDOF 4
ENDMDL
MODEL 6
REMARK VINA RESULT:    -6.552      3.604      5.203
REMARK INTER + INTRA:          -7.532
REMARK INTER:                  -6.940
REMARK INTRA:                  -0.592
REMARK UNBOUND:                 0.552
REMARK  Name = 
REMARK  5 active torsions:
REMARK  status: ('A' for Active; 'I' for Inactive)
REMARK    1  A    between atoms: C_1  and  O_2
REMARK    2  A    between atoms: O_2  and  C_3
REMARK    3  A    between atoms: C_5  and  C_6
REMARK    4  A    between atoms: C_6  and  N_7
REMARK    5  A    between atoms: C_11  and  C_12
REMARK                            x       y       z     vdW  Elec       q    Type
REMARK                         _______ _______ _______ _____ _____    ______ ____
ROOT
ATOM      1  N   UNL     1      47.105   7.868  12.384  0.00  0.00    +0.000 N 
ATOM      2  C   UNL     1      46.370   6.693  12.264  0.00  0.00    +0.000 A 
ATOM      3  C   UNL     1      46.651   5.533  12.976  0.00  0.00    +0.000 A 
ATOM      4  C   UNL     1      45.844   4.404  12.805  0.00  0.00    +0.000 A 
ATOM      5  C   UNL     1      44.769   4.465  11.922  0.00  0.00    +0.000 A 
ATOM      6  C   UNL     1      44.557   5.659  11.249  0.00  0.00    +0.000 A 
ATOM      7  N   UNL     1      45.326   6.764  11.411  0.00  0.00    +0.000 NA
ATOM      8  H   UNL     1      46.761   8.532  11.699  0.00  0.00    +0.000 HD
ENDROOT
BRANCH   5   9
ATOM      9  C   UNL     1      43.870   3.324  11.652  0.00  0.00    +0.000 C 
ATOM     10  N   UNL     1      43.696   2.404  12.649  0.00  0.00    +0.000 N 
ATOM     11  O   UNL     1      43.283   3.214  10.583  0.00  0.00    +0.000 OA
ATOM     12  H   UNL     1      43.964   2.574  13.607  0.00  0.00    +0.000 HD
ATOM     13  H   UNL     1      43.008   1.681  12.475  0.00  0.00    +0.000 HD
ENDBRANCH   5   9
BRANCH   1  14
ATOM     14  C   UNL     1      48.483   7.968  12.880  0.00  0.00    +0.000 C 
ATOM     15  C   UNL     1      49.637   7.458  12.041  0.00  0.00    +0.000 C 
ATOM     16  C   UNL     1      49.388   8.929  12.114  0.00  0.00    +0.000 C 
BRANCH  14  19
ATOM     17  C   UNL     1      49.337   6.947  16.488  0.00  0.00    +0.000 A 
ATOM     18  C   UNL     1      49.172   6.944  15.097  0.00  0.00    +0.000 A 
ATOM     19  C   UNL     1      48.592   8.024  14.404  0.00  0.00    +0.000 A 
ATOM     20  C   UNL     1      48.156   9.117  15.171  0.00  0.00    +0.000 A 
ATOM     21  C   UNL     1      48.278   9.124  16.563  0.00  0.00    +0.000 A 
ATOM     22  C   UNL     1      48.863   8.040  17.220  0.00  0.00    +0.000 A 
ATOM     23 CL   UNL     1      49.003   8.107  18.941  0.00  0.00    +0.000 Cl
BRANCH  17  25
ATOM     24  C   UNL     1      49.107   4.748  17.324  0.00  0.00    +0.000 C 
ATOM     25  O   UNL     1      49.917   5.911  17.176  0.00  0.00    +0.000 OA
ENDBRANCH  17  25
ENDBRANCH  14  19
ENDBRANCH   1  14
TORSDOF 4
ENDMDL
MODEL 7
REMARK VINA RESULT:    -6.226      3.949      5.551
REMARK INTER + INTRA:          -7.130
REMARK INTER:                  -6.797
REMARK INTRA:                  -0.333
REMARK UNBOUND:                 0.552
REMARK  Name = 
REMARK  5 active torsions:
REMARK  status: ('A' for Active; 'I' for Inactive)
REMARK    1  A    between atoms: C_1  and  O_2
REMARK    2  A    between atoms: O_2  and  C_3
REMARK    3  A    between atoms: C_5  and  C_6
REMARK    4  A    between atoms: C_6  and  N_7
REMARK    5  A    between atoms: C_11  and  C_12
REMARK                            x       y       z     vdW  Elec       q    Type
REMARK                         _______ _______ _______ _____ _____    ______ ____
ROOT
ATOM      1  N   UNL     1      47.568   6.695  13.184  0.00  0.00    +0.000 N 
ATOM      2  C   UNL     1      46.673   5.836  12.555  0.00  0.00    +0.000 A 
ATOM      3  C   UNL     1      45.920   6.190  11.441  0.00  0.00    +0.000 A 
ATOM      4  C   UNL     1      45.060   5.252  10.862  0.00  0.00    +0.000 A 
ATOM      5  C   UNL     1      44.976   3.976  11.413  0.00  0.00    +0.000 A 
ATOM      6  C   UNL     1      45.758   3.703  12.525  0.00  0.00    +0.000 A 
ATOM      7  N   UNL     1      46.602   4.600  13.092  0.00  0.00    +0.000 NA
ATOM      8  H   UNL     1      47.919   6.237  14.019  0.00  0.00    +0.000 HD
ENDROOT
BRANCH   5   9
ATOM      9  C   UNL     1      44.082   2.921  10.893  0.00  0.00    +0.000 C 
ATOM     10  N   UNL     1      44.535   2.167   9.845  0.00  0.00    +0.000 N 
ATOM     11  O   UNL     1      42.985   2.710  11.393  0.00  0.00    +0.000 OA
ATOM     12  H   UNL     1      45.504   2.144   9.561  0.00  0.00    +0.000 HD
ATOM     13  H   UNL     1      43.946   1.392   9.563  0.00  0.00    +0.000 HD
ENDBRANCH   5   9
BRANCH   1  14
ATOM     14  C   UNL     1      47.548   8.161  13.103  0.00  0.00    +0.000 C 
ATOM     15  C   UNL     1      46.244   8.917  13.246  0.00  0.00    +0.000 C 
ATOM     16  C   UNL     1      47.194   8.886  14.398  0.00  0.00    +0.000 C 
BRANCH  14  19
ATOM     17  C   UNL     1      50.974   8.467  11.382  0.00  0.00    +0.000 A 
ATOM     18  C   UNL     1      49.888   8.000  12.133  0.00  0.00    +0.000 A 
ATOM     19  C   UNL     1      48.710   8.753  12.305  0.00  0.00    +0.000 A 
ATOM     20  C   UNL     1      48.668  10.023  11.705  0.00  0.00    +0.000 A 
ATOM     21  C   UNL     1      49.756  10.522  10.982  0.00  0.00    +0.000 A 
ATOM     22  C   UNL     1      50.907   9.749  10.825  0.00  0.00    +0.000 A 
ATOM     23 CL   UNL     1      52.216  10.408   9.910  0.00  0.00    +0.000 Cl
BRANCH  17  25
ATOM     24  C   UNL     1      52.163   6.974   9.988  0.00  0.00    +0.000 C 
ATOM     25  O   UNL     1      52.120   7.738  11.190  0.00  0.00    +0.000 OA
ENDBRANCH  17  25
ENDBRANCH  14  19
ENDBRANCH   1  14
TORSDOF 4
ENDMDL
MODEL 8
REMARK VINA RESULT:    -6.107      4.255      5.921
REMARK INTER + INTRA:          -6.983
REMARK INTER:                  -6.350
REMARK INTRA:                  -0.633
REMARK UNBOUND:                 0.552
REMARK  Name = 
REMARK  5 active torsions:
REMARK  status: ('A' for Active; 'I' for Inactive)
REMARK    1  A    between atoms: C_1  and  O_2
REMARK    2  A    between atoms: O_2  and  C_3
REMARK    3  A    between atoms: C_5  and  C_6
REMARK    4  A    between atoms: C_6  and  N_7
REMARK    5  A    between atoms: C_11  and  C_12
REMARK                            x       y       z     vdW  Elec       q    Type
REMARK                         _______ _______ _______ _____ _____    ______ ____
ROOT
ATOM      1  N   UNL     1      47.441   8.652  13.294  0.00  0.00    +0.000 N 
ATOM      2  C   UNL     1      46.417   7.838  12.821  0.00  0.00    +0.000 A 
ATOM      3  C   UNL     1      46.258   6.507  13.191  0.00  0.00    +0.000 A 
ATOM      4  C   UNL     1      45.186   5.771  12.679  0.00  0.00    +0.000 A 
ATOM      5  C   UNL     1      44.292   6.388  11.806  0.00  0.00    +0.000 A 
ATOM      6  C   UNL     1      44.522   7.717  11.486  0.00  0.00    +0.000 A 
ATOM      7  N   UNL     1      45.553   8.446  11.980  0.00  0.00    +0.000 NA
ATOM      8  H   UNL     1      47.392   9.542  12.809  0.00  0.00    +0.000 HD
ENDROOT
BRANCH   5   9
ATOM      9  C   UNL     1      43.142   5.694  11.192  0.00  0.00    +0.000 C 
ATOM     10  N   UNL     1      41.903   5.933  11.719  0.00  0.00    +0.000 N 
ATOM     11  O   UNL     1      43.285   4.949  10.231  0.00  0.00    +0.000 OA
ATOM     12  H   UNL     1      41.709   6.704  12.342  0.00  0.00    +0.000 HD
ATOM     13  H   UNL     1      41.120   5.518  11.228  0.00  0.00    +0.000 HD
ENDBRANCH   5   9
BRANCH   1  14
ATOM     14  C   UNL     1      48.716   8.186  13.853  0.00  0.00    +0.000 C 
ATOM     15  C   UNL     1      49.734   7.502  12.965  0.00  0.00    +0.000 C 
ATOM     16  C   UNL     1      49.957   8.925  13.360  0.00  0.00    +0.000 C 
BRANCH  14  19
ATOM     17  C   UNL     1      48.960   6.269  17.177  0.00  0.00    +0.000 A 
ATOM     18  C   UNL     1      48.950   6.595  15.816  0.00  0.00    +0.000 A 
ATOM     19  C   UNL     1      48.666   7.894  15.353  0.00  0.00    +0.000 A 
ATOM     20  C   UNL     1      48.366   8.868  16.320  0.00  0.00    +0.000 A 
ATOM     21  C   UNL     1      48.335   8.554  17.683  0.00  0.00    +0.000 A 
ATOM     22  C   UNL     1      48.626   7.258  18.109  0.00  0.00    +0.000 A 
ATOM     23 CL   UNL     1      48.589   6.928  19.805  0.00  0.00    +0.000 Cl
BRANCH  17  25
ATOM     24  C   UNL     1      48.508   3.952  17.053  0.00  0.00    +0.000 C 
ATOM     25  O   UNL     1      49.253   5.013  17.645  0.00  0.00    +0.000 OA
ENDBRANCH  17  25
ENDBRANCH  14  19
ENDBRANCH   1  14
TORSDOF 4
ENDMDL
MODEL 9
REMARK VINA RESULT:    -5.941      4.368      7.090
REMARK INTER + INTRA:          -6.778
REMARK INTER:                  -6.314
REMARK INTRA:                  -0.464
REMARK UNBOUND:                 0.552
REMARK  Name = 
REMARK  5 active torsions:
REMARK  status: ('A' for Active; 'I' for Inactive)
REMARK    1  A    between atoms: C_1  and  O_2
REMARK    2  A    between atoms: O_2  and  C_3
REMARK    3  A    between atoms: C_5  and  C_6
REMARK    4  A    between atoms: C_6  and  N_7
REMARK    5  A    between atoms: C_11  and  C_12
REMARK                            x       y       z     vdW  Elec       q    Type
REMARK                         _______ _______ _______ _____ _____    ______ ____
ROOT
ATOM      1  N   UNL     1      47.943   4.327  16.504  0.00  0.00    +0.000 N 
ATOM      2  C   UNL     1      47.447   4.792  15.290  0.00  0.00    +0.000 A 
ATOM      3  C   UNL     1      47.916   5.936  14.655  0.00  0.00    +0.000 A 
ATOM      4  C   UNL     1      47.371   6.317  13.426  0.00  0.00    +0.000 A 
ATOM      5  C   UNL     1      46.367   5.539  12.857  0.00  0.00    +0.000 A 
ATOM      6  C   UNL     1      45.953   4.414  13.555  0.00  0.00    +0.000 A 
ATOM      7  N   UNL     1      46.478   4.028  14.744  0.00  0.00    +0.000 NA
ATOM      8  H   UNL     1      47.378   3.536  16.798  0.00  0.00    +0.000 HD
ENDROOT
BRANCH   5   9
ATOM      9  C   UNL     1      45.709   5.865  11.575  0.00  0.00    +0.000 C 
ATOM     10  N   UNL     1      45.247   4.825  10.817  0.00  0.00    +0.000 N 
ATOM     11  O   UNL     1      45.561   7.024  11.211  0.00  0.00    +0.000 OA
ATOM     12  H   UNL     1      45.134   3.888  11.178  0.00  0.00    +0.000 HD
ATOM     13  H   UNL     1      44.721   5.074   9.988  0.00  0.00    +0.000 HD
ENDBRANCH   5   9
BRANCH   1  14
ATOM     14  C   UNL     1      48.659   5.131  17.501  0.00  0.00    +0.000 C 
ATOM     15  C   UNL     1      48.048   6.411  18.033  0.00  0.00    +0.000 C 
ATOM     16  C   UNL     1      48.018   5.184  18.885  0.00  0.00    +0.000 C 
BRANCH  14  19
ATOM     17  C   UNL     1      52.107   3.477  17.904  0.00  0.00    +0.000 A 
ATOM     18  C   UNL     1      50.731   3.731  17.935  0.00  0.00    +0.000 A 
ATOM     19  C   UNL     1      50.176   4.942  17.477  0.00  0.00    +0.000 A 
ATOM     20  C   UNL     1      51.069   5.916  16.999  0.00  0.00    +0.000 A 
ATOM     21  C   UNL     1      52.450   5.696  16.995  0.00  0.00    +0.000 A 
ATOM     22  C   UNL     1      52.968   4.483  17.450  0.00  0.00    +0.000 A 
ATOM     23 CL   UNL     1      54.681   4.258  17.409  0.00  0.00    +0.000 Cl
BRANCH  17  25
ATOM     24  C   UNL     1      52.374   1.161  17.518  0.00  0.00    +0.000 C 
ATOM     25  O   UNL     1      52.661   2.297  18.329  0.00  0.00    +0.000 OA
ENDBRANCH  17  25
ENDBRANCH  14  19
ENDBRANCH   1  14
TORSDOF 4
ENDMDL
