MODEL 1
REMARK VINA RESULT:    -7.498      0.000      0.000
REMARK INTER + INTRA:         -11.588
REMARK INTER:                 -10.566
REMARK INTRA:                  -1.022
REMARK UNBOUND:                -1.022
REMARK  Name = 
REMARK  9 active torsions:
REMARK  status: ('A' for Active; 'I' for Inactive)
REMARK    1  A    between atoms: C_1  and  O_2
REMARK    2  A    between atoms: O_2  and  C_3
REMARK    3  A    between atoms: C_7  and  C_8
REMARK    4  A    between atoms: N_10  and  C_11
REMARK    5  A    between atoms: C_11  and  C_12
REMARK    6  A    between atoms: C_15  and  C_16
REMARK    7  A    between atoms: C_16  and  C_17
REMARK    8  A    between atoms: C_16  and  N_18
REMARK    9  A    between atoms: C_19  and  C_21
REMARK                            x       y       z     vdW  Elec       q    Type
REMARK                         _______ _______ _______ _____ _____    ______ ____
ROOT
ATOM      1  C   UNL     1      45.023   5.408  11.579  0.00  0.00    +0.000 A 
ATOM      2  C   UNL     1      45.171   6.796  11.502  0.00  0.00    +0.000 A 
ATOM      3  C   UNL     1      46.085   7.465  12.324  0.00  0.00    +0.000 A 
ATOM      4  C   UNL     1      46.890   6.770  13.243  0.00  0.00    +0.000 A 
ATOM      5  C   UNL     1      46.728   5.376  13.319  0.00  0.00    +0.000 A 
ATOM      6  C   UNL     1      45.813   4.705  12.497  0.00  0.00    +0.000 A 
ENDROOT
BRANCH   4   7
ATOM      7  C   UNL     1      47.956   7.454  14.102  0.00  0.00    +0.000 C 
ATOM      8  C   UNL     1      47.830   8.982  14.136  0.00  0.00    +0.000 C 
BRANCH   7   9
ATOM      9  N   UNL     1      47.953   6.921  15.458  0.00  0.00    +0.000 N 
ATOM     10  C   UNL     1      49.085   6.461  16.086  0.00  0.00    +0.000 C 
ATOM     11  O   UNL     1      50.180   6.443  15.533  0.00  0.00    +0.000 OA
ATOM     12  H   UNL     1      47.047   6.776  15.890  0.00  0.00    +0.000 HD
BRANCH  10  13
ATOM     13  C   UNL     1      48.934   6.026  17.485  0.00  0.00    +0.000 A 
ATOM     14  C   UNL     1      49.271   4.732  17.851  0.00  0.00    +0.000 A 
ATOM     15  S   UNL     1      49.033   4.403  19.509  0.00  0.00    +0.000 S 
ATOM     16  C   UNL     1      48.428   5.968  19.788  0.00  0.00    +0.000 A 
ATOM     17  N   UNL     1      47.989   6.343  21.020  0.00  0.00    +0.000 NA
ATOM     18  C   UNL     1      47.530   7.549  21.079  0.00  0.00    +0.000 A 
ATOM     19  N   UNL     1      47.483   8.419  20.021  0.00  0.00    +0.000 N 
ATOM     20  C   UNL     1      47.956   8.100  18.775  0.00  0.00    +0.000 A 
ATOM     21  O   UNL     1      47.977   8.933  17.873  0.00  0.00    +0.000 OA
ATOM     22  C   UNL     1      48.446   6.742  18.638  0.00  0.00    +0.000 A 
ATOM     23  H   UNL     1      47.142   9.360  20.140  0.00  0.00    +0.000 HD
ENDBRANCH  10  13
ENDBRANCH   7   9
ENDBRANCH   4   7
BRANCH   1  24
ATOM     24  C   UNL     1      44.053   4.695  10.675  0.00  0.00    +0.000 C 
BRANCH  24  27
ATOM     25  C   UNL     1      45.544   4.321   8.747  0.00  0.00    +0.000 C 
ATOM     26  O   UNL     1      45.790   5.515   8.594  0.00  0.00    +0.000 OA
ATOM     27  N   UNL     1      44.718   3.828   9.737  0.00  0.00    +0.000 N 
ATOM     28  H   UNL     1      44.573   2.822   9.767  0.00  0.00    +0.000 HD
BRANCH  25  33
ATOM     29  C   UNL     1      46.718   1.073   7.566  0.00  0.00    +0.000 A 
ATOM     30  C   UNL     1      47.159   1.297   6.274  0.00  0.00    +0.000 A 
ATOM     31  C   UNL     1      47.082   2.591   5.761  0.00  0.00    +0.000 A 
ATOM     32  C   UNL     1      46.557   3.607   6.557  0.00  0.00    +0.000 A 
ATOM     33  C   UNL     1      46.139   3.284   7.843  0.00  0.00    +0.000 A 
ATOM     34  N   UNL     1      46.215   2.035   8.367  0.00  0.00    +0.000 NA
BRANCH  29  36
ATOM     35  C   UNL     1      46.429  -1.178   7.049  0.00  0.00    +0.000 C 
ATOM     36  O   UNL     1      46.786  -0.219   8.044  0.00  0.00    +0.000 OA
ENDBRANCH  29  36
ENDBRANCH  25  33
ENDBRANCH  24  27
ENDBRANCH   1  24
TORSDOF 7
ENDMDL
MODEL 2
REMARK VINA RESULT:    -7.345      5.751     10.200
REMARK INTER + INTRA:         -11.373
REMARK INTER:                 -10.332
REMARK INTRA:                  -1.041
REMARK UNBOUND:                -1.022
REMARK  Name = 
REMARK  9 active torsions:
REMARK  status: ('A' for Active; 'I' for Inactive)
REMARK    1  A    between atoms: C_1  and  O_2
REMARK    2  A    between atoms: O_2  and  C_3
REMARK    3  A    between atoms: C_7  and  C_8
REMARK    4  A    between atoms: N_10  and  C_11
REMARK    5  A    between atoms: C_11  and  C_12
REMARK    6  A    between atoms: C_15  and  C_16
REMARK    7  A    between atoms: C_16  and  C_17
REMARK    8  A    between atoms: C_16  and  N_18
REMARK    9  A    between atoms: C_19  and  C_21
REMARK                            x       y       z     vdW  Elec       q    Type
REMARK                         _______ _______ _______ _____ _____    ______ ____
ROOT
ATOM      1  C   UNL     1      51.877   3.045  17.745  0.00  0.00    +0.000 A 
ATOM      2  C   UNL     1      51.452   4.365  17.910  0.00  0.00    +0.000 A 
ATOM      3  C   UNL     1      50.114   4.718  17.700  0.00  0.00    +0.000 A 
ATOM      4  C   UNL     1      49.153   3.763  17.328  0.00  0.00    +0.000 A 
ATOM      5  C   UNL     1      49.591   2.439  17.157  0.00  0.00    +0.000 A 
ATOM      6  C   UNL     1      50.931   2.084  17.366  0.00  0.00    +0.000 A 
ENDROOT
BRANCH   4   7
ATOM      7  C   UNL     1      47.667   4.092  17.167  0.00  0.00    +0.000 C 
ATOM      8  C   UNL     1      47.055   4.781  18.394  0.00  0.00    +0.000 C 
BRANCH   7   9
ATOM      9  N   UNL     1      47.439   4.898  15.975  0.00  0.00    +0.000 N 
ATOM     10  C   UNL     1      47.296   4.358  14.720  0.00  0.00    +0.000 C 
ATOM     11  O   UNL     1      47.378   3.151  14.513  0.00  0.00    +0.000 OA
ATOM     12  H   UNL     1      47.519   5.904  16.081  0.00  0.00    +0.000 HD
BRANCH  10  13
ATOM     13  C   UNL     1      46.992   5.297  13.627  0.00  0.00    +0.000 A 
ATOM     14  C   UNL     1      47.966   6.172  13.171  0.00  0.00    +0.000 A 
ATOM     15  S   UNL     1      47.440   7.186  11.903  0.00  0.00    +0.000 S 
ATOM     16  C   UNL     1      45.875   6.521  11.948  0.00  0.00    +0.000 A 
ATOM     17  N   UNL     1      44.891   6.982  11.129  0.00  0.00    +0.000 NA
ATOM     18  C   UNL     1      43.747   6.404  11.292  0.00  0.00    +0.000 A 
ATOM     19  N   UNL     1      43.501   5.399  12.190  0.00  0.00    +0.000 N 
ATOM     20  C   UNL     1      44.471   4.873  13.002  0.00  0.00    +0.000 A 
ATOM     21  O   UNL     1      44.236   3.915  13.733  0.00  0.00    +0.000 OA
ATOM     22  C   UNL     1      45.770   5.511  12.892  0.00  0.00    +0.000 A 
ATOM     23  H   UNL     1      42.592   4.967  12.247  0.00  0.00    +0.000 HD
ENDBRANCH  10  13
ENDBRANCH   7   9
ENDBRANCH   4   7
BRANCH   1  24
ATOM     24  C   UNL     1      53.314   2.670  17.995  0.00  0.00    +0.000 C 
BRANCH  24  27
ATOM     25  C   UNL     1      54.232   0.420  17.578  0.00  0.00    +0.000 C 
ATOM     26  O   UNL     1      54.852   0.763  16.575  0.00  0.00    +0.000 OA
ATOM     27  N   UNL     1      53.464   1.280  18.338  0.00  0.00    +0.000 N 
ATOM     28  H   UNL     1      52.982   0.889  19.144  0.00  0.00    +0.000 HD
BRANCH  25  33
ATOM     29  C   UNL     1      53.515  -2.517  19.624  0.00  0.00    +0.000 A 
ATOM     30  C   UNL     1      54.202  -3.555  19.017  0.00  0.00    +0.000 A 
ATOM     31  C   UNL     1      54.957  -3.276  17.880  0.00  0.00    +0.000 A 
ATOM     32  C   UNL     1      54.987  -1.973  17.387  0.00  0.00    +0.000 A 
ATOM     33  C   UNL     1      54.263  -0.998  18.064  0.00  0.00    +0.000 A 
ATOM     34  N   UNL     1      53.530  -1.244  19.179  0.00  0.00    +0.000 NA
BRANCH  29  36
ATOM     35  C   UNL     1      52.573  -4.229  20.889  0.00  0.00    +0.000 C 
ATOM     36  O   UNL     1      52.759  -2.822  20.736  0.00  0.00    +0.000 OA
ENDBRANCH  29  36
ENDBRANCH  25  33
ENDBRANCH  24  27
ENDBRANCH   1  24
TORSDOF 7
ENDMDL
MODEL 3
REMARK VINA RESULT:    -7.321      3.803      5.455
REMARK INTER + INTRA:         -11.339
REMARK INTER:                 -10.946
REMARK INTRA:                  -0.393
REMARK UNBOUND:                -1.022
REMARK  Name = 
REMARK  9 active torsions:
REMARK  status: ('A' for Active; 'I' for Inactive)
REMARK    1  A    between atoms: C_1  and  O_2
REMARK    2  A    between atoms: O_2  and  C_3
REMARK    3  A    between atoms: C_7  and  C_8
REMARK    4  A    between atoms: N_10  and  C_11
REMARK    5  A    between atoms: C_11  and  C_12
REMARK    6  A    between atoms: C_15  and  C_16
REMARK    7  A    between atoms: C_16  and  C_17
REMARK    8  A    between atoms: C_16  and  N_18
REMARK    9  A    between atoms: C_19  and  C_21
REMARK                            x       y       z     vdW  Elec       q    Type
REMARK                         _______ _______ _______ _____ _____    ______ ____
ROOT
ATOM      1  C   UNL     1      47.521   6.236  13.880  0.00  0.00    +0.000 A 
ATOM      2  C   UNL     1      46.914   5.017  14.191  0.00  0.00    +0.000 A 
ATOM      3  C   UNL     1      47.171   4.380  15.411  0.00  0.00    +0.000 A 
ATOM      4  C   UNL     1      48.033   4.945  16.365  0.00  0.00    +0.000 A 
ATOM      5  C   UNL     1      48.645   6.167  16.040  0.00  0.00    +0.000 A 
ATOM      6  C   UNL     1      48.389   6.806  14.819  0.00  0.00    +0.000 A 
ENDROOT
BRANCH   4   7
ATOM      7  C   UNL     1      48.277   4.322  17.741  0.00  0.00    +0.000 C 
ATOM      8  C   UNL     1      47.592   2.961  17.929  0.00  0.00    +0.000 C 
BRANCH   7   9
ATOM      9  N   UNL     1      49.704   4.205  18.015  0.00  0.00    +0.000 N 
ATOM     10  C   UNL     1      50.516   3.290  17.390  0.00  0.00    +0.000 C 
ATOM     11  O   UNL     1      50.085   2.484  16.571  0.00  0.00    +0.000 OA
ATOM     12  H   UNL     1      50.066   4.745  18.794  0.00  0.00    +0.000 HD
BRANCH  10  13
ATOM     13  C   UNL     1      51.950   3.348  17.716  0.00  0.00    +0.000 A 
ATOM     14  C   UNL     1      52.611   4.568  17.729  0.00  0.00    +0.000 A 
ATOM     15  S   UNL     1      54.267   4.447  18.127  0.00  0.00    +0.000 S 
ATOM     16  C   UNL     1      54.168   2.754  18.254  0.00  0.00    +0.000 A 
ATOM     17  N   UNL     1      55.270   2.005  18.534  0.00  0.00    +0.000 NA
ATOM     18  C   UNL     1      55.053   0.732  18.572  0.00  0.00    +0.000 A 
ATOM     19  N   UNL     1      53.834   0.141  18.369  0.00  0.00    +0.000 N 
ATOM     20  C   UNL     1      52.691   0.857  18.129  0.00  0.00    +0.000 A 
ATOM     21  O   UNL     1      51.601   0.300  18.038  0.00  0.00    +0.000 OA
ATOM     22  C   UNL     1      52.880   2.293  18.035  0.00  0.00    +0.000 A 
ATOM     23  H   UNL     1      53.724  -0.858  18.443  0.00  0.00    +0.000 HD
ENDBRANCH  10  13
ENDBRANCH   7   9
ENDBRANCH   4   7
BRANCH   1  24
ATOM     24  C   UNL     1      47.221   6.925  12.574  0.00  0.00    +0.000 C 
BRANCH  24  27
ATOM     25  C   UNL     1      45.541   5.971  11.043  0.00  0.00    +0.000 C 
ATOM     26  O   UNL     1      44.648   6.730  11.409  0.00  0.00    +0.000 OA
ATOM     27  N   UNL     1      46.826   5.997  11.547  0.00  0.00    +0.000 N 
ATOM     28  H   UNL     1      47.486   5.315  11.181  0.00  0.00    +0.000 HD
BRANCH  25  33
ATOM     29  C   UNL     1      45.795   4.166   7.881  0.00  0.00    +0.000 A 
ATOM     30  C   UNL     1      44.963   3.068   8.024  0.00  0.00    +0.000 A 
ATOM     31  C   UNL     1      44.265   2.917   9.221  0.00  0.00    +0.000 A 
ATOM     32  C   UNL     1      44.435   3.862  10.230  0.00  0.00    +0.000 A 
ATOM     33  C   UNL     1      45.294   4.929   9.993  0.00  0.00    +0.000 A 
ATOM     34  N   UNL     1      45.974   5.103   8.833  0.00  0.00    +0.000 NA
BRANCH  29  36
ATOM     35  C   UNL     1      46.736   3.014   6.089  0.00  0.00    +0.000 C 
ATOM     36  O   UNL     1      46.490   4.283   6.695  0.00  0.00    +0.000 OA
ENDBRANCH  29  36
ENDBRANCH  25  33
ENDBRANCH  24  27
ENDBRANCH   1  24
TORSDOF 7
ENDMDL
MODEL 4
REMARK VINA RESULT:    -7.245      2.049      2.820
REMARK INTER + INTRA:         -11.231
REMARK INTER:                 -10.149
REMARK INTRA:                  -1.082
REMARK UNBOUND:                -1.022
REMARK  Name = 
REMARK  9 active torsions:
REMARK  status: ('A' for Active; 'I' for Inactive)
REMARK    1  A    between atoms: C_1  and  O_2
REMARK    2  A    between atoms: O_2  and  C_3
REMARK    3  A    between atoms: C_7  and  C_8
REMARK    4  A    between atoms: N_10  and  C_11
REMARK    5  A    between atoms: C_11  and  C_12
REMARK    6  A    between atoms: C_15  and  C_16
REMARK    7  A    between atoms: C_16  and  C_17
REMARK    8  A    between atoms: C_16  and  N_18
REMARK    9  A    between atoms: C_19  and  C_21
REMARK                            x       y       z     vdW  Elec       q    Type
REMARK                         _______ _______ _______ _____ _____    ______ ____
ROOT
ATOM      1  C   UNL     1      45.837   7.538  12.323  0.00  0.00    +0.000 A 
ATOM      2  C   UNL     1      46.024   8.913  12.486  0.00  0.00    +0.000 A 
ATOM      3  C   UNL     1      47.099   9.405  13.237  0.00  0.00    +0.000 A 
ATOM      4  C   UNL     1      48.028   8.541  13.840  0.00  0.00    +0.000 A 
ATOM      5  C   UNL     1      47.826   7.160  13.677  0.00  0.00    +0.000 A 
ATOM      6  C   UNL     1      46.750   6.666  12.927  0.00  0.00    +0.000 A 
ENDROOT
BRANCH   4   7
ATOM      7  C   UNL     1      49.260   9.039  14.600  0.00  0.00    +0.000 C 
ATOM      8  C   UNL     1      49.428  10.564  14.563  0.00  0.00    +0.000 C 
BRANCH   7   9
ATOM      9  N   UNL     1      49.246   8.570  15.979  0.00  0.00    +0.000 N 
ATOM     10  C   UNL     1      50.069   7.573  16.441  0.00  0.00    +0.000 C 
ATOM     11  O   UNL     1      50.862   6.986  15.710  0.00  0.00    +0.000 OA
ATOM     12  H   UNL     1      48.501   8.920  16.574  0.00  0.00    +0.000 HD
BRANCH  10  13
ATOM     13  C   UNL     1      49.992   7.265  17.879  0.00  0.00    +0.000 A 
ATOM     14  C   UNL     1      50.582   8.113  18.805  0.00  0.00    +0.000 A 
ATOM     15  S   UNL     1      50.394   7.602  20.422  0.00  0.00    +0.000 S 
ATOM     16  C   UNL     1      49.554   6.205  19.940  0.00  0.00    +0.000 A 
ATOM     17  N   UNL     1      49.133   5.287  20.853  0.00  0.00    +0.000 NA
ATOM     18  C   UNL     1      48.534   4.263  20.342  0.00  0.00    +0.000 A 
ATOM     19  N   UNL     1      48.306   4.079  19.004  0.00  0.00    +0.000 N 
ATOM     20  C   UNL     1      48.671   4.996  18.054  0.00  0.00    +0.000 A 
ATOM     21  O   UNL     1      48.373   4.840  16.873  0.00  0.00    +0.000 OA
ATOM     22  C   UNL     1      49.386   6.151  18.565  0.00  0.00    +0.000 A 
ATOM     23  H   UNL     1      47.804   3.271  18.671  0.00  0.00    +0.000 HD
ENDBRANCH  10  13
ENDBRANCH   7   9
ENDBRANCH   4   7
BRANCH   1  24
ATOM     24  C   UNL     1      44.690   7.019  11.496  0.00  0.00    +0.000 C 
BRANCH  24  27
ATOM     25  C   UNL     1      44.280   4.892  10.317  0.00  0.00    +0.000 C 
ATOM     26  O   UNL     1      43.154   4.748  10.787  0.00  0.00    +0.000 OA
ATOM     27  N   UNL     1      45.097   5.969  10.598  0.00  0.00    +0.000 N 
ATOM     28  H   UNL     1      46.016   5.985  10.163  0.00  0.00    +0.000 HD
BRANCH  25  33
ATOM     29  C   UNL     1      45.988   3.508   7.404  0.00  0.00    +0.000 A 
ATOM     30  C   UNL     1      46.011   2.140   7.615  0.00  0.00    +0.000 A 
ATOM     31  C   UNL     1      45.420   1.638   8.773  0.00  0.00    +0.000 A 
ATOM     32  C   UNL     1      44.838   2.524   9.678  0.00  0.00    +0.000 A 
ATOM     33  C   UNL     1      44.866   3.881   9.379  0.00  0.00    +0.000 A 
ATOM     34  N   UNL     1      45.426   4.392   8.253  0.00  0.00    +0.000 NA
BRANCH  29  36
ATOM     35  C   UNL     1      47.062   2.925   5.422  0.00  0.00    +0.000 C 
ATOM     36  O   UNL     1      46.598   3.983   6.261  0.00  0.00    +0.000 OA
ENDBRANCH  29  36
ENDBRANCH  25  33
ENDBRANCH  24  27
ENDBRANCH   1  24
TORSDOF 7
ENDMDL
MODEL 5
REMARK VINA RESULT:    -7.224      6.144      8.827
REMARK INTER + INTRA:         -11.201
REMARK INTER:                  -9.963
REMARK INTRA:                  -1.238
REMARK UNBOUND:                -1.022
REMARK  Name = 
REMARK  9 active torsions:
REMARK  status: ('A' for Active; 'I' for Inactive)
REMARK    1  A    between atoms: C_1  and  O_2
REMARK    2  A    between atoms: O_2  and  C_3
REMARK    3  A    between atoms: C_7  and  C_8
REMARK    4  A    between atoms: N_10  and  C_11
REMARK    5  A    between atoms: C_11  and  C_12
REMARK    6  A    between atoms: C_15  and  C_16
REMARK    7  A    between atoms: C_16  and  C_17
REMARK    8  A    between atoms: C_16  and  N_18
REMARK    9  A    between atoms: C_19  and  C_21
REMARK                            x       y       z     vdW  Elec       q    Type
REMARK                         _______ _______ _______ _____ _____    ______ ____
ROOT
ATOM      1  C   UNL     1      48.733   3.420  17.264  0.00  0.00    +0.000 A 
ATOM      2  C   UNL     1      49.315   2.188  16.958  0.00  0.00    +0.000 A 
ATOM      3  C   UNL     1      50.684   1.973  17.156  0.00  0.00    +0.000 A 
ATOM      4  C   UNL     1      51.515   2.979  17.677  0.00  0.00    +0.000 A 
ATOM      5  C   UNL     1      50.923   4.218  17.974  0.00  0.00    +0.000 A 
ATOM      6  C   UNL     1      49.552   4.434  17.775  0.00  0.00    +0.000 A 
ENDROOT
BRANCH   4   7
ATOM      7  C   UNL     1      52.999   2.760  17.983  0.00  0.00    +0.000 C 
ATOM      8  C   UNL     1      53.415   3.241  19.380  0.00  0.00    +0.000 C 
BRANCH   7   9
ATOM      9  N   UNL     1      53.366   1.361  17.806  0.00  0.00    +0.000 N 
ATOM     10  C   UNL     1      54.496   0.961  17.134  0.00  0.00    +0.000 C 
ATOM     11  O   UNL     1      55.266   1.762  16.611  0.00  0.00    +0.000 OA
ATOM     12  H   UNL     1      52.680   0.668  18.087  0.00  0.00    +0.000 HD
BRANCH  10  13
ATOM     13  C   UNL     1      54.772  -0.485  17.107  0.00  0.00    +0.000 A 
ATOM     14  C   UNL     1      54.888  -1.148  15.894  0.00  0.00    +0.000 A 
ATOM     15  S   UNL     1      55.208  -2.818  16.052  0.00  0.00    +0.000 S 
ATOM     16  C   UNL     1      55.159  -2.721  17.749  0.00  0.00    +0.000 A 
ATOM     17  N   UNL     1      55.316  -3.831  18.521  0.00  0.00    +0.000 NA
ATOM     18  C   UNL     1      55.227  -3.614  19.792  0.00  0.00    +0.000 A 
ATOM     19  N   UNL     1      55.009  -2.387  20.361  0.00  0.00    +0.000 N 
ATOM     20  C   UNL     1      54.890  -1.237  19.626  0.00  0.00    +0.000 A 
ATOM     21  O   UNL     1      54.782  -0.143  20.173  0.00  0.00    +0.000 OA
ATOM     22  C   UNL     1      54.941  -1.424  18.187  0.00  0.00    +0.000 A 
ATOM     23  H   UNL     1      54.982  -2.279  21.362  0.00  0.00    +0.000 HD
ENDBRANCH  10  13
ENDBRANCH   7   9
ENDBRANCH   4   7
BRANCH   1  24
ATOM     24  C   UNL     1      47.255   3.635  17.068  0.00  0.00    +0.000 C 
BRANCH  24  27
ATOM     25  C   UNL     1      47.040   4.161  14.669  0.00  0.00    +0.000 C 
ATOM     26  O   UNL     1      47.322   3.023  14.304  0.00  0.00    +0.000 OA
ATOM     27  N   UNL     1      46.975   4.549  15.993  0.00  0.00    +0.000 N 
ATOM     28  H   UNL     1      46.743   5.521  16.184  0.00  0.00    +0.000 HD
BRANCH  25  33
ATOM     29  C   UNL     1      45.155   6.248  12.343  0.00  0.00    +0.000 A 
ATOM     30  C   UNL     1      46.057   7.200  11.900  0.00  0.00    +0.000 A 
ATOM     31  C   UNL     1      47.365   7.149  12.380  0.00  0.00    +0.000 A 
ATOM     32  C   UNL     1      47.716   6.154  13.290  0.00  0.00    +0.000 A 
ATOM     33  C   UNL     1      46.739   5.243  13.677  0.00  0.00    +0.000 A 
ATOM     34  N   UNL     1      45.464   5.267  13.215  0.00  0.00    +0.000 NA
BRANCH  29  36
ATOM     35  C   UNL     1      43.007   5.359  12.470  0.00  0.00    +0.000 C 
ATOM     36  O   UNL     1      43.862   6.332  11.870  0.00  0.00    +0.000 OA
ENDBRANCH  29  36
ENDBRANCH  25  33
ENDBRANCH  24  27
ENDBRANCH   1  24
TORSDOF 7
ENDMDL
MODEL 6
REMARK VINA RESULT:    -7.117      3.038      5.026
REMARK INTER + INTRA:         -11.051
REMARK INTER:                  -9.902
REMARK INTRA:                  -1.149
REMARK UNBOUND:                -1.022
REMARK  Name = 
REMARK  9 active torsions:
REMARK  status: ('A' for Active; 'I' for Inactive)
REMARK    1  A    between atoms: C_1  and  O_2
REMARK    2  A    between atoms: O_2  and  C_3
REMARK    3  A    between atoms: C_7  and  C_8
REMARK    4  A    between atoms: N_10  and  C_11
REMARK    5  A    between atoms: C_11  and  C_12
REMARK    6  A    between atoms: C_15  and  C_16
REMARK    7  A    between atoms: C_16  and  C_17
REMARK    8  A    between atoms: C_16  and  N_18
REMARK    9  A    between atoms: C_19  and  C_21
REMARK                            x       y       z     vdW  Elec       q    Type
REMARK                         _______ _______ _______ _____ _____    ______ ____
ROOT
ATOM      1  C   UNL     1      48.143   7.695  13.896  0.00  0.00    +0.000 A 
ATOM      2  C   UNL     1      48.233   6.382  14.367  0.00  0.00    +0.000 A 
ATOM      3  C   UNL     1      48.514   6.123  15.714  0.00  0.00    +0.000 A 
ATOM      4  C   UNL     1      48.702   7.165  16.637  0.00  0.00    +0.000 A 
ATOM      5  C   UNL     1      48.617   8.481  16.152  0.00  0.00    +0.000 A 
ATOM      6  C   UNL     1      48.338   8.742  14.804  0.00  0.00    +0.000 A 
ENDROOT
BRANCH   4   7
ATOM      7  C   UNL     1      48.931   6.925  18.131  0.00  0.00    +0.000 C 
ATOM      8  C   UNL     1      47.640   6.648  18.913  0.00  0.00    +0.000 C 
BRANCH   7   9
ATOM      9  N   UNL     1      49.886   5.846  18.345  0.00  0.00    +0.000 N 
ATOM     10  C   UNL     1      51.223   5.957  18.048  0.00  0.00    +0.000 C 
ATOM     11  O   UNL     1      51.702   6.973  17.555  0.00  0.00    +0.000 OA
ATOM     12  H   UNL     1      49.505   4.942  18.605  0.00  0.00    +0.000 HD
BRANCH  10  13
ATOM     13  C   UNL     1      52.075   4.806  18.395  0.00  0.00    +0.000 A 
ATOM     14  C   UNL     1      53.245   5.000  19.114  0.00  0.00    +0.000 A 
ATOM     15  S   UNL     1      54.105   3.558  19.425  0.00  0.00    +0.000 S 
ATOM     16  C   UNL     1      52.965   2.630  18.571  0.00  0.00    +0.000 A 
ATOM     17  N   UNL     1      53.128   1.288  18.414  0.00  0.00    +0.000 NA
ATOM     18  C   UNL     1      52.200   0.716  17.720  0.00  0.00    +0.000 A 
ATOM     19  N   UNL     1      51.118   1.361  17.181  0.00  0.00    +0.000 N 
ATOM     20  C   UNL     1      50.890   2.701  17.352  0.00  0.00    +0.000 A 
ATOM     21  O   UNL     1      49.866   3.229  16.929  0.00  0.00    +0.000 OA
ATOM     22  C   UNL     1      51.922   3.406  18.091  0.00  0.00    +0.000 A 
ATOM     23  H   UNL     1      50.411   0.851  16.675  0.00  0.00    +0.000 HD
ENDBRANCH  10  13
ENDBRANCH   7   9
ENDBRANCH   4   7
BRANCH   1  24
ATOM     24  C   UNL     1      47.819   7.964  12.450  0.00  0.00    +0.000 C 
BRANCH  24  27
ATOM     25  C   UNL     1      45.893   6.739  11.518  0.00  0.00    +0.000 C 
ATOM     26  O   UNL     1      45.088   7.629  11.781  0.00  0.00    +0.000 OA
ATOM     27  N   UNL     1      47.243   6.817  11.797  0.00  0.00    +0.000 N 
ATOM     28  H   UNL     1      47.819   6.018  11.546  0.00  0.00    +0.000 HD
BRANCH  25  33
ATOM     29  C   UNL     1      45.359   4.245   8.907  0.00  0.00    +0.000 A 
ATOM     30  C   UNL     1      44.751   3.178   9.546  0.00  0.00    +0.000 A 
ATOM     31  C   UNL     1      44.486   3.286  10.910  0.00  0.00    +0.000 A 
ATOM     32  C   UNL     1      44.848   4.451  11.583  0.00  0.00    +0.000 A 
ATOM     33  C   UNL     1      45.456   5.468  10.855  0.00  0.00    +0.000 A 
ATOM     34  N   UNL     1      45.714   5.389   9.525  0.00  0.00    +0.000 NA
BRANCH  29  36
ATOM     35  C   UNL     1      46.613   3.102   7.313  0.00  0.00    +0.000 C 
ATOM     36  O   UNL     1      45.630   4.107   7.562  0.00  0.00    +0.000 OA
ENDBRANCH  29  36
ENDBRANCH  25  33
ENDBRANCH  24  27
ENDBRANCH   1  24
TORSDOF 7
ENDMDL
MODEL 7
REMARK VINA RESULT:    -7.008      1.492      2.219
REMARK INTER + INTRA:         -10.898
REMARK INTER:                  -9.856
REMARK INTRA:                  -1.042
REMARK UNBOUND:                -1.022
REMARK  Name = 
REMARK  9 active torsions:
REMARK  status: ('A' for Active; 'I' for Inactive)
REMARK    1  A    between atoms: C_1  and  O_2
REMARK    2  A    between atoms: O_2  and  C_3
REMARK    3  A    between atoms: C_7  and  C_8
REMARK    4  A    between atoms: N_10  and  C_11
REMARK    5  A    between atoms: C_11  and  C_12
REMARK    6  A    between atoms: C_15  and  C_16
REMARK    7  A    between atoms: C_16  and  C_17
REMARK    8  A    between atoms: C_16  and  N_18
REMARK    9  A    between atoms: C_19  and  C_21
REMARK                            x       y       z     vdW  Elec       q    Type
REMARK                         _______ _______ _______ _____ _____    ______ ____
ROOT
ATOM      1  C   UNL     1      45.532   6.411  11.701  0.00  0.00    +0.000 A 
ATOM      2  C   UNL     1      46.654   5.741  12.196  0.00  0.00    +0.000 A 
ATOM      3  C   UNL     1      47.586   6.405  13.002  0.00  0.00    +0.000 A 
ATOM      4  C   UNL     1      47.423   7.756  13.350  0.00  0.00    +0.000 A 
ATOM      5  C   UNL     1      46.296   8.423  12.841  0.00  0.00    +0.000 A 
ATOM      6  C   UNL     1      45.363   7.760  12.032  0.00  0.00    +0.000 A 
ENDROOT
BRANCH   4   7
ATOM      7  C   UNL     1      48.375   8.495  14.294  0.00  0.00    +0.000 C 
ATOM      8  C   UNL     1      48.304  10.022  14.164  0.00  0.00    +0.000 C 
BRANCH   7   9
ATOM      9  N   UNL     1      48.148   8.100  15.678  0.00  0.00    +0.000 N 
ATOM     10  C   UNL     1      49.159   7.708  16.522  0.00  0.00    +0.000 C 
ATOM     11  O   UNL     1      50.328   7.639  16.155  0.00  0.00    +0.000 OA
ATOM     12  H   UNL     1      47.182   7.994  15.971  0.00  0.00    +0.000 HD
BRANCH  10  13
ATOM     13  C   UNL     1      48.780   7.413  17.914  0.00  0.00    +0.000 A 
ATOM     14  C   UNL     1      48.343   8.434  18.746  0.00  0.00    +0.000 A 
ATOM     15  S   UNL     1      47.948   7.913  20.323  0.00  0.00    +0.000 S 
ATOM     16  C   UNL     1      48.389   6.310  19.961  0.00  0.00    +0.000 A 
ATOM     17  N   UNL     1      48.332   5.335  20.909  0.00  0.00    +0.000 NA
ATOM     18  C   UNL     1      48.723   4.173  20.502  0.00  0.00    +0.000 A 
ATOM     19  N   UNL     1      49.154   3.894  19.232  0.00  0.00    +0.000 N 
ATOM     20  C   UNL     1      49.185   4.833  18.235  0.00  0.00    +0.000 A 
ATOM     21  O   UNL     1      49.493   4.529  17.086  0.00  0.00    +0.000 OA
ATOM     22  C   UNL     1      48.794   6.170  18.644  0.00  0.00    +0.000 A 
ATOM     23  H   UNL     1      49.416   2.958  18.968  0.00  0.00    +0.000 HD
ENDBRANCH  10  13
ENDBRANCH   7   9
ENDBRANCH   4   7
BRANCH   1  24
ATOM     24  C   UNL     1      44.524   5.683  10.851  0.00  0.00    +0.000 C 
BRANCH  24  27
ATOM     25  C   UNL     1      45.149   3.656   9.593  0.00  0.00    +0.000 C 
ATOM     26  O   UNL     1      44.643   2.888  10.407  0.00  0.00    +0.000 OA
ATOM     27  N   UNL     1      45.132   5.031   9.720  0.00  0.00    +0.000 N 
ATOM     28  H   UNL     1      45.590   5.574   8.993  0.00  0.00    +0.000 HD
BRANCH  25  33
ATOM     29  C   UNL     1      46.925   1.379   7.361  0.00  0.00    +0.000 A 
ATOM     30  C   UNL     1      47.079   2.080   6.178  0.00  0.00    +0.000 A 
ATOM     31  C   UNL     1      46.585   3.382   6.109  0.00  0.00    +0.000 A 
ATOM     32  C   UNL     1      45.949   3.927   7.222  0.00  0.00    +0.000 A 
ATOM     33  C   UNL     1      45.841   3.143   8.366  0.00  0.00    +0.000 A 
ATOM     34  N   UNL     1      46.323   1.879   8.459  0.00  0.00    +0.000 NA
BRANCH  29  36
ATOM     35  C   UNL     1      46.350  -0.877   7.380  0.00  0.00    +0.000 C 
ATOM     36  O   UNL     1      47.404   0.086   7.398  0.00  0.00    +0.000 OA
ENDBRANCH  29  36
ENDBRANCH  25  33
ENDBRANCH  24  27
ENDBRANCH   1  24
TORSDOF 7
ENDMDL
MODEL 8
REMARK VINA RESULT:    -6.977      4.465      9.559
REMARK INTER + INTRA:         -10.854
REMARK INTER:                  -9.610
REMARK INTRA:                  -1.244
REMARK UNBOUND:                -1.022
REMARK  Name = 
REMARK  9 active torsions:
REMARK  status: ('A' for Active; 'I' for Inactive)
REMARK    1  A    between atoms: C_1  and  O_2
REMARK    2  A    between atoms: O_2  and  C_3
REMARK    3  A    between atoms: C_7  and  C_8
REMARK    4  A    between atoms: N_10  and  C_11
REMARK    5  A    between atoms: C_11  and  C_12
REMARK    6  A    between atoms: C_15  and  C_16
REMARK    7  A    between atoms: C_16  and  C_17
REMARK    8  A    between atoms: C_16  and  N_18
REMARK    9  A    between atoms: C_19  and  C_21
REMARK                            x       y       z     vdW  Elec       q    Type
REMARK                         _______ _______ _______ _____ _____    ______ ____
ROOT
ATOM      1  C   UNL     1      49.131   4.875  17.372  0.00  0.00    +0.000 A 
ATOM      2  C   UNL     1      48.047   4.408  16.624  0.00  0.00    +0.000 A 
ATOM      3  C   UNL     1      47.647   5.067  15.455  0.00  0.00    +0.000 A 
ATOM      4  C   UNL     1      48.322   6.206  14.989  0.00  0.00    +0.000 A 
ATOM      5  C   UNL     1      49.406   6.674  15.752  0.00  0.00    +0.000 A 
ATOM      6  C   UNL     1      49.807   6.016  16.923  0.00  0.00    +0.000 A 
ENDROOT
BRANCH   4   7
ATOM      7  C   UNL     1      47.967   6.907  13.675  0.00  0.00    +0.000 C 
ATOM      8  C   UNL     1      49.181   7.500  12.948  0.00  0.00    +0.000 C 
BRANCH   7   9
ATOM      9  N   UNL     1      47.241   6.011  12.786  0.00  0.00    +0.000 N 
ATOM     10  C   UNL     1      46.278   6.443  11.906  0.00  0.00    +0.000 C 
ATOM     11  O   UNL     1      45.944   7.622  11.828  0.00  0.00    +0.000 OA
ATOM     12  H   UNL     1      47.376   5.015  12.929  0.00  0.00    +0.000 HD
BRANCH  10  13
ATOM     13  C   UNL     1      45.689   5.427  11.019  0.00  0.00    +0.000 A 
ATOM     14  C   UNL     1      45.798   5.558   9.642  0.00  0.00    +0.000 A 
ATOM     15  S   UNL     1      45.058   4.291   8.770  0.00  0.00    +0.000 S 
ATOM     16  C   UNL     1      44.528   3.543  10.203  0.00  0.00    +0.000 A 
ATOM     17  N   UNL     1      43.780   2.407  10.167  0.00  0.00    +0.000 NA
ATOM     18  C   UNL     1      43.424   1.965  11.328  0.00  0.00    +0.000 A 
ATOM     19  N   UNL     1      43.760   2.549  12.521  0.00  0.00    +0.000 N 
ATOM     20  C   UNL     1      44.548   3.666  12.607  0.00  0.00    +0.000 A 
ATOM     21  O   UNL     1      44.901   4.111  13.696  0.00  0.00    +0.000 OA
ATOM     22  C   UNL     1      44.946   4.231  11.331  0.00  0.00    +0.000 A 
ATOM     23  H   UNL     1      43.477   2.137  13.396  0.00  0.00    +0.000 HD
ENDBRANCH  10  13
ENDBRANCH   7   9
ENDBRANCH   4   7
BRANCH   1  24
ATOM     24  C   UNL     1      49.568   4.148  18.616  0.00  0.00    +0.000 C 
BRANCH  24  27
ATOM     25  C   UNL     1      51.241   2.543  17.775  0.00  0.00    +0.000 C 
ATOM     26  O   UNL     1      50.422   1.889  17.136  0.00  0.00    +0.000 OA
ATOM     27  N   UNL     1      50.920   3.663  18.518  0.00  0.00    +0.000 N 
ATOM     28  H   UNL     1      51.675   4.124  19.019  0.00  0.00    +0.000 HD
BRANCH  25  33
ATOM     29  C   UNL     1      54.236   0.458  17.822  0.00  0.00    +0.000 A 
ATOM     30  C   UNL     1      55.296   1.348  17.791  0.00  0.00    +0.000 A 
ATOM     31  C   UNL     1      55.016   2.713  17.768  0.00  0.00    +0.000 A 
ATOM     32  C   UNL     1      53.687   3.133  17.767  0.00  0.00    +0.000 A 
ATOM     33  C   UNL     1      52.691   2.164  17.797  0.00  0.00    +0.000 A 
ATOM     34  N   UNL     1      52.941   0.831  17.831  0.00  0.00    +0.000 NA
BRANCH  29  36
ATOM     35  C   UNL     1      53.844  -1.592  18.854  0.00  0.00    +0.000 C 
ATOM     36  O   UNL     1      54.539  -0.888  17.824  0.00  0.00    +0.000 OA
ENDBRANCH  29  36
ENDBRANCH  25  33
ENDBRANCH  24  27
ENDBRANCH   1  24
TORSDOF 7
ENDMDL
MODEL 9
REMARK VINA RESULT:    -6.879      4.657      6.678
REMARK INTER + INTRA:         -10.716
REMARK INTER:                  -9.416
REMARK INTRA:                  -1.300
REMARK UNBOUND:                -1.022
REMARK  Name = 
REMARK  9 active torsions:
REMARK  status: ('A' for Active; 'I' for Inactive)
REMARK    1  A    between atoms: C_1  and  O_2
REMARK    2  A    between atoms: O_2  and  C_3
REMARK    3  A    between atoms: C_7  and  C_8
REMARK    4  A    between atoms: N_10  and  C_11
REMARK    5  A    between atoms: C_11  and  C_12
REMARK    6  A    between atoms: C_15  and  C_16
REMARK    7  A    between atoms: C_16  and  C_17
REMARK    8  A    between atoms: C_16  and  N_18
REMARK    9  A    between atoms: C_19  and  C_21
REMARK                            x       y       z     vdW  Elec       q    Type
REMARK                         _______ _______ _______ _____ _____    ______ ____
ROOT
ATOM      1  C   UNL     1      45.937   7.301  12.556  0.00  0.00    +0.000 A 
ATOM      2  C   UNL     1      47.245   6.995  12.942  0.00  0.00    +0.000 A 
ATOM      3  C   UNL     1      48.198   8.007  13.106  0.00  0.00    +0.000 A 
ATOM      4  C   UNL     1      47.874   9.359  12.901  0.00  0.00    +0.000 A 
ATOM      5  C   UNL     1      46.559   9.656  12.506  0.00  0.00    +0.000 A 
ATOM      6  C   UNL     1      45.604   8.643  12.340  0.00  0.00    +0.000 A 
ENDROOT
BRANCH   4   7
ATOM      7  C   UNL     1      48.863  10.501  13.148  0.00  0.00    +0.000 C 
ATOM      8  C   UNL     1      49.036  10.853  14.631  0.00  0.00    +0.000 C 
BRANCH   7   9
ATOM      9  N   UNL     1      50.158  10.206  12.549  0.00  0.00    +0.000 N 
ATOM     10  C   UNL     1      50.508  10.605  11.282  0.00  0.00    +0.000 C 
ATOM     11  O   UNL     1      49.735  11.219  10.552  0.00  0.00    +0.000 OA
ATOM     12  H   UNL     1      50.764   9.570  13.058  0.00  0.00    +0.000 HD
BRANCH  10  13
ATOM     13  C   UNL     1      51.881  10.299  10.848  0.00  0.00    +0.000 A 
ATOM     14  C   UNL     1      52.787  11.327  10.629  0.00  0.00    +0.000 A 
ATOM     15  S   UNL     1      54.329  10.790  10.132  0.00  0.00    +0.000 S 
ATOM     16  C   UNL     1      53.827   9.165  10.149  0.00  0.00    +0.000 A 
ATOM     17  N   UNL     1      54.672   8.165   9.775  0.00  0.00    +0.000 NA
ATOM     18  C   UNL     1      54.149   6.984   9.810  0.00  0.00    +0.000 A 
ATOM     19  N   UNL     1      52.863   6.711  10.197  0.00  0.00    +0.000 N 
ATOM     20  C   UNL     1      51.993   7.680  10.624  0.00  0.00    +0.000 A 
ATOM     21  O   UNL     1      50.877   7.389  11.045  0.00  0.00    +0.000 OA
ATOM     22  C   UNL     1      52.513   9.033  10.568  0.00  0.00    +0.000 A 
ATOM     23  H   UNL     1      52.524   5.763  10.232  0.00  0.00    +0.000 HD
ENDBRANCH  10  13
ENDBRANCH   7   9
ENDBRANCH   4   7
BRANCH   1  24
ATOM     24  C   UNL     1      44.914   6.207  12.403  0.00  0.00    +0.000 C 
BRANCH  24  27
ATOM     25  C   UNL     1      44.374   4.817  10.439  0.00  0.00    +0.000 C 
ATOM     26  O   UNL     1      43.210   5.203  10.376  0.00  0.00    +0.000 OA
ATOM     27  N   UNL     1      45.279   5.256  11.385  0.00  0.00    +0.000 N 
ATOM     28  H   UNL     1      46.216   4.864  11.353  0.00  0.00    +0.000 HD
BRANCH  25  33
ATOM     29  C   UNL     1      46.059   3.454   7.502  0.00  0.00    +0.000 A 
ATOM     30  C   UNL     1      45.980   2.079   7.647  0.00  0.00    +0.000 A 
ATOM     31  C   UNL     1      45.324   1.566   8.764  0.00  0.00    +0.000 A 
ATOM     32  C   UNL     1      44.782   2.448   9.697  0.00  0.00    +0.000 A 
ATOM     33  C   UNL     1      44.913   3.812   9.466  0.00  0.00    +0.000 A 
ATOM     34  N   UNL     1      45.538   4.334   8.381  0.00  0.00    +0.000 NA
BRANCH  29  36
ATOM     35  C   UNL     1      47.192   2.887   5.548  0.00  0.00    +0.000 C 
ATOM     36  O   UNL     1      46.731   3.937   6.399  0.00  0.00    +0.000 OA
ENDBRANCH  29  36
ENDBRANCH  25  33
ENDBRANCH  24  27
ENDBRANCH   1  24
TORSDOF 7
ENDMDL
