MODEL 1
REMARK VINA RESULT:    -7.462      0.000      0.000
REMARK INTER + INTRA:         -10.018
REMARK INTER:                  -9.424
REMARK INTRA:                  -0.593
REMARK UNBOUND:                -0.593
REMARK  Name = 
REMARK  5 active torsions:
REMARK  status: ('A' for Active; 'I' for Inactive)
REMARK    1  A    between atoms: N_1  and  C_2
REMARK    2  A    between atoms: C_2  and  C_3
REMARK    3  A    between atoms: C_3  and  C_4
REMARK    4  A    between atoms: C_7  and  C_8
REMARK    5  A    between atoms: C_8  and  N_9
REMARK                            x       y       z     vdW  Elec       q    Type
REMARK                         _______ _______ _______ _____ _____    ______ ____
ROOT
ATOM      1  C   UNL     1      46.101   2.302   7.920  0.00  0.00    +0.000 A 
ATOM      2  C   UNL     1      45.224   1.730   8.848  0.00  0.00    +0.000 A 
ATOM      3  C   UNL     1      44.465   2.535   9.703  0.00  0.00    +0.000 A 
ATOM      4  C   UNL     1      44.560   3.932   9.644  0.00  0.00    +0.000 A 
ATOM      5  C   UNL     1      45.417   4.503   8.692  0.00  0.00    +0.000 A 
ATOM      6  C   UNL     1      46.175   3.697   7.835  0.00  0.00    +0.000 A 
ENDROOT
BRANCH   1   7
ATOM      7  C   UNL     1      46.977   1.428   7.053  0.00  0.00    +0.000 C 
BRANCH   7   8
ATOM      8  C   UNL     1      48.286   2.103   6.633  0.00  0.00    +0.000 C 
BRANCH   8   9
ATOM      9  N   UNL     1      48.360   2.223   5.174  0.00  0.00    +0.000 NA
ATOM     10  H   UNL     1      47.598   1.696   4.751  0.00  0.00    +0.000 HD
ATOM     11  H   UNL     1      49.221   1.796   4.839  0.00  0.00    +0.000 HD
ENDBRANCH   8   9
ENDBRANCH   7   8
ENDBRANCH   1   7
BRANCH   4  12
ATOM     12  C   UNL     1      43.753   4.807  10.569  0.00  0.00    +0.000 C 
BRANCH  12  13
ATOM     13  N   UNL     1      44.547   5.382  11.656  0.00  0.00    +0.000 N 
ATOM     14  C   UNL     1      45.286   4.639  12.548  0.00  0.00    +0.000 A 
ATOM     15  C   UNL     1      46.057   5.504  13.292  0.00  0.00    +0.000 A 
ATOM     16  C   UNL     1      45.783   6.824  12.842  0.00  0.00    +0.000 A 
ATOM     17  C   UNL     1      46.274   8.090  13.189  0.00  0.00    +0.000 A 
ATOM     18  N   UNL     1      45.816   9.205  12.568  0.00  0.00    +0.000 NA
ATOM     19  C   UNL     1      44.869   9.072  11.616  0.00  0.00    +0.000 A 
ATOM     20  C   UNL     1      44.319   7.868  11.201  0.00  0.00    +0.000 A 
ATOM     21  C   UNL     1      44.814   6.726  11.837  0.00  0.00    +0.000 A 
ENDBRANCH  12  13
ENDBRANCH   4  12
TORSDOF 5
ENDMDL
MODEL 2
REMARK VINA RESULT:    -7.406      1.210      2.394
REMARK INTER + INTRA:          -9.947
REMARK INTER:                  -9.344
REMARK INTRA:                  -0.603
REMARK UNBOUND:                -0.593
REMARK  Name = 
REMARK  5 active torsions:
REMARK  status: ('A' for Active; 'I' for Inactive)
REMARK    1  A    between atoms: N_1  and  C_2
REMARK    2  A    between atoms: C_2  and  C_3
REMARK    3  A    between atoms: C_3  and  C_4
REMARK    4  A    between atoms: C_7  and  C_8
REMARK    5  A    between atoms: C_8  and  N_9
REMARK                            x       y       z     vdW  Elec       q    Type
REMARK                         _______ _______ _______ _____ _____    ______ ____
ROOT
ATOM      1  C   UNL     1      46.095   2.350   7.807  0.00  0.00    +0.000 A 
ATOM      2  C   UNL     1      45.280   1.745   8.772  0.00  0.00    +0.000 A 
ATOM      3  C   UNL     1      44.590   2.520   9.710  0.00  0.00    +0.000 A 
ATOM      4  C   UNL     1      44.692   3.918   9.698  0.00  0.00    +0.000 A 
ATOM      5  C   UNL     1      45.484   4.521   8.711  0.00  0.00    +0.000 A 
ATOM      6  C   UNL     1      46.173   3.746   7.772  0.00  0.00    +0.000 A 
ENDROOT
BRANCH   1   7
ATOM      7  C   UNL     1      46.900   1.505   6.848  0.00  0.00    +0.000 C 
BRANCH   7   8
ATOM      8  C   UNL     1      48.246   2.130   6.469  0.00  0.00    +0.000 C 
BRANCH   8   9
ATOM      9  N   UNL     1      48.272   2.476   5.045  0.00  0.00    +0.000 NA
ATOM     10  H   UNL     1      48.090   3.473   4.934  0.00  0.00    +0.000 HD
ATOM     11  H   UNL     1      47.516   1.995   4.562  0.00  0.00    +0.000 HD
ENDBRANCH   8   9
ENDBRANCH   7   8
ENDBRANCH   1   7
BRANCH   4  12
ATOM     12  C   UNL     1      43.959   4.760  10.712  0.00  0.00    +0.000 C 
BRANCH  12  13
ATOM     13  N   UNL     1      44.851   5.586  11.528  0.00  0.00    +0.000 N 
ATOM     14  C   UNL     1      44.804   6.960  11.573  0.00  0.00    +0.000 A 
ATOM     15  C   UNL     1      45.635   7.385  12.585  0.00  0.00    +0.000 A 
ATOM     16  C   UNL     1      46.215   6.233  13.182  0.00  0.00    +0.000 A 
ATOM     17  C   UNL     1      47.096   6.032  14.252  0.00  0.00    +0.000 A 
ATOM     18  N   UNL     1      47.482   4.783  14.608  0.00  0.00    +0.000 NA
ATOM     19  C   UNL     1      47.009   3.734  13.903  0.00  0.00    +0.000 A 
ATOM     20  C   UNL     1      46.135   3.825  12.829  0.00  0.00    +0.000 A 
ATOM     21  C   UNL     1      45.732   5.119  12.486  0.00  0.00    +0.000 A 
ENDBRANCH  12  13
ENDBRANCH   4  12
TORSDOF 5
ENDMDL
MODEL 3
REMARK VINA RESULT:    -6.418      2.350      6.942
REMARK INTER + INTRA:          -8.699
REMARK INTER:                  -8.076
REMARK INTRA:                  -0.623
REMARK UNBOUND:                -0.593
REMARK  Name = 
REMARK  5 active torsions:
REMARK  status: ('A' for Active; 'I' for Inactive)
REMARK    1  A    between atoms: N_1  and  C_2
REMARK    2  A    between atoms: C_2  and  C_3
REMARK    3  A    between atoms: C_3  and  C_4
REMARK    4  A    between atoms: C_7  and  C_8
REMARK    5  A    between atoms: C_8  and  N_9
REMARK                            x       y       z     vdW  Elec       q    Type
REMARK                         _______ _______ _______ _____ _____    ______ ____
ROOT
ATOM      1  C   UNL     1      46.245   4.552  13.901  0.00  0.00    +0.000 A 
ATOM      2  C   UNL     1      45.431   5.483  13.245  0.00  0.00    +0.000 A 
ATOM      3  C   UNL     1      44.797   5.155  12.042  0.00  0.00    +0.000 A 
ATOM      4  C   UNL     1      44.958   3.884  11.471  0.00  0.00    +0.000 A 
ATOM      5  C   UNL     1      45.749   2.945  12.146  0.00  0.00    +0.000 A 
ATOM      6  C   UNL     1      46.381   3.272  13.350  0.00  0.00    +0.000 A 
ENDROOT
BRANCH   1   7
ATOM      7  C   UNL     1      46.989   4.936  15.157  0.00  0.00    +0.000 C 
BRANCH   7   8
ATOM      8  C   UNL     1      47.531   3.734  15.937  0.00  0.00    +0.000 C 
BRANCH   8   9
ATOM      9  N   UNL     1      46.715   3.481  17.128  0.00  0.00    +0.000 NA
ATOM     10  H   UNL     1      46.524   4.363  17.602  0.00  0.00    +0.000 HD
ATOM     11  H   UNL     1      47.242   2.912  17.788  0.00  0.00    +0.000 HD
ENDBRANCH   8   9
ENDBRANCH   7   8
ENDBRANCH   1   7
BRANCH   4  12
ATOM     12  C   UNL     1      44.287   3.527  10.169  0.00  0.00    +0.000 C 
BRANCH  12  13
ATOM     13  N   UNL     1      45.183   3.618   9.015  0.00  0.00    +0.000 N 
ATOM     14  C   UNL     1      45.671   4.801   8.510  0.00  0.00    +0.000 A 
ATOM     15  C   UNL     1      46.632   4.503   7.570  0.00  0.00    +0.000 A 
ATOM     16  C   UNL     1      46.739   3.088   7.495  0.00  0.00    +0.000 A 
ATOM     17  C   UNL     1      47.548   2.212   6.759  0.00  0.00    +0.000 A 
ATOM     18  N   UNL     1      47.426   0.870   6.902  0.00  0.00    +0.000 NA
ATOM     19  C   UNL     1      46.501   0.392   7.759  0.00  0.00    +0.000 A 
ATOM     20  C   UNL     1      45.652   1.172   8.532  0.00  0.00    +0.000 A 
ATOM     21  C   UNL     1      45.803   2.554   8.387  0.00  0.00    +0.000 A 
ENDBRANCH  12  13
ENDBRANCH   4  12
TORSDOF 5
ENDMDL
MODEL 4
REMARK VINA RESULT:    -5.785      2.335      6.516
REMARK INTER + INTRA:          -7.901
REMARK INTER:                  -7.401
REMARK INTRA:                  -0.500
REMARK UNBOUND:                -0.593
REMARK  Name = 
REMARK  5 active torsions:
REMARK  status: ('A' for Active; 'I' for Inactive)
REMARK    1  A    between atoms: N_1  and  C_2
REMARK    2  A    between atoms: C_2  and  C_3
REMARK    3  A    between atoms: C_3  and  C_4
REMARK    4  A    between atoms: C_7  and  C_8
REMARK    5  A    between atoms: C_8  and  N_9
REMARK                            x       y       z     vdW  Elec       q    Type
REMARK                         _______ _______ _______ _____ _____    ______ ____
ROOT
ATOM      1  C   UNL     1      47.882   7.433  13.535  0.00  0.00    +0.000 A 
ATOM      2  C   UNL     1      46.929   8.358  13.095  0.00  0.00    +0.000 A 
ATOM      3  C   UNL     1      45.696   7.927  12.594  0.00  0.00    +0.000 A 
ATOM      4  C   UNL     1      45.386   6.562  12.530  0.00  0.00    +0.000 A 
ATOM      5  C   UNL     1      46.331   5.640  13.000  0.00  0.00    +0.000 A 
ATOM      6  C   UNL     1      47.564   6.071  13.504  0.00  0.00    +0.000 A 
ENDROOT
BRANCH   1   7
ATOM      7  C   UNL     1      49.242   7.899  14.001  0.00  0.00    +0.000 C 
BRANCH   7   8
ATOM      8  C   UNL     1      49.548   7.528  15.455  0.00  0.00    +0.000 C 
BRANCH   8   9
ATOM      9  N   UNL     1      50.729   6.663  15.530  0.00  0.00    +0.000 NA
ATOM     10  H   UNL     1      51.286   6.919  16.345  0.00  0.00    +0.000 HD
ATOM     11  H   UNL     1      51.323   6.825  14.719  0.00  0.00    +0.000 HD
ENDBRANCH   8   9
ENDBRANCH   7   8
ENDBRANCH   1   7
BRANCH   4  12
ATOM     12  C   UNL     1      44.063   6.089  11.981  0.00  0.00    +0.000 C 
BRANCH  12  13
ATOM     13  N   UNL     1      44.080   4.685  11.567  0.00  0.00    +0.000 N 
ATOM     14  C   UNL     1      43.419   3.678  12.231  0.00  0.00    +0.000 A 
ATOM     15  C   UNL     1      43.483   2.540  11.458  0.00  0.00    +0.000 A 
ATOM     16  C   UNL     1      44.209   2.859  10.278  0.00  0.00    +0.000 A 
ATOM     17  C   UNL     1      44.565   2.137   9.131  0.00  0.00    +0.000 A 
ATOM     18  N   UNL     1      45.277   2.722   8.137  0.00  0.00    +0.000 NA
ATOM     19  C   UNL     1      45.649   4.011   8.280  0.00  0.00    +0.000 A 
ATOM     20  C   UNL     1      45.349   4.811   9.373  0.00  0.00    +0.000 A 
ATOM     21  C   UNL     1      44.598   4.199  10.381  0.00  0.00    +0.000 A 
ENDBRANCH  12  13
ENDBRANCH   4  12
TORSDOF 5
ENDMDL
MODEL 5
REMARK VINA RESULT:    -5.580      1.789      2.961
REMARK INTER + INTRA:          -7.641
REMARK INTER:                  -7.056
REMARK INTRA:                  -0.585
REMARK UNBOUND:                -0.593
REMARK  Name = 
REMARK  5 active torsions:
REMARK  status: ('A' for Active; 'I' for Inactive)
REMARK    1  A    between atoms: N_1  and  C_2
REMARK    2  A    between atoms: C_2  and  C_3
REMARK    3  A    between atoms: C_3  and  C_4
REMARK    4  A    between atoms: C_7  and  C_8
REMARK    5  A    between atoms: C_8  and  N_9
REMARK                            x       y       z     vdW  Elec       q    Type
REMARK                         _______ _______ _______ _____ _____    ______ ____
ROOT
ATOM      1  C   UNL     1      44.987   3.389   9.734  0.00  0.00    +0.000 A 
ATOM      2  C   UNL     1      45.301   4.721   9.441  0.00  0.00    +0.000 A 
ATOM      3  C   UNL     1      45.442   5.663  10.465  0.00  0.00    +0.000 A 
ATOM      4  C   UNL     1      45.279   5.292  11.807  0.00  0.00    +0.000 A 
ATOM      5  C   UNL     1      44.994   3.950  12.099  0.00  0.00    +0.000 A 
ATOM      6  C   UNL     1      44.856   3.008  11.074  0.00  0.00    +0.000 A 
ENDROOT
BRANCH   1   7
ATOM      7  C   UNL     1      44.758   2.394   8.621  0.00  0.00    +0.000 C 
BRANCH   7   8
ATOM      8  C   UNL     1      45.966   1.492   8.352  0.00  0.00    +0.000 C 
BRANCH   8   9
ATOM      9  N   UNL     1      46.895   2.138   7.420  0.00  0.00    +0.000 NA
ATOM     10  H   UNL     1      46.367   2.617   6.692  0.00  0.00    +0.000 HD
ATOM     11  H   UNL     1      47.453   1.430   6.947  0.00  0.00    +0.000 HD
ENDBRANCH   8   9
ENDBRANCH   7   8
ENDBRANCH   1   7
BRANCH   4  12
ATOM     12  C   UNL     1      45.418   6.303  12.916  0.00  0.00    +0.000 C 
BRANCH  12  13
ATOM     13  N   UNL     1      46.617   7.134  12.791  0.00  0.00    +0.000 N 
ATOM     14  C   UNL     1      47.902   6.647  12.852  0.00  0.00    +0.000 A 
ATOM     15  C   UNL     1      48.763   7.661  12.494  0.00  0.00    +0.000 A 
ATOM     16  C   UNL     1      47.979   8.811  12.203  0.00  0.00    +0.000 A 
ATOM     17  C   UNL     1      48.282  10.107  11.765  0.00  0.00    +0.000 A 
ATOM     18  N   UNL     1      47.298  11.018  11.563  0.00  0.00    +0.000 NA
ATOM     19  C   UNL     1      46.021  10.654  11.803  0.00  0.00    +0.000 A 
ATOM     20  C   UNL     1      45.617   9.399  12.237  0.00  0.00    +0.000 A 
ATOM     21  C   UNL     1      46.641   8.466  12.423  0.00  0.00    +0.000 A 
ENDBRANCH  12  13
ENDBRANCH   4  12
TORSDOF 5
ENDMDL
MODEL 6
REMARK VINA RESULT:    -5.234      3.474      7.451
REMARK INTER + INTRA:          -7.204
REMARK INTER:                  -7.005
REMARK INTRA:                  -0.198
REMARK UNBOUND:                -0.593
REMARK  Name = 
REMARK  5 active torsions:
REMARK  status: ('A' for Active; 'I' for Inactive)
REMARK    1  A    between atoms: N_1  and  C_2
REMARK    2  A    between atoms: C_2  and  C_3
REMARK    3  A    between atoms: C_3  and  C_4
REMARK    4  A    between atoms: C_7  and  C_8
REMARK    5  A    between atoms: C_8  and  N_9
REMARK                            x       y       z     vdW  Elec       q    Type
REMARK                         _______ _______ _______ _____ _____    ______ ____
ROOT
ATOM      1  C   UNL     1      48.266   5.116  16.760  0.00  0.00    +0.000 A 
ATOM      2  C   UNL     1      48.799   6.276  16.187  0.00  0.00    +0.000 A 
ATOM      3  C   UNL     1      48.551   6.589  14.846  0.00  0.00    +0.000 A 
ATOM      4  C   UNL     1      47.755   5.752  14.051  0.00  0.00    +0.000 A 
ATOM      5  C   UNL     1      47.198   4.607  14.638  0.00  0.00    +0.000 A 
ATOM      6  C   UNL     1      47.444   4.296  15.979  0.00  0.00    +0.000 A 
ENDROOT
BRANCH   1   7
ATOM      7  C   UNL     1      48.602   4.742  18.185  0.00  0.00    +0.000 C 
BRANCH   7   8
ATOM      8  C   UNL     1      47.804   5.532  19.227  0.00  0.00    +0.000 C 
BRANCH   8   9
ATOM      9  N   UNL     1      46.374   5.517  18.903  0.00  0.00    +0.000 NA
ATOM     10  H   UNL     1      46.023   6.473  18.874  0.00  0.00    +0.000 HD
ATOM     11  H   UNL     1      45.860   5.048  19.646  0.00  0.00    +0.000 HD
ENDBRANCH   8   9
ENDBRANCH   7   8
ENDBRANCH   1   7
BRANCH   4  12
ATOM     12  C   UNL     1      47.491   6.076  12.603  0.00  0.00    +0.000 C 
BRANCH  12  13
ATOM     13  N   UNL     1      46.071   6.266  12.304  0.00  0.00    +0.000 N 
ATOM     14  C   UNL     1      45.478   7.494  12.125  0.00  0.00    +0.000 A 
ATOM     15  C   UNL     1      44.197   7.289  11.662  0.00  0.00    +0.000 A 
ATOM     16  C   UNL     1      43.996   5.886  11.555  0.00  0.00    +0.000 A 
ATOM     17  C   UNL     1      42.928   5.088  11.121  0.00  0.00    +0.000 A 
ATOM     18  N   UNL     1      43.026   3.736  11.125  0.00  0.00    +0.000 NA
ATOM     19  C   UNL     1      44.170   3.172  11.567  0.00  0.00    +0.000 A 
ATOM     20  C   UNL     1      45.282   3.871  12.017  0.00  0.00    +0.000 A 
ATOM     21  C   UNL     1      45.171   5.264  11.988  0.00  0.00    +0.000 A 
ENDBRANCH  12  13
ENDBRANCH   4  12
TORSDOF 5
ENDMDL
MODEL 7
REMARK VINA RESULT:    -5.193      2.359      4.201
REMARK INTER + INTRA:          -7.152
REMARK INTER:                  -6.738
REMARK INTRA:                  -0.414
REMARK UNBOUND:                -0.593
REMARK  Name = 
REMARK  5 active torsions:
REMARK  status: ('A' for Active; 'I' for Inactive)
REMARK    1  A    between atoms: N_1  and  C_2
REMARK    2  A    between atoms: C_2  and  C_3
REMARK    3  A    between atoms: C_3  and  C_4
REMARK    4  A    between atoms: C_7  and  C_8
REMARK    5  A    between atoms: C_8  and  N_9
REMARK                            x       y       z     vdW  Elec       q    Type
REMARK                         _______ _______ _______ _____ _____    ______ ____
ROOT
ATOM      1  C   UNL     1      44.902   3.828  10.801  0.00  0.00    +0.000 A 
ATOM      2  C   UNL     1      45.234   5.054  10.215  0.00  0.00    +0.000 A 
ATOM      3  C   UNL     1      45.754   6.098  10.988  0.00  0.00    +0.000 A 
ATOM      4  C   UNL     1      45.961   5.934  12.365  0.00  0.00    +0.000 A 
ATOM      5  C   UNL     1      45.656   4.694  12.943  0.00  0.00    +0.000 A 
ATOM      6  C   UNL     1      45.138   3.650  12.169  0.00  0.00    +0.000 A 
ENDROOT
BRANCH   1   7
ATOM      7  C   UNL     1      44.267   2.732   9.978  0.00  0.00    +0.000 C 
BRANCH   7   8
ATOM      8  C   UNL     1      44.994   2.464   8.657  0.00  0.00    +0.000 C 
BRANCH   8   9
ATOM      9  N   UNL     1      45.682   1.170   8.699  0.00  0.00    +0.000 NA
ATOM     10  H   UNL     1      46.645   1.307   9.002  0.00  0.00    +0.000 HD
ATOM     11  H   UNL     1      45.733   0.779   7.760  0.00  0.00    +0.000 HD
ENDBRANCH   8   9
ENDBRANCH   7   8
ENDBRANCH   1   7
BRANCH   4  12
ATOM     12  C   UNL     1      46.511   7.057  13.207  0.00  0.00    +0.000 C 
BRANCH  12  13
ATOM     13  N   UNL     1      46.487   8.353  12.525  0.00  0.00    +0.000 N 
ATOM     14  C   UNL     1      45.375   9.158  12.437  0.00  0.00    +0.000 A 
ATOM     15  C   UNL     1      45.764  10.372  11.916  0.00  0.00    +0.000 A 
ATOM     16  C   UNL     1      47.163  10.311  11.675  0.00  0.00    +0.000 A 
ATOM     17  C   UNL     1      48.107  11.228  11.192  0.00  0.00    +0.000 A 
ATOM     18  N   UNL     1      49.411  10.881  11.071  0.00  0.00    +0.000 NA
ATOM     19  C   UNL     1      49.783   9.629  11.413  0.00  0.00    +0.000 A 
ATOM     20  C   UNL     1      48.929   8.649  11.900  0.00  0.00    +0.000 A 
ATOM     21  C   UNL     1      47.590   9.029  12.037  0.00  0.00    +0.000 A 
ENDBRANCH  12  13
ENDBRANCH   4  12
TORSDOF 5
ENDMDL
MODEL 8
REMARK VINA RESULT:    -5.007      3.283      5.647
REMARK INTER + INTRA:          -6.918
REMARK INTER:                  -6.340
REMARK INTRA:                  -0.578
REMARK UNBOUND:                -0.593
REMARK  Name = 
REMARK  5 active torsions:
REMARK  status: ('A' for Active; 'I' for Inactive)
REMARK    1  A    between atoms: N_1  and  C_2
REMARK    2  A    between atoms: C_2  and  C_3
REMARK    3  A    between atoms: C_3  and  C_4
REMARK    4  A    between atoms: C_7  and  C_8
REMARK    5  A    between atoms: C_8  and  N_9
REMARK                            x       y       z     vdW  Elec       q    Type
REMARK                         _______ _______ _______ _____ _____    ______ ____
ROOT
ATOM      1  C   UNL     1      45.259   4.969  11.590  0.00  0.00    +0.000 A 
ATOM      2  C   UNL     1      44.822   6.181  11.043  0.00  0.00    +0.000 A 
ATOM      3  C   UNL     1      45.244   7.401  11.582  0.00  0.00    +0.000 A 
ATOM      4  C   UNL     1      46.120   7.436  12.676  0.00  0.00    +0.000 A 
ATOM      5  C   UNL     1      46.580   6.220  13.202  0.00  0.00    +0.000 A 
ATOM      6  C   UNL     1      46.159   5.000  12.661  0.00  0.00    +0.000 A 
ENDROOT
BRANCH   1   7
ATOM      7  C   UNL     1      44.739   3.655  11.056  0.00  0.00    +0.000 C 
BRANCH   7   8
ATOM      8  C   UNL     1      43.262   3.409  11.378  0.00  0.00    +0.000 C 
BRANCH   8   9
ATOM      9  N   UNL     1      43.038   2.004  11.732  0.00  0.00    +0.000 NA
ATOM     10  H   UNL     1      42.750   1.487  10.903  0.00  0.00    +0.000 HD
ATOM     11  H   UNL     1      42.265   1.937  12.391  0.00  0.00    +0.000 HD
ENDBRANCH   8   9
ENDBRANCH   7   8
ENDBRANCH   1   7
BRANCH   4  12
ATOM     12  C   UNL     1      46.572   8.746  13.269  0.00  0.00    +0.000 C 
BRANCH  12  13
ATOM     13  N   UNL     1      47.275   9.600  12.310  0.00  0.00    +0.000 N 
ATOM     14  C   UNL     1      46.776  10.786  11.823  0.00  0.00    +0.000 A 
ATOM     15  C   UNL     1      47.777  11.415  11.116  0.00  0.00    +0.000 A 
ATOM     16  C   UNL     1      48.931  10.586  11.170  0.00  0.00    +0.000 A 
ATOM     17  C   UNL     1      50.237  10.706  10.676  0.00  0.00    +0.000 A 
ATOM     18  N   UNL     1      51.152   9.731  10.894  0.00  0.00    +0.000 NA
ATOM     19  C   UNL     1      50.778   8.635  11.586  0.00  0.00    +0.000 A 
ATOM     20  C   UNL     1      49.513   8.419  12.116  0.00  0.00    +0.000 A 
ATOM     21  C   UNL     1      48.586   9.443  11.899  0.00  0.00    +0.000 A 
ENDBRANCH  12  13
ENDBRANCH   4  12
TORSDOF 5
ENDMDL
MODEL 9
REMARK VINA RESULT:    -4.857      4.450      6.795
REMARK INTER + INTRA:          -6.728
REMARK INTER:                  -6.148
REMARK INTRA:                  -0.580
REMARK UNBOUND:                -0.593
REMARK  Name = 
REMARK  5 active torsions:
REMARK  status: ('A' for Active; 'I' for Inactive)
REMARK    1  A    between atoms: N_1  and  C_2
REMARK    2  A    between atoms: C_2  and  C_3
REMARK    3  A    between atoms: C_3  and  C_4
REMARK    4  A    between atoms: C_7  and  C_8
REMARK    5  A    between atoms: C_8  and  N_9
REMARK                            x       y       z     vdW  Elec       q    Type
REMARK                         _______ _______ _______ _____ _____    ______ ____
ROOT
ATOM      1  C   UNL     1      44.916   5.317  12.960  0.00  0.00    +0.000 A 
ATOM      2  C   UNL     1      45.209   6.636  12.598  0.00  0.00    +0.000 A 
ATOM      3  C   UNL     1      46.450   7.203  12.909  0.00  0.00    +0.000 A 
ATOM      4  C   UNL     1      47.429   6.459  13.583  0.00  0.00    +0.000 A 
ATOM      5  C   UNL     1      47.142   5.128  13.917  0.00  0.00    +0.000 A 
ATOM      6  C   UNL     1      45.903   4.561  13.603  0.00  0.00    +0.000 A 
ENDROOT
BRANCH   1   7
ATOM      7  C   UNL     1      43.548   4.735  12.692  0.00  0.00    +0.000 C 
BRANCH   7   8
ATOM      8  C   UNL     1      42.876   5.309  11.441  0.00  0.00    +0.000 C 
BRANCH   8   9
ATOM      9  N   UNL     1      41.874   6.314  11.809  0.00  0.00    +0.000 NA
ATOM     10  H   UNL     1      42.214   6.858  12.601  0.00  0.00    +0.000 HD
ATOM     11  H   UNL     1      41.025   5.851  12.126  0.00  0.00    +0.000 HD
ENDBRANCH   8   9
ENDBRANCH   7   8
ENDBRANCH   1   7
BRANCH   4  12
ATOM     12  C   UNL     1      48.764   7.066  13.932  0.00  0.00    +0.000 C 
BRANCH  12  13
ATOM     13  N   UNL     1      48.763   7.755  15.223  0.00  0.00    +0.000 N 
ATOM     14  C   UNL     1      48.371   9.061  15.400  0.00  0.00    +0.000 A 
ATOM     15  C   UNL     1      48.303   9.310  16.752  0.00  0.00    +0.000 A 
ATOM     16  C   UNL     1      48.667   8.115  17.431  0.00  0.00    +0.000 A 
ATOM     17  C   UNL     1      48.753   7.752  18.782  0.00  0.00    +0.000 A 
ATOM     18  N   UNL     1      49.135   6.503  19.141  0.00  0.00    +0.000 NA
ATOM     19  C   UNL     1      49.445   5.617  18.171  0.00  0.00    +0.000 A 
ATOM     20  C   UNL     1      49.393   5.876  16.808  0.00  0.00    +0.000 A 
ATOM     21  C   UNL     1      48.979   7.163  16.454  0.00  0.00    +0.000 A 
ENDBRANCH  12  13
ENDBRANCH   4  12
TORSDOF 5
ENDMDL
