MODEL 1
REMARK VINA RESULT:    -7.160      0.000      0.000
REMARK INTER + INTRA:         -10.000
REMARK INTER:                  -9.252
REMARK INTRA:                  -0.748
REMARK UNBOUND:                -0.748
REMARK  Name = 
REMARK  6 active torsions:
REMARK  status: ('A' for Active; 'I' for Inactive)
REMARK    1  A    between atoms: C_1  and  C_2
REMARK    2  A    between atoms: C_2  and  C_3
REMARK    3  A    between atoms: C_2  and  C_16
REMARK    4  A    between atoms: C_3  and  N_4
REMARK    5  A    between atoms: C_9  and  O_10
REMARK    6  A    between atoms: O_10  and  C_11
REMARK                            x       y       z     vdW  Elec       q    Type
REMARK                         _______ _______ _______ _____ _____    ______ ____
ROOT
ATOM      1  N   UNL     1      44.210   5.308  12.304  0.00  0.00    +0.000 N 
ATOM      2  C   UNL     1      45.510   5.655  12.652  0.00  0.00    +0.000 A 
ATOM      3  N   UNL     1      45.981   5.122  13.787  0.00  0.00    +0.000 NA
ATOM      4  C   UNL     1      47.251   5.425  14.117  0.00  0.00    +0.000 A 
ATOM      5  C   UNL     1      48.065   6.221  13.352  0.00  0.00    +0.000 A 
ATOM      6  C   UNL     1      47.485   6.700  12.207  0.00  0.00    +0.000 A 
ATOM      7  N   UNL     1      46.224   6.440  11.843  0.00  0.00    +0.000 NA
ATOM      8  H   UNL     1      44.023   4.440  12.797  0.00  0.00    +0.000 HD
ENDROOT
BRANCH   1   9
ATOM      9  C   UNL     1      43.992   5.266  10.864  0.00  0.00    +0.000 C 
BRANCH   9  11
ATOM     10  C   UNL     1      43.522   2.859  11.532  0.00  0.00    +0.000 C 
ATOM     11  C   UNL     1      43.712   3.834  10.362  0.00  0.00    +0.000 C 
BRANCH  11  12
ATOM     12  C   UNL     1      44.743   3.374   9.342  0.00  0.00    +0.000 A 
ATOM     13  C   UNL     1      45.412   4.322   8.547  0.00  0.00    +0.000 A 
ATOM     14  C   UNL     1      46.365   3.915   7.612  0.00  0.00    +0.000 A 
ATOM     15  C   UNL     1      46.665   2.563   7.463  0.00  0.00    +0.000 A 
ATOM     16 CL   UNL     1      47.828   2.058   6.304  0.00  0.00    +0.000 Cl
ATOM     17  C   UNL     1      46.024   1.612   8.254  0.00  0.00    +0.000 A 
ATOM     18  C   UNL     1      45.077   2.017   9.190  0.00  0.00    +0.000 A 
ENDBRANCH  11  12
ENDBRANCH   9  11
ENDBRANCH   1   9
BRANCH   6  19
ATOM     19  O   UNL     1      48.255   7.487  11.372  0.00  0.00    +0.000 OA
BRANCH  19  20
ATOM     20  C   UNL     1      49.500   7.961  11.954  0.00  0.00    +0.000 C 
ATOM     21  C   UNL     1      49.792   9.468  11.820  0.00  0.00    +0.000 C 
ATOM     22  N   UNL     1      51.100   9.181  11.216  0.00  0.00    +0.000 NA
ATOM     23  C   UNL     1      50.768   7.753  11.106  0.00  0.00    +0.000 C 
ATOM     24  H   UNL     1      51.891   9.379  11.827  0.00  0.00    +0.000 HD
ENDBRANCH  19  20
ENDBRANCH   6  19
TORSDOF 5
ENDMDL
MODEL 2
REMARK VINA RESULT:    -7.062      2.468      3.074
REMARK INTER + INTRA:          -9.875
REMARK INTER:                  -9.244
REMARK INTRA:                  -0.631
REMARK UNBOUND:                -0.748
REMARK  Name = 
REMARK  6 active torsions:
REMARK  status: ('A' for Active; 'I' for Inactive)
REMARK    1  A    between atoms: C_1  and  C_2
REMARK    2  A    between atoms: C_2  and  C_3
REMARK    3  A    between atoms: C_2  and  C_16
REMARK    4  A    between atoms: C_3  and  N_4
REMARK    5  A    between atoms: C_9  and  O_10
REMARK    6  A    between atoms: O_10  and  C_11
REMARK                            x       y       z     vdW  Elec       q    Type
REMARK                         _______ _______ _______ _____ _____    ______ ____
ROOT
ATOM      1  N   UNL     1      45.335   4.837  12.023  0.00  0.00    +0.000 N 
ATOM      2  C   UNL     1      45.911   6.005  12.509  0.00  0.00    +0.000 A 
ATOM      3  N   UNL     1      47.169   5.902  12.955  0.00  0.00    +0.000 NA
ATOM      4  C   UNL     1      47.749   7.035  13.397  0.00  0.00    +0.000 A 
ATOM      5  C   UNL     1      47.127   8.257  13.394  0.00  0.00    +0.000 A 
ATOM      6  C   UNL     1      45.848   8.248  12.904  0.00  0.00    +0.000 A 
ATOM      7  N   UNL     1      45.223   7.148  12.467  0.00  0.00    +0.000 NA
ATOM      8  H   UNL     1      46.115   4.235  11.777  0.00  0.00    +0.000 HD
ENDROOT
BRANCH   1   9
ATOM      9  C   UNL     1      44.369   5.072  10.957  0.00  0.00    +0.000 C 
BRANCH   9  11
ATOM     10  C   UNL     1      43.602   2.673  11.296  0.00  0.00    +0.000 C 
ATOM     11  C   UNL     1      43.938   3.761  10.267  0.00  0.00    +0.000 C 
BRANCH  11  12
ATOM     12  C   UNL     1      44.938   3.317   9.209  0.00  0.00    +0.000 A 
ATOM     13  C   UNL     1      45.570   4.276   8.398  0.00  0.00    +0.000 A 
ATOM     14  C   UNL     1      46.493   3.884   7.427  0.00  0.00    +0.000 A 
ATOM     15  C   UNL     1      46.800   2.535   7.259  0.00  0.00    +0.000 A 
ATOM     16 CL   UNL     1      47.927   2.049   6.057  0.00  0.00    +0.000 Cl
ATOM     17  C   UNL     1      46.195   1.574   8.065  0.00  0.00    +0.000 A 
ATOM     18  C   UNL     1      45.278   1.964   9.036  0.00  0.00    +0.000 A 
ENDBRANCH  11  12
ENDBRANCH   9  11
ENDBRANCH   1   9
BRANCH   6  19
ATOM     19  O   UNL     1      45.169   9.450  12.844  0.00  0.00    +0.000 OA
BRANCH  19  20
ATOM     20  C   UNL     1      44.975   9.978  11.505  0.00  0.00    +0.000 C 
ATOM     21  C   UNL     1      44.946  11.513  11.367  0.00  0.00    +0.000 C 
ATOM     22  N   UNL     1      43.651  11.447  10.677  0.00  0.00    +0.000 NA
ATOM     23  C   UNL     1      43.523  10.016  10.993  0.00  0.00    +0.000 C 
ATOM     24  H   UNL     1      43.702  11.649   9.680  0.00  0.00    +0.000 HD
ENDBRANCH  19  20
ENDBRANCH   6  19
TORSDOF 5
ENDMDL
MODEL 3
REMARK VINA RESULT:    -7.061      1.056      1.560
REMARK INTER + INTRA:          -9.873
REMARK INTER:                  -9.099
REMARK INTRA:                  -0.774
REMARK UNBOUND:                -0.748
REMARK  Name = 
REMARK  6 active torsions:
REMARK  status: ('A' for Active; 'I' for Inactive)
REMARK    1  A    between atoms: C_1  and  C_2
REMARK    2  A    between atoms: C_2  and  C_3
REMARK    3  A    between atoms: C_2  and  C_16
REMARK    4  A    between atoms: C_3  and  N_4
REMARK    5  A    between atoms: C_9  and  O_10
REMARK    6  A    between atoms: O_10  and  C_11
REMARK                            x       y       z     vdW  Elec       q    Type
REMARK                         _______ _______ _______ _____ _____    ______ ____
ROOT
ATOM      1  N   UNL     1      43.990   4.985  12.674  0.00  0.00    +0.000 N 
ATOM      2  C   UNL     1      45.298   5.350  12.967  0.00  0.00    +0.000 A 
ATOM      3  N   UNL     1      45.861   4.741  14.019  0.00  0.00    +0.000 NA
ATOM      4  C   UNL     1      47.140   5.062  14.291  0.00  0.00    +0.000 A 
ATOM      5  C   UNL     1      47.875   5.950  13.548  0.00  0.00    +0.000 A 
ATOM      6  C   UNL     1      47.205   6.503  12.489  0.00  0.00    +0.000 A 
ATOM      7  N   UNL     1      45.931   6.227  12.185  0.00  0.00    +0.000 NA
ATOM      8  H   UNL     1      43.864   4.072  13.100  0.00  0.00    +0.000 HD
ENDROOT
BRANCH   1   9
ATOM      9  C   UNL     1      43.677   5.057  11.252  0.00  0.00    +0.000 C 
BRANCH   9  11
ATOM     10  C   UNL     1      43.375   2.576  11.708  0.00  0.00    +0.000 C 
ATOM     11  C   UNL     1      43.496   3.659  10.627  0.00  0.00    +0.000 C 
BRANCH  11  12
ATOM     12  C   UNL     1      44.556   3.360   9.577  0.00  0.00    +0.000 A 
ATOM     13  C   UNL     1      44.907   2.028   9.297  0.00  0.00    +0.000 A 
ATOM     14  C   UNL     1      45.873   1.739   8.332  0.00  0.00    +0.000 A 
ATOM     15  C   UNL     1      46.494   2.772   7.634  0.00  0.00    +0.000 A 
ATOM     16 CL   UNL     1      47.692   2.420   6.454  0.00  0.00    +0.000 Cl
ATOM     17  C   UNL     1      46.146   4.097   7.887  0.00  0.00    +0.000 A 
ATOM     18  C   UNL     1      45.180   4.386   8.846  0.00  0.00    +0.000 A 
ENDBRANCH  11  12
ENDBRANCH   9  11
ENDBRANCH   1   9
BRANCH   6  19
ATOM     19  O   UNL     1      47.892   7.386  11.677  0.00  0.00    +0.000 OA
BRANCH  19  20
ATOM     20  C   UNL     1      48.205   8.665  12.292  0.00  0.00    +0.000 C 
ATOM     21  C   UNL     1      47.134   9.766  12.171  0.00  0.00    +0.000 C 
ATOM     22  N   UNL     1      48.120  10.692  11.599  0.00  0.00    +0.000 NA
ATOM     23  C   UNL     1      49.107   9.608  11.475  0.00  0.00    +0.000 C 
ATOM     24  H   UNL     1      48.402  11.440  12.231  0.00  0.00    +0.000 HD
ENDBRANCH  19  20
ENDBRANCH   6  19
TORSDOF 5
ENDMDL
MODEL 4
REMARK VINA RESULT:    -7.037      2.154      4.050
REMARK INTER + INTRA:          -9.843
REMARK INTER:                  -9.343
REMARK INTRA:                  -0.499
REMARK UNBOUND:                -0.748
REMARK  Name = 
REMARK  6 active torsions:
REMARK  status: ('A' for Active; 'I' for Inactive)
REMARK    1  A    between atoms: C_1  and  C_2
REMARK    2  A    between atoms: C_2  and  C_3
REMARK    3  A    between atoms: C_2  and  C_16
REMARK    4  A    between atoms: C_3  and  N_4
REMARK    5  A    between atoms: C_9  and  O_10
REMARK    6  A    between atoms: O_10  and  C_11
REMARK                            x       y       z     vdW  Elec       q    Type
REMARK                         _______ _______ _______ _____ _____    ______ ____
ROOT
ATOM      1  N   UNL     1      46.219   6.046  11.722  0.00  0.00    +0.000 N 
ATOM      2  C   UNL     1      47.031   6.452  12.773  0.00  0.00    +0.000 A 
ATOM      3  N   UNL     1      47.350   7.753  12.806  0.00  0.00    +0.000 NA
ATOM      4  C   UNL     1      48.109   8.164  13.839  0.00  0.00    +0.000 A 
ATOM      5  C   UNL     1      48.544   7.333  14.840  0.00  0.00    +0.000 A 
ATOM      6  C   UNL     1      48.148   6.028  14.713  0.00  0.00    +0.000 A 
ATOM      7  N   UNL     1      47.407   5.568  13.699  0.00  0.00    +0.000 NA
ATOM      8  H   UNL     1      45.746   6.888  11.407  0.00  0.00    +0.000 HD
ENDROOT
BRANCH   1   9
ATOM      9  C   UNL     1      45.343   4.933  12.068  0.00  0.00    +0.000 C 
BRANCH   9  11
ATOM     10  C   UNL     1      43.115   3.868  11.469  0.00  0.00    +0.000 C 
ATOM     11  C   UNL     1      44.352   4.602  10.933  0.00  0.00    +0.000 C 
BRANCH  11  12
ATOM     12  C   UNL     1      45.030   3.892   9.771  0.00  0.00    +0.000 A 
ATOM     13  C   UNL     1      45.028   2.487   9.712  0.00  0.00    +0.000 A 
ATOM     14  C   UNL     1      45.641   1.822   8.649  0.00  0.00    +0.000 A 
ATOM     15  C   UNL     1      46.256   2.549   7.632  0.00  0.00    +0.000 A 
ATOM     16 CL   UNL     1      47.021   1.734   6.328  0.00  0.00    +0.000 Cl
ATOM     17  C   UNL     1      46.253   3.942   7.666  0.00  0.00    +0.000 A 
ATOM     18  C   UNL     1      45.638   4.605   8.723  0.00  0.00    +0.000 A 
ENDBRANCH  11  12
ENDBRANCH   9  11
ENDBRANCH   1   9
BRANCH   6  19
ATOM     19  O   UNL     1      48.526   5.138  15.701  0.00  0.00    +0.000 OA
BRANCH  19  20
ATOM     20  C   UNL     1      47.442   4.352  16.264  0.00  0.00    +0.000 C 
ATOM     21  C   UNL     1      47.068   4.647  17.730  0.00  0.00    +0.000 C 
ATOM     22  N   UNL     1      47.224   3.229  18.077  0.00  0.00    +0.000 NA
ATOM     23  C   UNL     1      47.811   2.941  16.759  0.00  0.00    +0.000 C 
ATOM     24  H   UNL     1      46.344   2.746  18.254  0.00  0.00    +0.000 HD
ENDBRANCH  19  20
ENDBRANCH   6  19
TORSDOF 5
ENDMDL
MODEL 5
REMARK VINA RESULT:    -6.811      1.581      2.248
REMARK INTER + INTRA:          -9.550
REMARK INTER:                  -9.012
REMARK INTRA:                  -0.538
REMARK UNBOUND:                -0.748
REMARK  Name = 
REMARK  6 active torsions:
REMARK  status: ('A' for Active; 'I' for Inactive)
REMARK    1  A    between atoms: C_1  and  C_2
REMARK    2  A    between atoms: C_2  and  C_3
REMARK    3  A    between atoms: C_2  and  C_16
REMARK    4  A    between atoms: C_3  and  N_4
REMARK    5  A    between atoms: C_9  and  O_10
REMARK    6  A    between atoms: O_10  and  C_11
REMARK                            x       y       z     vdW  Elec       q    Type
REMARK                         _______ _______ _______ _____ _____    ______ ____
ROOT
ATOM      1  N   UNL     1      44.380   6.331  11.037  0.00  0.00    +0.000 N 
ATOM      2  C   UNL     1      45.348   7.229  11.468  0.00  0.00    +0.000 A 
ATOM      3  N   UNL     1      44.933   8.483  11.693  0.00  0.00    +0.000 NA
ATOM      4  C   UNL     1      45.856   9.354  12.143  0.00  0.00    +0.000 A 
ATOM      5  C   UNL     1      47.162   9.018  12.389  0.00  0.00    +0.000 A 
ATOM      6  C   UNL     1      47.473   7.707  12.136  0.00  0.00    +0.000 A 
ATOM      7  N   UNL     1      46.597   6.807  11.676  0.00  0.00    +0.000 NA
ATOM      8  H   UNL     1      43.494   6.729  11.332  0.00  0.00    +0.000 HD
ENDROOT
BRANCH   1   9
ATOM      9  C   UNL     1      44.626   4.964  11.480  0.00  0.00    +0.000 C 
BRANCH   9  11
ATOM     10  C   UNL     1      43.325   2.783  11.367  0.00  0.00    +0.000 C 
ATOM     11  C   UNL     1      43.952   3.926  10.558  0.00  0.00    +0.000 C 
BRANCH  11  12
ATOM     12  C   UNL     1      44.884   3.454   9.452  0.00  0.00    +0.000 A 
ATOM     13  C   UNL     1      45.136   2.080   9.289  0.00  0.00    +0.000 A 
ATOM     14  C   UNL     1      45.984   1.632   8.275  0.00  0.00    +0.000 A 
ATOM     15  C   UNL     1      46.585   2.545   7.411  0.00  0.00    +0.000 A 
ATOM     16 CL   UNL     1      47.639   1.997   6.170  0.00  0.00    +0.000 Cl
ATOM     17  C   UNL     1      46.334   3.909   7.549  0.00  0.00    +0.000 A 
ATOM     18  C   UNL     1      45.485   4.356   8.556  0.00  0.00    +0.000 A 
ENDBRANCH  11  12
ENDBRANCH   9  11
ENDBRANCH   1   9
BRANCH   6  19
ATOM     19  O   UNL     1      48.766   7.289  12.388  0.00  0.00    +0.000 OA
BRANCH  19  20
ATOM     20  C   UNL     1      49.502   8.110  13.335  0.00  0.00    +0.000 C 
ATOM     21  C   UNL     1      50.976   8.402  12.992  0.00  0.00    +0.000 C 
ATOM     22  N   UNL     1      51.402   7.898  14.303  0.00  0.00    +0.000 NA
ATOM     23  C   UNL     1      50.050   7.387  14.578  0.00  0.00    +0.000 C 
ATOM     24  H   UNL     1      51.711   8.625  14.947  0.00  0.00    +0.000 HD
ENDBRANCH  19  20
ENDBRANCH   6  19
TORSDOF 5
ENDMDL
MODEL 6
REMARK VINA RESULT:    -6.729      4.345      7.838
REMARK INTER + INTRA:          -9.444
REMARK INTER:                  -8.868
REMARK INTRA:                  -0.575
REMARK UNBOUND:                -0.748
REMARK  Name = 
REMARK  6 active torsions:
REMARK  status: ('A' for Active; 'I' for Inactive)
REMARK    1  A    between atoms: C_1  and  C_2
REMARK    2  A    between atoms: C_2  and  C_3
REMARK    3  A    between atoms: C_2  and  C_16
REMARK    4  A    between atoms: C_3  and  N_4
REMARK    5  A    between atoms: C_9  and  O_10
REMARK    6  A    between atoms: O_10  and  C_11
REMARK                            x       y       z     vdW  Elec       q    Type
REMARK                         _______ _______ _______ _____ _____    ______ ____
ROOT
ATOM      1  N   UNL     1      47.666   5.531  15.345  0.00  0.00    +0.000 N 
ATOM      2  C   UNL     1      47.317   5.867  14.043  0.00  0.00    +0.000 A 
ATOM      3  N   UNL     1      48.161   6.681  13.395  0.00  0.00    +0.000 NA
ATOM      4  C   UNL     1      47.850   6.987  12.121  0.00  0.00    +0.000 A 
ATOM      5  C   UNL     1      46.745   6.500  11.472  0.00  0.00    +0.000 A 
ATOM      6  C   UNL     1      45.959   5.667  12.224  0.00  0.00    +0.000 A 
ATOM      7  N   UNL     1      46.217   5.345  13.497  0.00  0.00    +0.000 NA
ATOM      8  H   UNL     1      48.668   5.685  15.402  0.00  0.00    +0.000 HD
ENDROOT
BRANCH   1   9
ATOM      9  C   UNL     1      47.216   4.201  15.736  0.00  0.00    +0.000 C 
BRANCH   9  11
ATOM     10  C   UNL     1      47.125   5.027  18.138  0.00  0.00    +0.000 C 
ATOM     11  C   UNL     1      47.555   3.885  17.207  0.00  0.00    +0.000 C 
BRANCH  11  12
ATOM     12  C   UNL     1      49.007   3.466  17.382  0.00  0.00    +0.000 A 
ATOM     13  C   UNL     1      49.422   2.189  16.964  0.00  0.00    +0.000 A 
ATOM     14  C   UNL     1      50.752   1.793  17.112  0.00  0.00    +0.000 A 
ATOM     15  C   UNL     1      51.682   2.666  17.673  0.00  0.00    +0.000 A 
ATOM     16 CL   UNL     1      53.318   2.177  17.868  0.00  0.00    +0.000 Cl
ATOM     17  C   UNL     1      51.292   3.940  18.078  0.00  0.00    +0.000 A 
ATOM     18  C   UNL     1      49.967   4.337  17.926  0.00  0.00    +0.000 A 
ENDBRANCH  11  12
ENDBRANCH   9  11
ENDBRANCH   1   9
BRANCH   6  19
ATOM     19  O   UNL     1      44.842   5.116  11.625  0.00  0.00    +0.000 OA
BRANCH  19  20
ATOM     20  C   UNL     1      44.711   3.677  11.782  0.00  0.00    +0.000 C 
ATOM     21  C   UNL     1      44.062   2.914  10.611  0.00  0.00    +0.000 C 
ATOM     22  N   UNL     1      43.081   2.310  11.521  0.00  0.00    +0.000 NA
ATOM     23  C   UNL     1      43.512   3.192  12.617  0.00  0.00    +0.000 C 
ATOM     24  H   UNL     1      43.236   1.318  11.700  0.00  0.00    +0.000 HD
ENDBRANCH  19  20
ENDBRANCH   6  19
TORSDOF 5
ENDMDL
MODEL 7
REMARK VINA RESULT:    -6.374      4.412      7.151
REMARK INTER + INTRA:          -8.986
REMARK INTER:                  -8.438
REMARK INTRA:                  -0.547
REMARK UNBOUND:                -0.748
REMARK  Name = 
REMARK  6 active torsions:
REMARK  status: ('A' for Active; 'I' for Inactive)
REMARK    1  A    between atoms: C_1  and  C_2
REMARK    2  A    between atoms: C_2  and  C_3
REMARK    3  A    between atoms: C_2  and  C_16
REMARK    4  A    between atoms: C_3  and  N_4
REMARK    5  A    between atoms: C_9  and  O_10
REMARK    6  A    between atoms: O_10  and  C_11
REMARK                            x       y       z     vdW  Elec       q    Type
REMARK                         _______ _______ _______ _____ _____    ______ ____
ROOT
ATOM      1  N   UNL     1      47.153   3.427  14.561  0.00  0.00    +0.000 N 
ATOM      2  C   UNL     1      46.483   3.917  13.447  0.00  0.00    +0.000 A 
ATOM      3  N   UNL     1      45.606   3.084  12.870  0.00  0.00    +0.000 NA
ATOM      4  C   UNL     1      44.927   3.560  11.809  0.00  0.00    +0.000 A 
ATOM      5  C   UNL     1      45.078   4.832  11.319  0.00  0.00    +0.000 A 
ATOM      6  C   UNL     1      45.990   5.601  11.993  0.00  0.00    +0.000 A 
ATOM      7  N   UNL     1      46.700   5.169  13.042  0.00  0.00    +0.000 NA
ATOM      8  H   UNL     1      46.571   2.673  14.914  0.00  0.00    +0.000 HD
ENDROOT
BRANCH   1   9
ATOM      9  C   UNL     1      47.489   4.462  15.532  0.00  0.00    +0.000 C 
BRANCH   9  11
ATOM     10  C   UNL     1      47.113   4.819  18.020  0.00  0.00    +0.000 C 
ATOM     11  C   UNL     1      47.690   3.884  16.948  0.00  0.00    +0.000 C 
BRANCH  11  12
ATOM     12  C   UNL     1      49.134   3.479  17.200  0.00  0.00    +0.000 A 
ATOM     13  C   UNL     1      49.536   2.149  16.985  0.00  0.00    +0.000 A 
ATOM     14  C   UNL     1      50.860   1.765  17.207  0.00  0.00    +0.000 A 
ATOM     15  C   UNL     1      51.796   2.701  17.639  0.00  0.00    +0.000 A 
ATOM     16 CL   UNL     1      53.423   2.229  17.925  0.00  0.00    +0.000 Cl
ATOM     17  C   UNL     1      51.419   4.027  17.842  0.00  0.00    +0.000 A 
ATOM     18  C   UNL     1      50.101   4.412  17.617  0.00  0.00    +0.000 A 
ENDBRANCH  11  12
ENDBRANCH   9  11
ENDBRANCH   1   9
BRANCH   6  19
ATOM     19  O   UNL     1      46.175   6.904  11.572  0.00  0.00    +0.000 OA
BRANCH  19  20
ATOM     20  C   UNL     1      45.712   7.919  12.502  0.00  0.00    +0.000 C 
ATOM     21  C   UNL     1      44.964   9.122  11.894  0.00  0.00    +0.000 C 
ATOM     22  N   UNL     1      45.883  10.055  12.557  0.00  0.00    +0.000 NA
ATOM     23  C   UNL     1      46.762   8.948  12.963  0.00  0.00    +0.000 C 
ATOM     24  H   UNL     1      45.468  10.563  13.337  0.00  0.00    +0.000 HD
ENDBRANCH  19  20
ENDBRANCH   6  19
TORSDOF 5
ENDMDL
MODEL 8
REMARK VINA RESULT:    -6.144      3.483      5.849
REMARK INTER + INTRA:          -8.689
REMARK INTER:                  -7.932
REMARK INTRA:                  -0.757
REMARK UNBOUND:                -0.748
REMARK  Name = 
REMARK  6 active torsions:
REMARK  status: ('A' for Active; 'I' for Inactive)
REMARK    1  A    between atoms: C_1  and  C_2
REMARK    2  A    between atoms: C_2  and  C_3
REMARK    3  A    between atoms: C_2  and  C_16
REMARK    4  A    between atoms: C_3  and  N_4
REMARK    5  A    between atoms: C_9  and  O_10
REMARK    6  A    between atoms: O_10  and  C_11
REMARK                            x       y       z     vdW  Elec       q    Type
REMARK                         _______ _______ _______ _____ _____    ______ ____
ROOT
ATOM      1  N   UNL     1      49.219   8.088  13.420  0.00  0.00    +0.000 N 
ATOM      2  C   UNL     1      49.135   7.746  14.764  0.00  0.00    +0.000 A 
ATOM      3  N   UNL     1      48.826   8.738  15.609  0.00  0.00    +0.000 NA
ATOM      4  C   UNL     1      48.710   8.411  16.910  0.00  0.00    +0.000 A 
ATOM      5  C   UNL     1      48.873   7.137  17.390  0.00  0.00    +0.000 A 
ATOM      6  C   UNL     1      49.174   6.200  16.437  0.00  0.00    +0.000 A 
ATOM      7  N   UNL     1      49.315   6.477  15.136  0.00  0.00    +0.000 NA
ATOM      8  H   UNL     1      48.674   8.940  13.325  0.00  0.00    +0.000 HD
ENDROOT
BRANCH   1   9
ATOM      9  C   UNL     1      48.838   7.003  12.525  0.00  0.00    +0.000 C 
BRANCH   9  11
ATOM     10  C   UNL     1      46.963   8.679  12.163  0.00  0.00    +0.000 C 
ATOM     11  C   UNL     1      47.531   7.310  11.765  0.00  0.00    +0.000 C 
BRANCH  11  12
ATOM     12  C   UNL     1      46.525   6.174  11.874  0.00  0.00    +0.000 A 
ATOM     13  C   UNL     1      45.692   5.871  10.783  0.00  0.00    +0.000 A 
ATOM     14  C   UNL     1      44.769   4.827  10.866  0.00  0.00    +0.000 A 
ATOM     15  C   UNL     1      44.670   4.073  12.033  0.00  0.00    +0.000 A 
ATOM     16 CL   UNL     1      43.527   2.796  12.143  0.00  0.00    +0.000 Cl
ATOM     17  C   UNL     1      45.499   4.349  13.118  0.00  0.00    +0.000 A 
ATOM     18  C   UNL     1      46.423   5.386  13.034  0.00  0.00    +0.000 A 
ENDBRANCH  11  12
ENDBRANCH   9  11
ENDBRANCH   1   9
BRANCH   6  19
ATOM     19  O   UNL     1      49.326   4.888  16.844  0.00  0.00    +0.000 OA
BRANCH  19  20
ATOM     20  C   UNL     1      48.212   4.013  16.519  0.00  0.00    +0.000 C 
ATOM     21  C   UNL     1      46.906   4.241  17.305  0.00  0.00    +0.000 C 
ATOM     22  N   UNL     1      46.876   2.828  17.703  0.00  0.00    +0.000 NA
ATOM     23  C   UNL     1      48.231   2.619  17.171  0.00  0.00    +0.000 C 
ATOM     24  H   UNL     1      46.155   2.280  17.234  0.00  0.00    +0.000 HD
ENDBRANCH  19  20
ENDBRANCH   6  19
TORSDOF 5
ENDMDL
MODEL 9
REMARK VINA RESULT:    -5.778      3.398      4.124
REMARK INTER + INTRA:          -8.215
REMARK INTER:                  -7.687
REMARK INTRA:                  -0.529
REMARK UNBOUND:                -0.748
REMARK  Name = 
REMARK  6 active torsions:
REMARK  status: ('A' for Active; 'I' for Inactive)
REMARK    1  A    between atoms: C_1  and  C_2
REMARK    2  A    between atoms: C_2  and  C_3
REMARK    3  A    between atoms: C_2  and  C_16
REMARK    4  A    between atoms: C_3  and  N_4
REMARK    5  A    between atoms: C_9  and  O_10
REMARK    6  A    between atoms: O_10  and  C_11
REMARK                            x       y       z     vdW  Elec       q    Type
REMARK                         _______ _______ _______ _____ _____    ______ ____
ROOT
ATOM      1  N   UNL     1      45.957   4.592  14.588  0.00  0.00    +0.000 N 
ATOM      2  C   UNL     1      46.987   4.493  15.514  0.00  0.00    +0.000 A 
ATOM      3  N   UNL     1      46.888   3.497  16.404  0.00  0.00    +0.000 NA
ATOM      4  C   UNL     1      47.898   3.370  17.286  0.00  0.00    +0.000 A 
ATOM      5  C   UNL     1      49.000   4.186  17.300  0.00  0.00    +0.000 A 
ATOM      6  C   UNL     1      49.003   5.162  16.339  0.00  0.00    +0.000 A 
ATOM      7  N   UNL     1      48.019   5.337  15.450  0.00  0.00    +0.000 NA
ATOM      8  H   UNL     1      45.533   3.670  14.557  0.00  0.00    +0.000 HD
ENDROOT
BRANCH   1   9
ATOM      9  C   UNL     1      46.390   5.121  13.300  0.00  0.00    +0.000 C 
BRANCH   9  11
ATOM     10  C   UNL     1      43.860   5.268  13.116  0.00  0.00    +0.000 C 
ATOM     11  C   UNL     1      45.197   5.518  12.406  0.00  0.00    +0.000 C 
BRANCH  11  12
ATOM     12  C   UNL     1      45.284   4.887  11.024  0.00  0.00    +0.000 A 
ATOM     13  C   UNL     1      45.847   5.612   9.959  0.00  0.00    +0.000 A 
ATOM     14  C   UNL     1      45.940   5.044   8.687  0.00  0.00    +0.000 A 
ATOM     15  C   UNL     1      45.477   3.749   8.465  0.00  0.00    +0.000 A 
ATOM     16 CL   UNL     1      45.578   3.052   6.898  0.00  0.00    +0.000 Cl
ATOM     17  C   UNL     1      44.930   3.011   9.513  0.00  0.00    +0.000 A 
ATOM     18  C   UNL     1      44.843   3.575  10.782  0.00  0.00    +0.000 A 
ENDBRANCH  11  12
ENDBRANCH   9  11
ENDBRANCH   1   9
BRANCH   6  19
ATOM     19  O   UNL     1      50.097   6.004  16.275  0.00  0.00    +0.000 OA
BRANCH  19  20
ATOM     20  C   UNL     1      51.017   5.900  17.395  0.00  0.00    +0.000 C 
ATOM     21  C   UNL     1      51.466   7.224  18.043  0.00  0.00    +0.000 C 
ATOM     22  N   UNL     1      52.876   6.855  17.869  0.00  0.00    +0.000 NA
ATOM     23  C   UNL     1      52.501   5.700  17.039  0.00  0.00    +0.000 C 
ATOM     24  H   UNL     1      53.350   6.608  18.736  0.00  0.00    +0.000 HD
ENDBRANCH  19  20
ENDBRANCH   6  19
TORSDOF 5
ENDMDL
