MODEL 1
REMARK VINA RESULT:    -7.052      0.000      0.000
REMARK INTER + INTRA:         -12.622
REMARK INTER:                 -10.762
REMARK INTRA:                  -1.860
REMARK UNBOUND:                -1.860
REMARK  Name = 
REMARK  10 active torsions:
REMARK  status: ('A' for Active; 'I' for Inactive)
REMARK    1  A    between atoms: C_1  and  C_2
REMARK    2  A    between atoms: C_2  and  C_3
REMARK    3  A    between atoms: C_3  and  N_4
REMARK    4  A    between atoms: N_4  and  C_5
REMARK    5  A    between atoms: C_5  and  C_6
REMARK    6  A    between atoms: C_9  and  C_10
REMARK    7  A    between atoms: C_10  and  C_11
REMARK    8  A    between atoms: C_11  and  N_12
REMARK    9  A    between atoms: N_12  and  C_13
REMARK   10  A    between atoms: C_20  and  C_22
REMARK                            x       y       z     vdW  Elec       q    Type
REMARK                         _______ _______ _______ _____ _____    ______ ____
ROOT
ATOM      1  N   UNL     1      46.104   7.203  12.192  0.00  0.00    +0.000 N 
ATOM      2  C   UNL     1      44.863   6.776  11.654  0.00  0.00    +0.000 C 
ATOM      3  O   UNL     1      44.017   7.588  11.286  0.00  0.00    +0.000 OA
ENDROOT
BRANCH   2   4
ATOM      4  C   UNL     1      44.537   5.339  11.583  0.00  0.00    +0.000 A 
ATOM      5  C   UNL     1      43.787   4.656  12.526  0.00  0.00    +0.000 A 
ATOM      6  S   UNL     1      43.510   3.018  12.128  0.00  0.00    +0.000 S 
ATOM      7  C   UNL     1      44.201   3.226  10.591  0.00  0.00    +0.000 A 
ATOM      8  N   UNL     1      44.155   2.230   9.659  0.00  0.00    +0.000 NA
ATOM      9  C   UNL     1      44.648   2.562   8.514  0.00  0.00    +0.000 A 
ATOM     10  N   UNL     1      45.231   3.770   8.225  0.00  0.00    +0.000 N 
ATOM     11  C   UNL     1      45.429   4.750   9.182  0.00  0.00    +0.000 A 
ATOM     12  O   UNL     1      46.167   5.705   8.963  0.00  0.00    +0.000 OA
ATOM     13  C   UNL     1      44.763   4.481  10.441  0.00  0.00    +0.000 A 
ATOM     14  H   UNL     1      45.660   3.940   7.330  0.00  0.00    +0.000 HD
ENDBRANCH   2   4
BRANCH   1  15
ATOM     15  C   UNL     1      46.346   8.655  12.202  0.00  0.00    +0.000 C 
BRANCH  15  17
ATOM     16  C   UNL     1      48.307  10.053  13.103  0.00  0.00    +0.000 C 
ATOM     17  C   UNL     1      47.803   9.100  12.031  0.00  0.00    +0.000 C 
ENDBRANCH  15  17
ENDBRANCH   1  15
BRANCH   1  18
ATOM     18  C   UNL     1      47.249   6.291  12.310  0.00  0.00    +0.000 C 
BRANCH  18  19
ATOM     19  C   UNL     1      47.646   5.757  13.667  0.00  0.00    +0.000 A 
ATOM     20  C   UNL     1      48.407   6.514  14.562  0.00  0.00    +0.000 A 
ATOM     21  C   UNL     1      48.509   6.133  15.902  0.00  0.00    +0.000 A 
ATOM     22  C   UNL     1      47.807   5.023  16.397  0.00  0.00    +0.000 A 
ATOM     23  C   UNL     1      47.120   4.215  15.483  0.00  0.00    +0.000 A 
ATOM     24  C   UNL     1      47.041   4.579  14.135  0.00  0.00    +0.000 A 
BRANCH  22  25
ATOM     25  C   UNL     1      47.735   4.712  17.884  0.00  0.00    +0.000 C 
BRANCH  25  26
ATOM     26  C   UNL     1      48.386   3.357  18.225  0.00  0.00    +0.000 C 
BRANCH  26  27
ATOM     27  N   UNL     1      49.728   3.468  18.806  0.00  0.00    +0.000 NA
ATOM     28  H   UNL     1      49.864   2.711  19.476  0.00  0.00    +0.000 HD
BRANCH  27  29
ATOM     29  C   UNL     1      50.765   3.365  17.753  0.00  0.00    +0.000 C 
ATOM     30  C   UNL     1      50.600   2.067  16.973  0.00  0.00    +0.000 C 
ATOM     31  C   UNL     1      51.442   1.086  17.762  0.00  0.00    +0.000 C 
ATOM     32  N   UNL     1      52.648   1.841  18.118  0.00  0.00    +0.000 NA
ATOM     33  C   UNL     1      52.217   3.243  18.273  0.00  0.00    +0.000 C 
ATOM     34  H   UNL     1      53.316   1.785  17.351  0.00  0.00    +0.000 HD
ENDBRANCH  27  29
ENDBRANCH  26  27
ENDBRANCH  25  26
ENDBRANCH  22  25
ENDBRANCH  18  19
ENDBRANCH   1  18
TORSDOF 9
ENDMDL
MODEL 2
REMARK VINA RESULT:    -6.482      1.702      2.762
REMARK INTER + INTRA:         -11.753
REMARK INTER:                  -9.937
REMARK INTRA:                  -1.816
REMARK UNBOUND:                -1.860
REMARK  Name = 
REMARK  10 active torsions:
REMARK  status: ('A' for Active; 'I' for Inactive)
REMARK    1  A    between atoms: C_1  and  C_2
REMARK    2  A    between atoms: C_2  and  C_3
REMARK    3  A    between atoms: C_3  and  N_4
REMARK    4  A    between atoms: N_4  and  C_5
REMARK    5  A    between atoms: C_5  and  C_6
REMARK    6  A    between atoms: C_9  and  C_10
REMARK    7  A    between atoms: C_10  and  C_11
REMARK    8  A    between atoms: C_11  and  N_12
REMARK    9  A    between atoms: N_12  and  C_13
REMARK   10  A    between atoms: C_20  and  C_22
REMARK                            x       y       z     vdW  Elec       q    Type
REMARK                         _______ _______ _______ _____ _____    ______ ____
ROOT
ATOM      1  N   UNL     1      46.115   7.179  12.569  0.00  0.00    +0.000 N 
ATOM      2  C   UNL     1      44.954   6.780  11.857  0.00  0.00    +0.000 C 
ATOM      3  O   UNL     1      44.190   7.612  11.369  0.00  0.00    +0.000 OA
ENDROOT
BRANCH   2   4
ATOM      4  C   UNL     1      44.606   5.352  11.739  0.00  0.00    +0.000 A 
ATOM      5  C   UNL     1      43.860   4.646  12.668  0.00  0.00    +0.000 A 
ATOM      6  S   UNL     1      43.553   3.027  12.216  0.00  0.00    +0.000 S 
ATOM      7  C   UNL     1      44.226   3.280  10.678  0.00  0.00    +0.000 A 
ATOM      8  N   UNL     1      44.154   2.319   9.712  0.00  0.00    +0.000 NA
ATOM      9  C   UNL     1      44.636   2.683   8.573  0.00  0.00    +0.000 A 
ATOM     10  N   UNL     1      45.232   3.893   8.319  0.00  0.00    +0.000 N 
ATOM     11  C   UNL     1      45.458   4.836   9.306  0.00  0.00    +0.000 A 
ATOM     12  O   UNL     1      46.207   5.787   9.112  0.00  0.00    +0.000 OA
ATOM     13  C   UNL     1      44.805   4.531  10.564  0.00  0.00    +0.000 A 
ATOM     14  H   UNL     1      45.653   4.088   7.424  0.00  0.00    +0.000 HD
ENDBRANCH   2   4
BRANCH   1  15
ATOM     15  C   UNL     1      46.388   8.625  12.613  0.00  0.00    +0.000 C 
BRANCH  15  17
ATOM     16  C   UNL     1      48.677   9.705  13.063  0.00  0.00    +0.000 C 
ATOM     17  C   UNL     1      47.739   9.075  12.046  0.00  0.00    +0.000 C 
ENDBRANCH  15  17
ENDBRANCH   1  15
BRANCH   1  18
ATOM     18  C   UNL     1      47.207   6.240  12.851  0.00  0.00    +0.000 C 
BRANCH  18  19
ATOM     19  C   UNL     1      47.477   5.810  14.275  0.00  0.00    +0.000 A 
ATOM     20  C   UNL     1      46.991   4.601  14.783  0.00  0.00    +0.000 A 
ATOM     21  C   UNL     1      47.491   4.086  15.981  0.00  0.00    +0.000 A 
ATOM     22  C   UNL     1      48.529   4.731  16.673  0.00  0.00    +0.000 A 
ATOM     23  C   UNL     1      48.949   5.985  16.213  0.00  0.00    +0.000 A 
ATOM     24  C   UNL     1      48.428   6.516  15.028  0.00  0.00    +0.000 A 
BRANCH  22  25
ATOM     25  C   UNL     1      49.229   4.088  17.859  0.00  0.00    +0.000 C 
BRANCH  25  26
ATOM     26  C   UNL     1      48.407   4.219  19.157  0.00  0.00    +0.000 C 
BRANCH  26  27
ATOM     27  N   UNL     1      47.352   5.234  19.099  0.00  0.00    +0.000 NA
ATOM     28  H   UNL     1      46.445   4.779  19.204  0.00  0.00    +0.000 HD
BRANCH  27  29
ATOM     29  C   UNL     1      47.518   6.226  20.187  0.00  0.00    +0.000 C 
ATOM     30  C   UNL     1      47.545   7.638  19.616  0.00  0.00    +0.000 C 
ATOM     31  C   UNL     1      49.015   7.858  19.323  0.00  0.00    +0.000 C 
ATOM     32  N   UNL     1      49.711   7.280  20.477  0.00  0.00    +0.000 NA
ATOM     33  C   UNL     1      48.870   6.157  20.935  0.00  0.00    +0.000 C 
ATOM     34  H   UNL     1      49.763   7.976  21.219  0.00  0.00    +0.000 HD
ENDBRANCH  27  29
ENDBRANCH  26  27
ENDBRANCH  25  26
ENDBRANCH  22  25
ENDBRANCH  18  19
ENDBRANCH   1  18
TORSDOF 9
ENDMDL
MODEL 3
REMARK VINA RESULT:    -6.454      3.578      8.259
REMARK INTER + INTRA:         -11.710
REMARK INTER:                 -10.281
REMARK INTRA:                  -1.429
REMARK UNBOUND:                -1.860
REMARK  Name = 
REMARK  10 active torsions:
REMARK  status: ('A' for Active; 'I' for Inactive)
REMARK    1  A    between atoms: C_1  and  C_2
REMARK    2  A    between atoms: C_2  and  C_3
REMARK    3  A    between atoms: C_3  and  N_4
REMARK    4  A    between atoms: N_4  and  C_5
REMARK    5  A    between atoms: C_5  and  C_6
REMARK    6  A    between atoms: C_9  and  C_10
REMARK    7  A    between atoms: C_10  and  C_11
REMARK    8  A    between atoms: C_11  and  N_12
REMARK    9  A    between atoms: N_12  and  C_13
REMARK   10  A    between atoms: C_20  and  C_22
REMARK                            x       y       z     vdW  Elec       q    Type
REMARK                         _______ _______ _______ _____ _____    ______ ____
ROOT
ATOM      1  N   UNL     1      48.750   7.202  13.662  0.00  0.00    +0.000 N 
ATOM      2  C   UNL     1      49.617   7.689  14.674  0.00  0.00    +0.000 C 
ATOM      3  O   UNL     1      50.836   7.701  14.515  0.00  0.00    +0.000 OA
ENDROOT
BRANCH   2   4
ATOM      4  C   UNL     1      49.073   8.134  15.970  0.00  0.00    +0.000 A 
ATOM      5  C   UNL     1      48.705   9.437  16.262  0.00  0.00    +0.000 A 
ATOM      6  S   UNL     1      48.033   9.630  17.821  0.00  0.00    +0.000 S 
ATOM      7  C   UNL     1      48.020   7.951  18.072  0.00  0.00    +0.000 A 
ATOM      8  N   UNL     1      47.424   7.409  19.175  0.00  0.00    +0.000 NA
ATOM      9  C   UNL     1      47.422   6.119  19.189  0.00  0.00    +0.000 A 
ATOM     10  N   UNL     1      48.004   5.318  18.238  0.00  0.00    +0.000 N 
ATOM     11  C   UNL     1      48.743   5.827  17.186  0.00  0.00    +0.000 A 
ATOM     12  O   UNL     1      49.454   5.097  16.503  0.00  0.00    +0.000 OA
ATOM     13  C   UNL     1      48.650   7.267  17.048  0.00  0.00    +0.000 A 
ATOM     14  H   UNL     1      48.027   4.317  18.346  0.00  0.00    +0.000 HD
ENDBRANCH   2   4
BRANCH   1  15
ATOM     15  C   UNL     1      49.386   6.801  12.396  0.00  0.00    +0.000 C 
BRANCH  15  17
ATOM     16  C   UNL     1      51.145   8.039  10.988  0.00  0.00    +0.000 C 
ATOM     17  C   UNL     1      49.686   7.928  11.402  0.00  0.00    +0.000 C 
ENDBRANCH  15  17
ENDBRANCH   1  15
BRANCH   1  18
ATOM     18  C   UNL     1      47.311   7.492  13.673  0.00  0.00    +0.000 C 
BRANCH  18  19
ATOM     19  C   UNL     1      46.347   6.527  13.023  0.00  0.00    +0.000 A 
ATOM     20  C   UNL     1      45.810   6.766  11.754  0.00  0.00    +0.000 A 
ATOM     21  C   UNL     1      45.169   5.741  11.053  0.00  0.00    +0.000 A 
ATOM     22  C   UNL     1      45.100   4.439  11.572  0.00  0.00    +0.000 A 
ATOM     23  C   UNL     1      45.555   4.224  12.879  0.00  0.00    +0.000 A 
ATOM     24  C   UNL     1      46.171   5.256  13.593  0.00  0.00    +0.000 A 
BRANCH  22  25
ATOM     25  C   UNL     1      44.596   3.267  10.744  0.00  0.00    +0.000 C 
BRANCH  25  26
ATOM     26  C   UNL     1      44.398   3.646   9.263  0.00  0.00    +0.000 C 
BRANCH  26  27
ATOM     27  N   UNL     1      44.784   2.594   8.319  0.00  0.00    +0.000 NA
ATOM     28  H   UNL     1      44.399   2.814   7.400  0.00  0.00    +0.000 HD
BRANCH  27  29
ATOM     29  C   UNL     1      46.258   2.502   8.210  0.00  0.00    +0.000 C 
ATOM     30  C   UNL     1      46.777   3.507   7.190  0.00  0.00    +0.000 C 
ATOM     31  C   UNL     1      46.729   2.730   5.890  0.00  0.00    +0.000 C 
ATOM     32  N   UNL     1      47.213   1.393   6.244  0.00  0.00    +0.000 NA
ATOM     33  C   UNL     1      46.791   1.165   7.640  0.00  0.00    +0.000 C 
ATOM     34  H   UNL     1      48.231   1.383   6.203  0.00  0.00    +0.000 HD
ENDBRANCH  27  29
ENDBRANCH  26  27
ENDBRANCH  25  26
ENDBRANCH  22  25
ENDBRANCH  18  19
ENDBRANCH   1  18
TORSDOF 9
ENDMDL
MODEL 4
REMARK VINA RESULT:    -6.233      3.352      8.426
REMARK INTER + INTRA:         -11.372
REMARK INTER:                 -10.009
REMARK INTRA:                  -1.363
REMARK UNBOUND:                -1.860
REMARK  Name = 
REMARK  10 active torsions:
REMARK  status: ('A' for Active; 'I' for Inactive)
REMARK    1  A    between atoms: C_1  and  C_2
REMARK    2  A    between atoms: C_2  and  C_3
REMARK    3  A    between atoms: C_3  and  N_4
REMARK    4  A    between atoms: N_4  and  C_5
REMARK    5  A    between atoms: C_5  and  C_6
REMARK    6  A    between atoms: C_9  and  C_10
REMARK    7  A    between atoms: C_10  and  C_11
REMARK    8  A    between atoms: C_11  and  N_12
REMARK    9  A    between atoms: N_12  and  C_13
REMARK   10  A    between atoms: C_20  and  C_22
REMARK                            x       y       z     vdW  Elec       q    Type
REMARK                         _______ _______ _______ _____ _____    ______ ____
ROOT
ATOM      1  N   UNL     1      48.281   6.668  13.837  0.00  0.00    +0.000 N 
ATOM      2  C   UNL     1      49.046   6.504  15.020  0.00  0.00    +0.000 C 
ATOM      3  O   UNL     1      50.251   6.748  15.037  0.00  0.00    +0.000 OA
ENDROOT
BRANCH   2   4
ATOM      4  C   UNL     1      48.419   5.973  16.245  0.00  0.00    +0.000 A 
ATOM      5  C   UNL     1      48.118   4.638  16.459  0.00  0.00    +0.000 A 
ATOM      6  S   UNL     1      47.470   4.319  18.007  0.00  0.00    +0.000 S 
ATOM      7  C   UNL     1      47.764   5.913  18.510  0.00  0.00    +0.000 A 
ATOM      8  N   UNL     1      47.572   6.289  19.808  0.00  0.00    +0.000 NA
ATOM      9  C   UNL     1      47.913   7.507  20.057  0.00  0.00    +0.000 A 
ATOM     10  N   UNL     1      48.377   8.403  19.127  0.00  0.00    +0.000 N 
ATOM     11  C   UNL     1      48.447   8.108  17.777  0.00  0.00    +0.000 A 
ATOM     12  O   UNL     1      48.621   8.993  16.946  0.00  0.00    +0.000 OA
ATOM     13  C   UNL     1      48.213   6.710  17.472  0.00  0.00    +0.000 A 
ATOM     14  H   UNL     1      48.560   9.362  19.376  0.00  0.00    +0.000 HD
ENDBRANCH   2   4
BRANCH   1  15
ATOM     15  C   UNL     1      48.991   7.224  12.673  0.00  0.00    +0.000 C 
BRANCH  15  17
ATOM     16  C   UNL     1      49.530   9.374  11.371  0.00  0.00    +0.000 C 
ATOM     17  C   UNL     1      48.504   8.587  12.170  0.00  0.00    +0.000 C 
ENDBRANCH  15  17
ENDBRANCH   1  15
BRANCH   1  18
ATOM     18  C   UNL     1      46.815   6.725  13.867  0.00  0.00    +0.000 C 
BRANCH  18  19
ATOM     19  C   UNL     1      46.012   5.903  12.885  0.00  0.00    +0.000 A 
ATOM     20  C   UNL     1      45.563   6.436  11.673  0.00  0.00    +0.000 A 
ATOM     21  C   UNL     1      45.091   5.596  10.662  0.00  0.00    +0.000 A 
ATOM     22  C   UNL     1      45.111   4.200  10.810  0.00  0.00    +0.000 A 
ATOM     23  C   UNL     1      45.474   3.673  12.055  0.00  0.00    +0.000 A 
ATOM     24  C   UNL     1      45.919   4.515  13.079  0.00  0.00    +0.000 A 
BRANCH  22  25
ATOM     25  C   UNL     1      44.801   3.262   9.653  0.00  0.00    +0.000 C 
BRANCH  25  26
ATOM     26  C   UNL     1      44.879   3.978   8.290  0.00  0.00    +0.000 C 
BRANCH  26  27
ATOM     27  N   UNL     1      46.185   3.876   7.633  0.00  0.00    +0.000 NA
ATOM     28  H   UNL     1      46.903   3.723   8.341  0.00  0.00    +0.000 HD
BRANCH  27  29
ATOM     29  C   UNL     1      46.205   2.742   6.680  0.00  0.00    +0.000 C 
ATOM     30  C   UNL     1      46.957   1.560   7.280  0.00  0.00    +0.000 C 
ATOM     31  C   UNL     1      48.389   1.816   6.855  0.00  0.00    +0.000 C 
ATOM     32  N   UNL     1      48.283   2.277   5.467  0.00  0.00    +0.000 NA
ATOM     33  C   UNL     1      46.998   2.996   5.376  0.00  0.00    +0.000 C 
ATOM     34  H   UNL     1      48.252   1.469   4.848  0.00  0.00    +0.000 HD
ENDBRANCH  27  29
ENDBRANCH  26  27
ENDBRANCH  25  26
ENDBRANCH  22  25
ENDBRANCH  18  19
ENDBRANCH   1  18
TORSDOF 9
ENDMDL
MODEL 5
REMARK VINA RESULT:    -5.748      3.959      7.911
REMARK INTER + INTRA:         -10.633
REMARK INTER:                  -8.811
REMARK INTRA:                  -1.821
REMARK UNBOUND:                -1.860
REMARK  Name = 
REMARK  10 active torsions:
REMARK  status: ('A' for Active; 'I' for Inactive)
REMARK    1  A    between atoms: C_1  and  C_2
REMARK    2  A    between atoms: C_2  and  C_3
REMARK    3  A    between atoms: C_3  and  N_4
REMARK    4  A    between atoms: N_4  and  C_5
REMARK    5  A    between atoms: C_5  and  C_6
REMARK    6  A    between atoms: C_9  and  C_10
REMARK    7  A    between atoms: C_10  and  C_11
REMARK    8  A    between atoms: C_11  and  N_12
REMARK    9  A    between atoms: N_12  and  C_13
REMARK   10  A    between atoms: C_20  and  C_22
REMARK                            x       y       z     vdW  Elec       q    Type
REMARK                         _______ _______ _______ _____ _____    ______ ____
ROOT
ATOM      1  N   UNL     1      51.638   7.036  16.653  0.00  0.00    +0.000 N 
ATOM      2  C   UNL     1      51.365   6.366  17.873  0.00  0.00    +0.000 C 
ATOM      3  O   UNL     1      52.275   5.926  18.574  0.00  0.00    +0.000 OA
ENDROOT
BRANCH   2   4
ATOM      4  C   UNL     1      49.973   6.128  18.298  0.00  0.00    +0.000 A 
ATOM      5  C   UNL     1      49.162   7.076  18.900  0.00  0.00    +0.000 A 
ATOM      6  S   UNL     1      47.572   6.528  19.203  0.00  0.00    +0.000 S 
ATOM      7  C   UNL     1      47.858   5.086  18.354  0.00  0.00    +0.000 A 
ATOM      8  N   UNL     1      46.846   4.206  18.102  0.00  0.00    +0.000 NA
ATOM      9  C   UNL     1      47.196   3.197  17.379  0.00  0.00    +0.000 A 
ATOM     10  N   UNL     1      48.470   2.953  16.929  0.00  0.00    +0.000 N 
ATOM     11  C   UNL     1      49.551   3.740  17.285  0.00  0.00    +0.000 A 
ATOM     12  O   UNL     1      50.700   3.363  17.082  0.00  0.00    +0.000 OA
ATOM     13  C   UNL     1      49.182   4.961  17.973  0.00  0.00    +0.000 A 
ATOM     14  H   UNL     1      48.690   2.108  16.427  0.00  0.00    +0.000 HD
ENDBRANCH   2   4
BRANCH   1  15
ATOM     15  C   UNL     1      53.059   7.243  16.326  0.00  0.00    +0.000 C 
BRANCH  15  17
ATOM     16  C   UNL     1      53.892   7.970  14.005  0.00  0.00    +0.000 C 
ATOM     17  C   UNL     1      53.371   8.398  15.368  0.00  0.00    +0.000 C 
ENDBRANCH  15  17
ENDBRANCH   1  15
BRANCH   1  18
ATOM     18  C   UNL     1      50.627   7.863  15.984  0.00  0.00    +0.000 C 
BRANCH  18  19
ATOM     19  C   UNL     1      49.832   7.290  14.833  0.00  0.00    +0.000 A 
ATOM     20  C   UNL     1      48.651   6.572  15.041  0.00  0.00    +0.000 A 
ATOM     21  C   UNL     1      47.784   6.313  13.976  0.00  0.00    +0.000 A 
ATOM     22  C   UNL     1      48.043   6.814  12.690  0.00  0.00    +0.000 A 
ATOM     23  C   UNL     1      49.268   7.453  12.465  0.00  0.00    +0.000 A 
ATOM     24  C   UNL     1      50.150   7.687  13.525  0.00  0.00    +0.000 A 
BRANCH  22  25
ATOM     25  C   UNL     1      47.019   6.725  11.569  0.00  0.00    +0.000 C 
BRANCH  25  26
ATOM     26  C   UNL     1      45.612   7.152  12.034  0.00  0.00    +0.000 C 
BRANCH  26  27
ATOM     27  N   UNL     1      44.641   6.055  12.088  0.00  0.00    +0.000 NA
ATOM     28  H   UNL     1      43.831   6.299  11.518  0.00  0.00    +0.000 HD
BRANCH  27  29
ATOM     29  C   UNL     1      45.235   4.803  11.565  0.00  0.00    +0.000 C 
ATOM     30  C   UNL     1      44.282   4.138  10.580  0.00  0.00    +0.000 C 
ATOM     31  C   UNL     1      43.436   3.251  11.472  0.00  0.00    +0.000 C 
ATOM     32  N   UNL     1      44.390   2.668  12.421  0.00  0.00    +0.000 NA
ATOM     33  C   UNL     1      45.440   3.686  12.616  0.00  0.00    +0.000 C 
ATOM     34  H   UNL     1      44.810   1.838  12.007  0.00  0.00    +0.000 HD
ENDBRANCH  27  29
ENDBRANCH  26  27
ENDBRANCH  25  26
ENDBRANCH  22  25
ENDBRANCH  18  19
ENDBRANCH   1  18
TORSDOF 9
ENDMDL
MODEL 6
REMARK VINA RESULT:    -5.517      3.768      5.406
REMARK INTER + INTRA:         -10.280
REMARK INTER:                  -9.221
REMARK INTRA:                  -1.059
REMARK UNBOUND:                -1.860
REMARK  Name = 
REMARK  10 active torsions:
REMARK  status: ('A' for Active; 'I' for Inactive)
REMARK    1  A    between atoms: C_1  and  C_2
REMARK    2  A    between atoms: C_2  and  C_3
REMARK    3  A    between atoms: C_3  and  N_4
REMARK    4  A    between atoms: N_4  and  C_5
REMARK    5  A    between atoms: C_5  and  C_6
REMARK    6  A    between atoms: C_9  and  C_10
REMARK    7  A    between atoms: C_10  and  C_11
REMARK    8  A    between atoms: C_11  and  N_12
REMARK    9  A    between atoms: N_12  and  C_13
REMARK   10  A    between atoms: C_20  and  C_22
REMARK                            x       y       z     vdW  Elec       q    Type
REMARK                         _______ _______ _______ _____ _____    ______ ____
ROOT
ATOM      1  N   UNL     1      45.250   7.011  12.424  0.00  0.00    +0.000 N 
ATOM      2  C   UNL     1      44.179   6.422  11.705  0.00  0.00    +0.000 C 
ATOM      3  O   UNL     1      43.228   7.097  11.314  0.00  0.00    +0.000 OA
ENDROOT
BRANCH   2   4
ATOM      4  C   UNL     1      44.154   4.967  11.465  0.00  0.00    +0.000 A 
ATOM      5  C   UNL     1      43.411   4.061  12.203  0.00  0.00    +0.000 A 
ATOM      6  S   UNL     1      43.524   2.454  11.635  0.00  0.00    +0.000 S 
ATOM      7  C   UNL     1      44.398   2.950  10.267  0.00  0.00    +0.000 A 
ATOM      8  N   UNL     1      44.697   2.071   9.266  0.00  0.00    +0.000 NA
ATOM      9  C   UNL     1      45.292   2.609   8.256  0.00  0.00    +0.000 A 
ATOM     10  N   UNL     1      45.666   3.927   8.171  0.00  0.00    +0.000 N 
ATOM     11  C   UNL     1      45.515   4.815   9.221  0.00  0.00    +0.000 A 
ATOM     12  O   UNL     1      46.079   5.904   9.213  0.00  0.00    +0.000 OA
ATOM     13  C   UNL     1      44.722   4.293  10.317  0.00  0.00    +0.000 A 
ATOM     14  H   UNL     1      46.192   4.268   7.382  0.00  0.00    +0.000 HD
ENDBRANCH   2   4
BRANCH   1  15
ATOM     15  C   UNL     1      45.196   8.472  12.595  0.00  0.00    +0.000 C 
BRANCH  15  17
ATOM     16  C   UNL     1      44.298  10.566  11.404  0.00  0.00    +0.000 C 
ATOM     17  C   UNL     1      45.138   9.303  11.308  0.00  0.00    +0.000 C 
ENDBRANCH  15  17
ENDBRANCH   1  15
BRANCH   1  18
ATOM     18  C   UNL     1      46.536   6.323  12.594  0.00  0.00    +0.000 C 
BRANCH  18  19
ATOM     19  C   UNL     1      47.806   7.131  12.733  0.00  0.00    +0.000 A 
ATOM     20  C   UNL     1      48.510   7.194  13.939  0.00  0.00    +0.000 A 
ATOM     21  C   UNL     1      49.816   7.688  13.971  0.00  0.00    +0.000 A 
ATOM     22  C   UNL     1      50.474   8.077  12.793  0.00  0.00    +0.000 A 
ATOM     23  C   UNL     1      49.738   8.101  11.603  0.00  0.00    +0.000 A 
ATOM     24  C   UNL     1      48.421   7.633  11.575  0.00  0.00    +0.000 A 
BRANCH  22  25
ATOM     25  C   UNL     1      51.956   8.419  12.774  0.00  0.00    +0.000 C 
BRANCH  25  26
ATOM     26  C   UNL     1      52.562   8.291  11.362  0.00  0.00    +0.000 C 
BRANCH  26  27
ATOM     27  N   UNL     1      53.127   6.971  11.071  0.00  0.00    +0.000 NA
ATOM     28  H   UNL     1      52.716   6.285  11.704  0.00  0.00    +0.000 HD
BRANCH  27  29
ATOM     29  C   UNL     1      52.831   6.569   9.676  0.00  0.00    +0.000 C 
ATOM     30  C   UNL     1      53.916   5.638   9.152  0.00  0.00    +0.000 C 
ATOM     31  C   UNL     1      54.930   6.595   8.559  0.00  0.00    +0.000 C 
ATOM     32  N   UNL     1      54.122   7.604   7.868  0.00  0.00    +0.000 NA
ATOM     33  C   UNL     1      52.870   7.720   8.641  0.00  0.00    +0.000 C 
ATOM     34  H   UNL     1      53.900   7.272   6.931  0.00  0.00    +0.000 HD
ENDBRANCH  27  29
ENDBRANCH  26  27
ENDBRANCH  25  26
ENDBRANCH  22  25
ENDBRANCH  18  19
ENDBRANCH   1  18
TORSDOF 9
ENDMDL
MODEL 7
REMARK VINA RESULT:    -5.400      3.689      8.473
REMARK INTER + INTRA:         -10.101
REMARK INTER:                  -8.551
REMARK INTRA:                  -1.550
REMARK UNBOUND:                -1.860
REMARK  Name = 
REMARK  10 active torsions:
REMARK  status: ('A' for Active; 'I' for Inactive)
REMARK    1  A    between atoms: C_1  and  C_2
REMARK    2  A    between atoms: C_2  and  C_3
REMARK    3  A    between atoms: C_3  and  N_4
REMARK    4  A    between atoms: N_4  and  C_5
REMARK    5  A    between atoms: C_5  and  C_6
REMARK    6  A    between atoms: C_9  and  C_10
REMARK    7  A    between atoms: C_10  and  C_11
REMARK    8  A    between atoms: C_11  and  N_12
REMARK    9  A    between atoms: N_12  and  C_13
REMARK   10  A    between atoms: C_20  and  C_22
REMARK                            x       y       z     vdW  Elec       q    Type
REMARK                         _______ _______ _______ _____ _____    ______ ____
ROOT
ATOM      1  N   UNL     1      50.595   7.617  15.273  0.00  0.00    +0.000 N 
ATOM      2  C   UNL     1      50.685   6.685  16.339  0.00  0.00    +0.000 C 
ATOM      3  O   UNL     1      51.772   6.252  16.714  0.00  0.00    +0.000 OA
ENDROOT
BRANCH   2   4
ATOM      4  C   UNL     1      49.462   6.167  16.980  0.00  0.00    +0.000 A 
ATOM      5  C   UNL     1      48.787   5.026  16.579  0.00  0.00    +0.000 A 
ATOM      6  S   UNL     1      47.449   4.635  17.568  0.00  0.00    +0.000 S 
ATOM      7  C   UNL     1      47.856   5.853  18.679  0.00  0.00    +0.000 A 
ATOM      8  N   UNL     1      47.190   5.975  19.864  0.00  0.00    +0.000 NA
ATOM      9  C   UNL     1      47.662   6.892  20.638  0.00  0.00    +0.000 A 
ATOM     10  N   UNL     1      48.698   7.735  20.323  0.00  0.00    +0.000 N 
ATOM     11  C   UNL     1      49.301   7.743  19.078  0.00  0.00    +0.000 A 
ATOM     12  O   UNL     1      50.041   8.660  18.741  0.00  0.00    +0.000 OA
ATOM     13  C   UNL     1      48.904   6.636  18.230  0.00  0.00    +0.000 A 
ATOM     14  H   UNL     1      48.972   8.477  20.947  0.00  0.00    +0.000 HD
ENDBRANCH   2   4
BRANCH   1  15
ATOM     15  C   UNL     1      51.871   8.090  14.711  0.00  0.00    +0.000 C 
BRANCH  15  17
ATOM     16  C   UNL     1      53.032   8.393  12.438  0.00  0.00    +0.000 C 
ATOM     17  C   UNL     1      51.811   8.678  13.297  0.00  0.00    +0.000 C 
ENDBRANCH  15  17
ENDBRANCH   1  15
BRANCH   1  18
ATOM     18  C   UNL     1      49.379   8.404  15.036  0.00  0.00    +0.000 C 
BRANCH  18  19
ATOM     19  C   UNL     1      48.410   7.982  13.956  0.00  0.00    +0.000 A 
ATOM     20  C   UNL     1      48.542   6.763  13.284  0.00  0.00    +0.000 A 
ATOM     21  C   UNL     1      47.489   6.261  12.516  0.00  0.00    +0.000 A 
ATOM     22  C   UNL     1      46.258   6.931  12.445  0.00  0.00    +0.000 A 
ATOM     23  C   UNL     1      46.158   8.194  13.041  0.00  0.00    +0.000 A 
ATOM     24  C   UNL     1      47.222   8.711  13.787  0.00  0.00    +0.000 A 
BRANCH  22  25
ATOM     25  C   UNL     1      45.036   6.306  11.790  0.00  0.00    +0.000 C 
BRANCH  25  26
ATOM     26  C   UNL     1      45.408   5.469  10.550  0.00  0.00    +0.000 C 
BRANCH  26  27
ATOM     27  N   UNL     1      44.905   4.092  10.584  0.00  0.00    +0.000 NA
ATOM     28  H   UNL     1      44.119   4.041  11.231  0.00  0.00    +0.000 HD
BRANCH  27  29
ATOM     29  C   UNL     1      44.447   3.668   9.241  0.00  0.00    +0.000 C 
ATOM     30  C   UNL     1      44.410   2.148   9.150  0.00  0.00    +0.000 C 
ATOM     31  C   UNL     1      45.807   1.800   8.677  0.00  0.00    +0.000 C 
ATOM     32  N   UNL     1      46.112   2.811   7.660  0.00  0.00    +0.000 NA
ATOM     33  C   UNL     1      45.400   4.034   8.078  0.00  0.00    +0.000 C 
ATOM     34  H   UNL     1      45.741   2.505   6.762  0.00  0.00    +0.000 HD
ENDBRANCH  27  29
ENDBRANCH  26  27
ENDBRANCH  25  26
ENDBRANCH  22  25
ENDBRANCH  18  19
ENDBRANCH   1  18
TORSDOF 9
ENDMDL
MODEL 8
REMARK VINA RESULT:    -5.165      2.848      4.191
REMARK INTER + INTRA:          -9.742
REMARK INTER:                  -7.690
REMARK INTRA:                  -2.052
REMARK UNBOUND:                -1.860
REMARK  Name = 
REMARK  10 active torsions:
REMARK  status: ('A' for Active; 'I' for Inactive)
REMARK    1  A    between atoms: C_1  and  C_2
REMARK    2  A    between atoms: C_2  and  C_3
REMARK    3  A    between atoms: C_3  and  N_4
REMARK    4  A    between atoms: N_4  and  C_5
REMARK    5  A    between atoms: C_5  and  C_6
REMARK    6  A    between atoms: C_9  and  C_10
REMARK    7  A    between atoms: C_10  and  C_11
REMARK    8  A    between atoms: C_11  and  N_12
REMARK    9  A    between atoms: N_12  and  C_13
REMARK   10  A    between atoms: C_20  and  C_22
REMARK                            x       y       z     vdW  Elec       q    Type
REMARK                         _______ _______ _______ _____ _____    ______ ____
ROOT
ATOM      1  N   UNL     1      49.448   7.898  14.450  0.00  0.00    +0.000 N 
ATOM      2  C   UNL     1      48.862   7.247  13.335  0.00  0.00    +0.000 C 
ATOM      3  O   UNL     1      49.553   6.649  12.512  0.00  0.00    +0.000 OA
ENDROOT
BRANCH   2   4
ATOM      4  C   UNL     1      47.407   7.326  13.106  0.00  0.00    +0.000 A 
ATOM      5  C   UNL     1      46.760   8.406  12.528  0.00  0.00    +0.000 A 
ATOM      6  S   UNL     1      45.081   8.172  12.321  0.00  0.00    +0.000 S 
ATOM      7  C   UNL     1      45.201   6.548  12.803  0.00  0.00    +0.000 A 
ATOM      8  N   UNL     1      44.130   5.707  12.716  0.00  0.00    +0.000 NA
ATOM      9  C   UNL     1      44.394   4.487  13.040  0.00  0.00    +0.000 A 
ATOM     10  N   UNL     1      45.607   4.036  13.495  0.00  0.00    +0.000 N 
ATOM     11  C   UNL     1      46.674   4.882  13.738  0.00  0.00    +0.000 A 
ATOM     12  O   UNL     1      47.651   4.500  14.374  0.00  0.00    +0.000 OA
ATOM     13  C   UNL     1      46.471   6.233  13.252  0.00  0.00    +0.000 A 
ATOM     14  H   UNL     1      45.727   3.083  13.799  0.00  0.00    +0.000 HD
ENDBRANCH   2   4
BRANCH   1  15
ATOM     15  C   UNL     1      50.904   7.743  14.605  0.00  0.00    +0.000 C 
BRANCH  15  17
ATOM     16  C   UNL     1      52.451   9.285  15.961  0.00  0.00    +0.000 C 
ATOM     17  C   UNL     1      51.722   9.039  14.651  0.00  0.00    +0.000 C 
ENDBRANCH  15  17
ENDBRANCH   1  15
BRANCH   1  18
ATOM     18  C   UNL     1      48.650   8.308  15.612  0.00  0.00    +0.000 C 
BRANCH  18  19
ATOM     19  C   UNL     1      48.858   7.623  16.943  0.00  0.00    +0.000 A 
ATOM     20  C   UNL     1      48.645   6.251  17.106  0.00  0.00    +0.000 A 
ATOM     21  C   UNL     1      49.121   5.591  18.242  0.00  0.00    +0.000 A 
ATOM     22  C   UNL     1      49.872   6.270  19.215  0.00  0.00    +0.000 A 
ATOM     23  C   UNL     1      50.005   7.659  19.097  0.00  0.00    +0.000 A 
ATOM     24  C   UNL     1      49.503   8.325  17.974  0.00  0.00    +0.000 A 
BRANCH  22  25
ATOM     25  C   UNL     1      50.575   5.537  20.347  0.00  0.00    +0.000 C 
BRANCH  25  26
ATOM     26  C   UNL     1      51.977   5.046  19.938  0.00  0.00    +0.000 C 
BRANCH  26  27
ATOM     27  N   UNL     1      52.035   3.623  19.588  0.00  0.00    +0.000 NA
ATOM     28  H   UNL     1      51.128   3.197  19.776  0.00  0.00    +0.000 HD
BRANCH  27  29
ATOM     29  C   UNL     1      52.355   3.449  18.152  0.00  0.00    +0.000 C 
ATOM     30  C   UNL     1      51.205   2.754  17.434  0.00  0.00    +0.000 C 
ATOM     31  C   UNL     1      51.545   1.286  17.589  0.00  0.00    +0.000 C 
ATOM     32  N   UNL     1      52.992   1.218  17.364  0.00  0.00    +0.000 NA
ATOM     33  C   UNL     1      53.539   2.497  17.856  0.00  0.00    +0.000 C 
ATOM     34  H   UNL     1      53.173   1.146  16.364  0.00  0.00    +0.000 HD
ENDBRANCH  27  29
ENDBRANCH  26  27
ENDBRANCH  25  26
ENDBRANCH  22  25
ENDBRANCH  18  19
ENDBRANCH   1  18
TORSDOF 9
ENDMDL
MODEL 9
REMARK VINA RESULT:    -5.107      4.452      8.984
REMARK INTER + INTRA:          -9.653
REMARK INTER:                  -7.645
REMARK INTRA:                  -2.009
REMARK UNBOUND:                -1.860
REMARK  Name = 
REMARK  10 active torsions:
REMARK  status: ('A' for Active; 'I' for Inactive)
REMARK    1  A    between atoms: C_1  and  C_2
REMARK    2  A    between atoms: C_2  and  C_3
REMARK    3  A    between atoms: C_3  and  N_4
REMARK    4  A    between atoms: N_4  and  C_5
REMARK    5  A    between atoms: C_5  and  C_6
REMARK    6  A    between atoms: C_9  and  C_10
REMARK    7  A    between atoms: C_10  and  C_11
REMARK    8  A    between atoms: C_11  and  N_12
REMARK    9  A    between atoms: N_12  and  C_13
REMARK   10  A    between atoms: C_20  and  C_22
REMARK                            x       y       z     vdW  Elec       q    Type
REMARK                         _______ _______ _______ _____ _____    ______ ____
ROOT
ATOM      1  N   UNL     1      49.826   5.874  18.190  0.00  0.00    +0.000 N 
ATOM      2  C   UNL     1      49.962   6.810  19.246  0.00  0.00    +0.000 C 
ATOM      3  O   UNL     1      49.664   6.514  20.401  0.00  0.00    +0.000 OA
ENDROOT
BRANCH   2   4
ATOM      4  C   UNL     1      50.408   8.188  18.967  0.00  0.00    +0.000 A 
ATOM      5  C   UNL     1      51.719   8.625  19.064  0.00  0.00    +0.000 A 
ATOM      6  S   UNL     1      51.938  10.254  18.600  0.00  0.00    +0.000 S 
ATOM      7  C   UNL     1      50.332  10.364  18.060  0.00  0.00    +0.000 A 
ATOM      8  N   UNL     1      49.886  11.471  17.398  0.00  0.00    +0.000 NA
ATOM      9  C   UNL     1      48.671  11.377  16.978  0.00  0.00    +0.000 A 
ATOM     10  N   UNL     1      47.839  10.308  17.200  0.00  0.00    +0.000 N 
ATOM     11  C   UNL     1      48.203   9.232  17.991  0.00  0.00    +0.000 A 
ATOM     12  O   UNL     1      47.367   8.422  18.377  0.00  0.00    +0.000 OA
ATOM     13  C   UNL     1      49.604   9.227  18.361  0.00  0.00    +0.000 A 
ATOM     14  H   UNL     1      46.876  10.328  16.905  0.00  0.00    +0.000 HD
ENDBRANCH   2   4
BRANCH   1  15
ATOM     15  C   UNL     1      49.395   4.518  18.571  0.00  0.00    +0.000 C 
BRANCH  15  17
ATOM     16  C   UNL     1      48.847   2.623  16.923  0.00  0.00    +0.000 C 
ATOM     17  C   UNL     1      49.918   3.371  17.699  0.00  0.00    +0.000 C 
ENDBRANCH  15  17
ENDBRANCH   1  15
BRANCH   1  18
ATOM     18  C   UNL     1      50.487   6.070  16.894  0.00  0.00    +0.000 C 
BRANCH  18  19
ATOM     19  C   UNL     1      49.703   6.632  15.730  0.00  0.00    +0.000 A 
ATOM     20  C   UNL     1      50.278   7.519  14.815  0.00  0.00    +0.000 A 
ATOM     21  C   UNL     1      49.646   7.788  13.599  0.00  0.00    +0.000 A 
ATOM     22  C   UNL     1      48.457   7.137  13.238  0.00  0.00    +0.000 A 
ATOM     23  C   UNL     1      47.835   6.321  14.191  0.00  0.00    +0.000 A 
ATOM     24  C   UNL     1      48.453   6.073  15.422  0.00  0.00    +0.000 A 
BRANCH  22  25
ATOM     25  C   UNL     1      47.864   7.255  11.843  0.00  0.00    +0.000 C 
BRANCH  25  26
ATOM     26  C   UNL     1      46.378   6.846  11.808  0.00  0.00    +0.000 C 
BRANCH  26  27
ATOM     27  N   UNL     1      46.026   5.963  10.692  0.00  0.00    +0.000 NA
ATOM     28  H   UNL     1      46.756   5.259  10.581  0.00  0.00    +0.000 HD
BRANCH  27  29
ATOM     29  C   UNL     1      44.738   5.278  10.951  0.00  0.00    +0.000 C 
ATOM     30  C   UNL     1      44.692   4.764  12.385  0.00  0.00    +0.000 C 
ATOM     31  C   UNL     1      45.296   3.379  12.270  0.00  0.00    +0.000 C 
ATOM     32  N   UNL     1      44.720   2.829  11.039  0.00  0.00    +0.000 NA
ATOM     33  C   UNL     1      44.512   3.980  10.140  0.00  0.00    +0.000 C 
ATOM     34  H   UNL     1      43.816   2.409  11.251  0.00  0.00    +0.000 HD
ENDBRANCH  27  29
ENDBRANCH  26  27
ENDBRANCH  25  26
ENDBRANCH  22  25
ENDBRANCH  18  19
ENDBRANCH   1  18
TORSDOF 9
ENDMDL
