MODEL 1
REMARK VINA RESULT:    -7.662      0.000      0.000
REMARK INTER + INTRA:          -9.559
REMARK INTER:                  -9.230
REMARK INTRA:                  -0.329
REMARK UNBOUND:                -0.329
REMARK  Name = 
REMARK  4 active torsions:
REMARK  status: ('A' for Active; 'I' for Inactive)
REMARK    1  A    between atoms: N_1  and  C_2
REMARK    2  A    between atoms: C_2  and  C_3
REMARK    3  A    between atoms: C_7  and  C_8
REMARK    4  A    between atoms: C_8  and  N_9
REMARK                            x       y       z     vdW  Elec       q    Type
REMARK                         _______ _______ _______ _____ _____    ______ ____
ROOT
ATOM      1  C   UNL     1      46.638   2.594   6.718  0.00  0.00    +0.000 A 
ATOM      2  C   UNL     1      46.717   1.347   7.341  0.00  0.00    +0.000 A 
ATOM      3  C   UNL     1      45.950   1.120   8.471  0.00  0.00    +0.000 A 
ATOM      4  N   UNL     1      45.107   2.030   9.007  0.00  0.00    +0.000 NA
ATOM      5  C   UNL     1      45.027   3.242   8.399  0.00  0.00    +0.000 A 
ATOM      6  C   UNL     1      45.806   3.564   7.284  0.00  0.00    +0.000 A 
ENDROOT
BRANCH   1   7
ATOM      7  C   UNL     1      47.386   2.868   5.439  0.00  0.00    +0.000 C 
BRANCH   7   8
ATOM      8  N   UNL     1      48.480   1.920   5.268  0.00  0.00    +0.000 NA
ATOM      9  H   UNL     1      48.101   0.971   5.267  0.00  0.00    +0.000 HD
ATOM     10  H   UNL     1      49.096   1.977   6.077  0.00  0.00    +0.000 HD
ENDBRANCH   7   8
ENDBRANCH   1   7
BRANCH   5  11
ATOM     11  C   UNL     1      44.040   4.230   8.969  0.00  0.00    +0.000 C 
BRANCH  11  12
ATOM     12  N   UNL     1      44.124   4.280  10.423  0.00  0.00    +0.000 N 
ATOM     13  N   UNL     1      43.273   3.523  11.161  0.00  0.00    +0.000 NA
ATOM     14  C   UNL     1      43.687   3.718  12.415  0.00  0.00    +0.000 A 
ATOM     15  C   UNL     1      44.773   4.617  12.500  0.00  0.00    +0.000 A 
ATOM     16  C   UNL     1      45.571   5.136  13.537  0.00  0.00    +0.000 A 
ATOM     17  C   UNL     1      46.595   6.032  13.214  0.00  0.00    +0.000 A 
ATOM     18  C   UNL     1      46.817   6.417  11.894  0.00  0.00    +0.000 A 
ATOM     19  C   UNL     1      46.034   5.909  10.850  0.00  0.00    +0.000 A 
ATOM     20  C   UNL     1      45.021   4.997  11.185  0.00  0.00    +0.000 A 
ENDBRANCH  11  12
ENDBRANCH   5  11
TORSDOF 4
ENDMDL
MODEL 2
REMARK VINA RESULT:    -7.148      1.618      2.185
REMARK INTER + INTRA:          -8.939
REMARK INTER:                  -8.704
REMARK INTRA:                  -0.236
REMARK UNBOUND:                -0.329
REMARK  Name = 
REMARK  4 active torsions:
REMARK  status: ('A' for Active; 'I' for Inactive)
REMARK    1  A    between atoms: N_1  and  C_2
REMARK    2  A    between atoms: C_2  and  C_3
REMARK    3  A    between atoms: C_7  and  C_8
REMARK    4  A    between atoms: C_8  and  N_9
REMARK                            x       y       z     vdW  Elec       q    Type
REMARK                         _______ _______ _______ _____ _____    ______ ____
ROOT
ATOM      1  C   UNL     1      46.488   1.983   7.643  0.00  0.00    +0.000 A 
ATOM      2  C   UNL     1      46.764   3.198   7.014  0.00  0.00    +0.000 A 
ATOM      3  C   UNL     1      46.177   4.351   7.509  0.00  0.00    +0.000 A 
ATOM      4  N   UNL     1      45.358   4.379   8.585  0.00  0.00    +0.000 NA
ATOM      5  C   UNL     1      45.092   3.197   9.199  0.00  0.00    +0.000 A 
ATOM      6  C   UNL     1      45.607   1.985   8.729  0.00  0.00    +0.000 A 
ENDROOT
BRANCH   1   7
ATOM      7  C   UNL     1      47.163   0.712   7.199  0.00  0.00    +0.000 C 
BRANCH   7   8
ATOM      8  N   UNL     1      46.656  -0.432   7.948  0.00  0.00    +0.000 NA
ATOM      9  H   UNL     1      46.325  -0.111   8.860  0.00  0.00    +0.000 HD
ATOM     10  H   UNL     1      47.427  -1.070   8.136  0.00  0.00    +0.000 HD
ENDBRANCH   7   8
ENDBRANCH   1   7
BRANCH   5  11
ATOM     11  C   UNL     1      44.225   3.247  10.432  0.00  0.00    +0.000 C 
BRANCH  11  12
ATOM     12  N   UNL     1      44.936   3.846  11.553  0.00  0.00    +0.000 N 
ATOM     13  N   UNL     1      45.581   3.040  12.435  0.00  0.00    +0.000 NA
ATOM     14  C   UNL     1      46.203   3.896  13.247  0.00  0.00    +0.000 A 
ATOM     15  C   UNL     1      45.942   5.247  12.923  0.00  0.00    +0.000 A 
ATOM     16  C   UNL     1      46.345   6.497  13.426  0.00  0.00    +0.000 A 
ATOM     17  C   UNL     1      45.862   7.657  12.811  0.00  0.00    +0.000 A 
ATOM     18  C   UNL     1      44.989   7.581  11.730  0.00  0.00    +0.000 A 
ATOM     19  C   UNL     1      44.579   6.344  11.215  0.00  0.00    +0.000 A 
ATOM     20  C   UNL     1      45.085   5.188  11.829  0.00  0.00    +0.000 A 
ENDBRANCH  11  12
ENDBRANCH   5  11
TORSDOF 4
ENDMDL
MODEL 3
REMARK VINA RESULT:    -7.093      1.727      5.767
REMARK INTER + INTRA:          -8.873
REMARK INTER:                  -8.481
REMARK INTRA:                  -0.392
REMARK UNBOUND:                -0.329
REMARK  Name = 
REMARK  4 active torsions:
REMARK  status: ('A' for Active; 'I' for Inactive)
REMARK    1  A    between atoms: N_1  and  C_2
REMARK    2  A    between atoms: C_2  and  C_3
REMARK    3  A    between atoms: C_7  and  C_8
REMARK    4  A    between atoms: C_8  and  N_9
REMARK                            x       y       z     vdW  Elec       q    Type
REMARK                         _______ _______ _______ _____ _____    ______ ____
ROOT
ATOM      1  C   UNL     1      45.032   4.975  12.684  0.00  0.00    +0.000 A 
ATOM      2  C   UNL     1      43.765   5.311  13.166  0.00  0.00    +0.000 A 
ATOM      3  C   UNL     1      42.718   5.410  12.266  0.00  0.00    +0.000 A 
ATOM      4  N   UNL     1      42.838   5.184  10.939  0.00  0.00    +0.000 NA
ATOM      5  C   UNL     1      44.069   4.854  10.470  0.00  0.00    +0.000 A 
ATOM      6  C   UNL     1      45.186   4.782  11.308  0.00  0.00    +0.000 A 
ENDROOT
BRANCH   1   7
ATOM      7  C   UNL     1      46.189   4.772  13.627  0.00  0.00    +0.000 C 
BRANCH   7   8
ATOM      8  N   UNL     1      46.571   3.365  13.681  0.00  0.00    +0.000 NA
ATOM      9  H   UNL     1      46.479   3.033  14.643  0.00  0.00    +0.000 HD
ATOM     10  H   UNL     1      47.558   3.283  13.446  0.00  0.00    +0.000 HD
ENDBRANCH   7   8
ENDBRANCH   1   7
BRANCH   5  11
ATOM     11  C   UNL     1      44.181   4.546   8.998  0.00  0.00    +0.000 C 
BRANCH  11  12
ATOM     12  N   UNL     1      44.801   3.247   8.776  0.00  0.00    +0.000 N 
ATOM     13  N   UNL     1      44.247   2.145   9.344  0.00  0.00    +0.000 NA
ATOM     14  C   UNL     1      44.979   1.141   8.859  0.00  0.00    +0.000 A 
ATOM     15  C   UNL     1      46.020   1.581   8.011  0.00  0.00    +0.000 A 
ATOM     16  C   UNL     1      47.031   0.960   7.253  0.00  0.00    +0.000 A 
ATOM     17  C   UNL     1      47.901   1.762   6.507  0.00  0.00    +0.000 A 
ATOM     18  C   UNL     1      47.782   3.149   6.521  0.00  0.00    +0.000 A 
ATOM     19  C   UNL     1      46.781   3.783   7.268  0.00  0.00    +0.000 A 
ATOM     20  C   UNL     1      45.903   2.967   7.998  0.00  0.00    +0.000 A 
ENDBRANCH  11  12
ENDBRANCH   5  11
TORSDOF 4
ENDMDL
MODEL 4
REMARK VINA RESULT:    -6.920      1.927      5.691
REMARK INTER + INTRA:          -8.665
REMARK INTER:                  -8.249
REMARK INTRA:                  -0.416
REMARK UNBOUND:                -0.329
REMARK  Name = 
REMARK  4 active torsions:
REMARK  status: ('A' for Active; 'I' for Inactive)
REMARK    1  A    between atoms: N_1  and  C_2
REMARK    2  A    between atoms: C_2  and  C_3
REMARK    3  A    between atoms: C_7  and  C_8
REMARK    4  A    between atoms: C_8  and  N_9
REMARK                            x       y       z     vdW  Elec       q    Type
REMARK                         _______ _______ _______ _____ _____    ______ ____
ROOT
ATOM      1  C   UNL     1      46.316   5.555  13.191  0.00  0.00    +0.000 A 
ATOM      2  C   UNL     1      46.463   6.938  13.069  0.00  0.00    +0.000 A 
ATOM      3  C   UNL     1      45.756   7.596  12.076  0.00  0.00    +0.000 A 
ATOM      4  N   UNL     1      44.910   6.982  11.218  0.00  0.00    +0.000 NA
ATOM      5  C   UNL     1      44.765   5.637  11.339  0.00  0.00    +0.000 A 
ATOM      6  C   UNL     1      45.481   4.897  12.284  0.00  0.00    +0.000 A 
ENDROOT
BRANCH   1   7
ATOM      7  C   UNL     1      46.996   4.801  14.303  0.00  0.00    +0.000 C 
BRANCH   7   8
ATOM      8  N   UNL     1      47.179   3.400  13.941  0.00  0.00    +0.000 NA
ATOM      9  H   UNL     1      47.885   2.988  14.556  0.00  0.00    +0.000 HD
ATOM     10  H   UNL     1      47.563   3.351  12.999  0.00  0.00    +0.000 HD
ENDBRANCH   7   8
ENDBRANCH   1   7
BRANCH   5  11
ATOM     11  C   UNL     1      43.774   4.971  10.417  0.00  0.00    +0.000 C 
BRANCH  11  12
ATOM     12  N   UNL     1      44.311   3.731   9.874  0.00  0.00    +0.000 N 
ATOM     13  N   UNL     1      43.812   2.547  10.312  0.00  0.00    +0.000 NA
ATOM     14  C   UNL     1      44.430   1.643   9.550  0.00  0.00    +0.000 A 
ATOM     15  C   UNL     1      45.348   2.225   8.646  0.00  0.00    +0.000 A 
ATOM     16  C   UNL     1      46.214   1.747   7.646  0.00  0.00    +0.000 A 
ATOM     17  C   UNL     1      46.990   2.666   6.932  0.00  0.00    +0.000 A 
ATOM     18  C   UNL     1      46.920   4.028   7.212  0.00  0.00    +0.000 A 
ATOM     19  C   UNL     1      46.062   4.521   8.204  0.00  0.00    +0.000 A 
ATOM     20  C   UNL     1      45.276   3.590   8.900  0.00  0.00    +0.000 A 
ENDBRANCH  11  12
ENDBRANCH   5  11
TORSDOF 4
ENDMDL
MODEL 5
REMARK VINA RESULT:    -6.632      1.841      6.103
REMARK INTER + INTRA:          -8.318
REMARK INTER:                  -8.071
REMARK INTRA:                  -0.247
REMARK UNBOUND:                -0.329
REMARK  Name = 
REMARK  4 active torsions:
REMARK  status: ('A' for Active; 'I' for Inactive)
REMARK    1  A    between atoms: N_1  and  C_2
REMARK    2  A    between atoms: C_2  and  C_3
REMARK    3  A    between atoms: C_7  and  C_8
REMARK    4  A    between atoms: C_8  and  N_9
REMARK                            x       y       z     vdW  Elec       q    Type
REMARK                         _______ _______ _______ _____ _____    ______ ____
ROOT
ATOM      1  C   UNL     1      45.536   6.104  12.368  0.00  0.00    +0.000 A 
ATOM      2  C   UNL     1      45.994   5.188  13.316  0.00  0.00    +0.000 A 
ATOM      3  C   UNL     1      45.832   3.835  13.065  0.00  0.00    +0.000 A 
ATOM      4  N   UNL     1      45.268   3.338  11.941  0.00  0.00    +0.000 NA
ATOM      5  C   UNL     1      44.826   4.229  11.017  0.00  0.00    +0.000 A 
ATOM      6  C   UNL     1      44.909   5.610  11.220  0.00  0.00    +0.000 A 
ENDROOT
BRANCH   1   7
ATOM      7  C   UNL     1      45.760   7.582  12.550  0.00  0.00    +0.000 C 
BRANCH   7   8
ATOM      8  N   UNL     1      46.680   7.833  13.654  0.00  0.00    +0.000 NA
ATOM      9  H   UNL     1      46.209   8.408  14.355  0.00  0.00    +0.000 HD
ATOM     10  H   UNL     1      47.462   8.389  13.311  0.00  0.00    +0.000 HD
ENDBRANCH   7   8
ENDBRANCH   1   7
BRANCH   5  11
ATOM     11  C   UNL     1      44.253   3.664   9.741  0.00  0.00    +0.000 C 
BRANCH  11  12
ATOM     12  N   UNL     1      45.257   3.621   8.686  0.00  0.00    +0.000 N 
ATOM     13  N   UNL     1      45.695   4.786   8.142  0.00  0.00    +0.000 NA
ATOM     14  C   UNL     1      46.663   4.399   7.310  0.00  0.00    +0.000 A 
ATOM     15  C   UNL     1      46.835   2.997   7.283  0.00  0.00    +0.000 A 
ATOM     16  C   UNL     1      47.695   2.102   6.619  0.00  0.00    +0.000 A 
ATOM     17  C   UNL     1      47.559   0.732   6.866  0.00  0.00    +0.000 A 
ATOM     18  C   UNL     1      46.586   0.257   7.740  0.00  0.00    +0.000 A 
ATOM     19  C   UNL     1      45.724   1.134   8.411  0.00  0.00    +0.000 A 
ATOM     20  C   UNL     1      45.881   2.507   8.169  0.00  0.00    +0.000 A 
ENDBRANCH  11  12
ENDBRANCH   5  11
TORSDOF 4
ENDMDL
MODEL 6
REMARK VINA RESULT:    -6.574      1.931      2.418
REMARK INTER + INTRA:          -8.248
REMARK INTER:                  -7.794
REMARK INTRA:                  -0.454
REMARK UNBOUND:                -0.329
REMARK  Name = 
REMARK  4 active torsions:
REMARK  status: ('A' for Active; 'I' for Inactive)
REMARK    1  A    between atoms: N_1  and  C_2
REMARK    2  A    between atoms: C_2  and  C_3
REMARK    3  A    between atoms: C_7  and  C_8
REMARK    4  A    between atoms: C_8  and  N_9
REMARK                            x       y       z     vdW  Elec       q    Type
REMARK                         _______ _______ _______ _____ _____    ______ ____
ROOT
ATOM      1  C   UNL     1      45.821   3.485   8.081  0.00  0.00    +0.000 A 
ATOM      2  C   UNL     1      45.486   2.141   8.258  0.00  0.00    +0.000 A 
ATOM      3  C   UNL     1      44.591   1.806   9.261  0.00  0.00    +0.000 A 
ATOM      4  N   UNL     1      44.001   2.707  10.078  0.00  0.00    +0.000 NA
ATOM      5  C   UNL     1      44.324   4.015   9.903  0.00  0.00    +0.000 A 
ATOM      6  C   UNL     1      45.255   4.426   8.945  0.00  0.00    +0.000 A 
ENDROOT
BRANCH   1   7
ATOM      7  C   UNL     1      46.723   3.914   6.954  0.00  0.00    +0.000 C 
BRANCH   7   8
ATOM      8  N   UNL     1      47.877   3.029   6.850  0.00  0.00    +0.000 NA
ATOM      9  H   UNL     1      48.660   3.550   6.448  0.00  0.00    +0.000 HD
ATOM     10  H   UNL     1      47.663   2.285   6.189  0.00  0.00    +0.000 HD
ENDBRANCH   7   8
ENDBRANCH   1   7
BRANCH   5  11
ATOM     11  C   UNL     1      43.615   5.017  10.780  0.00  0.00    +0.000 C 
BRANCH  11  12
ATOM     12  N   UNL     1      44.528   5.607  11.750  0.00  0.00    +0.000 N 
ATOM     13  N   UNL     1      45.210   4.794  12.596  0.00  0.00    +0.000 NA
ATOM     14  C   UNL     1      46.015   5.629  13.254  0.00  0.00    +0.000 A 
ATOM     15  C   UNL     1      45.839   6.977  12.869  0.00  0.00    +0.000 A 
ATOM     16  C   UNL     1      46.423   8.209  13.221  0.00  0.00    +0.000 A 
ATOM     17  C   UNL     1      45.970   9.373  12.591  0.00  0.00    +0.000 A 
ATOM     18  C   UNL     1      44.952   9.321  11.643  0.00  0.00    +0.000 A 
ATOM     19  C   UNL     1      44.361   8.104  11.279  0.00  0.00    +0.000 A 
ATOM     20  C   UNL     1      44.837   6.941  11.905  0.00  0.00    +0.000 A 
ENDBRANCH  11  12
ENDBRANCH   5  11
TORSDOF 4
ENDMDL
MODEL 7
REMARK VINA RESULT:    -6.239      2.704      6.019
REMARK INTER + INTRA:          -7.844
REMARK INTER:                  -7.486
REMARK INTRA:                  -0.358
REMARK UNBOUND:                -0.329
REMARK  Name = 
REMARK  4 active torsions:
REMARK  status: ('A' for Active; 'I' for Inactive)
REMARK    1  A    between atoms: N_1  and  C_2
REMARK    2  A    between atoms: C_2  and  C_3
REMARK    3  A    between atoms: C_7  and  C_8
REMARK    4  A    between atoms: C_8  and  N_9
REMARK                            x       y       z     vdW  Elec       q    Type
REMARK                         _______ _______ _______ _____ _____    ______ ____
ROOT
ATOM      1  C   UNL     1      47.235   7.778  13.165  0.00  0.00    +0.000 A 
ATOM      2  C   UNL     1      47.920   6.758  13.829  0.00  0.00    +0.000 A 
ATOM      3  C   UNL     1      47.289   5.537  14.002  0.00  0.00    +0.000 A 
ATOM      4  N   UNL     1      46.045   5.260  13.550  0.00  0.00    +0.000 NA
ATOM      5  C   UNL     1      45.380   6.251  12.902  0.00  0.00    +0.000 A 
ATOM      6  C   UNL     1      45.931   7.524  12.731  0.00  0.00    +0.000 A 
ENDROOT
BRANCH   1   7
ATOM      7  C   UNL     1      47.903   9.096  12.876  0.00  0.00    +0.000 C 
BRANCH   7   8
ATOM      8  N   UNL     1      48.009   9.899  14.089  0.00  0.00    +0.000 NA
ATOM      9  H   UNL     1      48.982  10.183  14.216  0.00  0.00    +0.000 HD
ATOM     10  H   UNL     1      47.777   9.316  14.892  0.00  0.00    +0.000 HD
ENDBRANCH   7   8
ENDBRANCH   1   7
BRANCH   5  11
ATOM     11  C   UNL     1      44.018   5.912  12.350  0.00  0.00    +0.000 C 
BRANCH  11  12
ATOM     12  N   UNL     1      44.008   4.589  11.742  0.00  0.00    +0.000 N 
ATOM     13  N   UNL     1      43.368   3.574  12.377  0.00  0.00    +0.000 NA
ATOM     14  C   UNL     1      43.456   2.559  11.516  0.00  0.00    +0.000 A 
ATOM     15  C   UNL     1      44.174   2.894  10.346  0.00  0.00    +0.000 A 
ATOM     16  C   UNL     1      44.531   2.227   9.159  0.00  0.00    +0.000 A 
ATOM     17  C   UNL     1      45.268   2.920   8.193  0.00  0.00    +0.000 A 
ATOM     18  C   UNL     1      45.656   4.241   8.404  0.00  0.00    +0.000 A 
ATOM     19  C   UNL     1      45.309   4.920   9.578  0.00  0.00    +0.000 A 
ATOM     20  C   UNL     1      44.553   4.219  10.532  0.00  0.00    +0.000 A 
ENDBRANCH  11  12
ENDBRANCH   5  11
TORSDOF 4
ENDMDL
MODEL 8
REMARK VINA RESULT:    -6.168      2.725      5.051
REMARK INTER + INTRA:          -7.759
REMARK INTER:                  -7.395
REMARK INTRA:                  -0.364
REMARK UNBOUND:                -0.329
REMARK  Name = 
REMARK  4 active torsions:
REMARK  status: ('A' for Active; 'I' for Inactive)
REMARK    1  A    between atoms: N_1  and  C_2
REMARK    2  A    between atoms: C_2  and  C_3
REMARK    3  A    between atoms: C_7  and  C_8
REMARK    4  A    between atoms: C_8  and  N_9
REMARK                            x       y       z     vdW  Elec       q    Type
REMARK                         _______ _______ _______ _____ _____    ______ ____
ROOT
ATOM      1  C   UNL     1      44.319   4.480  10.616  0.00  0.00    +0.000 A 
ATOM      2  C   UNL     1      43.022   4.762  11.050  0.00  0.00    +0.000 A 
ATOM      3  C   UNL     1      42.832   5.153  12.364  0.00  0.00    +0.000 A 
ATOM      4  N   UNL     1      43.833   5.298  13.262  0.00  0.00    +0.000 NA
ATOM      5  C   UNL     1      45.095   5.027  12.839  0.00  0.00    +0.000 A 
ATOM      6  C   UNL     1      45.362   4.580  11.542  0.00  0.00    +0.000 A 
ENDROOT
BRANCH   1   7
ATOM      7  C   UNL     1      44.594   4.131   9.177  0.00  0.00    +0.000 C 
BRANCH   7   8
ATOM      8  N   UNL     1      45.546   5.069   8.591  0.00  0.00    +0.000 NA
ATOM      9  H   UNL     1      45.420   5.985   9.026  0.00  0.00    +0.000 HD
ATOM     10  H   UNL     1      45.323   5.191   7.605  0.00  0.00    +0.000 HD
ENDBRANCH   7   8
ENDBRANCH   1   7
BRANCH   5  11
ATOM     11  C   UNL     1      46.210   5.249  13.830  0.00  0.00    +0.000 C 
BRANCH  11  12
ATOM     12  N   UNL     1      47.162   6.237  13.341  0.00  0.00    +0.000 N 
ATOM     13  N   UNL     1      48.465   5.883  13.193  0.00  0.00    +0.000 NA
ATOM     14  C   UNL     1      49.021   6.960  12.635  0.00  0.00    +0.000 A 
ATOM     15  C   UNL     1      48.103   8.019  12.451  0.00  0.00    +0.000 A 
ATOM     16  C   UNL     1      48.160   9.317  11.912  0.00  0.00    +0.000 A 
ATOM     17  C   UNL     1      46.995  10.091  11.898  0.00  0.00    +0.000 A 
ATOM     18  C   UNL     1      45.803   9.597  12.420  0.00  0.00    +0.000 A 
ATOM     19  C   UNL     1      45.728   8.306  12.959  0.00  0.00    +0.000 A 
ATOM     20  C   UNL     1      46.899   7.532  12.951  0.00  0.00    +0.000 A 
ENDBRANCH  11  12
ENDBRANCH   5  11
TORSDOF 4
ENDMDL
MODEL 9
REMARK VINA RESULT:    -5.775      2.525      4.685
REMARK INTER + INTRA:          -7.285
REMARK INTER:                  -6.851
REMARK INTRA:                  -0.434
REMARK UNBOUND:                -0.329
REMARK  Name = 
REMARK  4 active torsions:
REMARK  status: ('A' for Active; 'I' for Inactive)
REMARK    1  A    between atoms: N_1  and  C_2
REMARK    2  A    between atoms: C_2  and  C_3
REMARK    3  A    between atoms: C_7  and  C_8
REMARK    4  A    between atoms: C_8  and  N_9
REMARK                            x       y       z     vdW  Elec       q    Type
REMARK                         _______ _______ _______ _____ _____    ______ ____
ROOT
ATOM      1  C   UNL     1      44.614   3.395  10.676  0.00  0.00    +0.000 A 
ATOM      2  C   UNL     1      43.484   2.971  11.377  0.00  0.00    +0.000 A 
ATOM      3  C   UNL     1      43.380   3.285  12.722  0.00  0.00    +0.000 A 
ATOM      4  N   UNL     1      44.303   3.999  13.405  0.00  0.00    +0.000 NA
ATOM      5  C   UNL     1      45.401   4.415  12.722  0.00  0.00    +0.000 A 
ATOM      6  C   UNL     1      45.601   4.096  11.376  0.00  0.00    +0.000 A 
ENDROOT
BRANCH   1   7
ATOM      7  C   UNL     1      44.741   3.154   9.195  0.00  0.00    +0.000 C 
BRANCH   7   8
ATOM      8  N   UNL     1      44.192   4.275   8.441  0.00  0.00    +0.000 NA
ATOM      9  H   UNL     1      44.376   5.141   8.951  0.00  0.00    +0.000 HD
ATOM     10  H   UNL     1      43.178   4.181   8.401  0.00  0.00    +0.000 HD
ENDBRANCH   7   8
ENDBRANCH   1   7
BRANCH   5  11
ATOM     11  C   UNL     1      46.396   5.261  13.477  0.00  0.00    +0.000 C 
BRANCH  11  12
ATOM     12  N   UNL     1      46.434   6.621  12.957  0.00  0.00    +0.000 N 
ATOM     13  N   UNL     1      45.285   7.342  12.908  0.00  0.00    +0.000 NA
ATOM     14  C   UNL     1      45.687   8.546  12.497  0.00  0.00    +0.000 A 
ATOM     15  C   UNL     1      47.076   8.604  12.248  0.00  0.00    +0.000 A 
ATOM     16  C   UNL     1      47.983   9.597  11.831  0.00  0.00    +0.000 A 
ATOM     17  C   UNL     1      49.335   9.261  11.701  0.00  0.00    +0.000 A 
ATOM     18  C   UNL     1      49.778   7.968  11.964  0.00  0.00    +0.000 A 
ATOM     19  C   UNL     1      48.890   6.968  12.381  0.00  0.00    +0.000 A 
ATOM     20  C   UNL     1      47.539   7.322  12.525  0.00  0.00    +0.000 A 
ENDBRANCH  11  12
ENDBRANCH   5  11
TORSDOF 4
ENDMDL
