MODEL 1
REMARK VINA RESULT:    -8.289      0.000      0.000
REMARK INTER + INTRA:         -11.471
REMARK INTER:                 -10.712
REMARK INTRA:                  -0.758
REMARK UNBOUND:                -0.758
REMARK  Name = 
REMARK  7 active torsions:
REMARK  status: ('A' for Active; 'I' for Inactive)
REMARK    1  A    between atoms: C_1  and  O_2
REMARK    2  A    between atoms: O_2  and  C_3
REMARK    3  A    between atoms: C_6  and  C_7
REMARK    4  A    between atoms: C_7  and  C_8
REMARK    5  A    between atoms: C_7  and  N_9
REMARK    6  A    between atoms: N_9  and  C_10
REMARK    7  A    between atoms: C_13  and  C_14
REMARK                            x       y       z     vdW  Elec       q    Type
REMARK                         _______ _______ _______ _____ _____    ______ ____
ROOT
ATOM      1  N   UNL     1      43.759   4.823   9.828  0.00  0.00    +0.000 N 
ATOM      2  H   UNL     1      43.946   5.790   9.564  0.00  0.00    +0.000 HD
ENDROOT
BRANCH   1   3
ATOM      3  C   UNL     1      44.567   3.936   9.116  0.00  0.00    +0.000 A 
ATOM      4  C   UNL     1      45.562   4.319   8.217  0.00  0.00    +0.000 A 
ATOM      5  C   UNL     1      46.403   3.369   7.628  0.00  0.00    +0.000 A 
ATOM      6  C   UNL     1      46.234   2.035   7.964  0.00  0.00    +0.000 A 
ATOM      7  N   UNL     1      45.297   1.597   8.845  0.00  0.00    +0.000 NA
ATOM      8  C   UNL     1      44.516   2.561   9.400  0.00  0.00    +0.000 A 
BRANCH   6   9
ATOM      9  C   UNL     1      47.129   0.998   7.353  0.00  0.00    +0.000 C 
ATOM     10  N   UNL     1      46.842  -0.299   7.687  0.00  0.00    +0.000 N 
ATOM     11  O   UNL     1      48.056   1.282   6.607  0.00  0.00    +0.000 OA
ATOM     12  H   UNL     1      46.075  -0.495   8.319  0.00  0.00    +0.000 HD
ATOM     13  H   UNL     1      47.417  -1.045   7.326  0.00  0.00    +0.000 HD
ENDBRANCH   6   9
ENDBRANCH   1   3
BRANCH   1  14
ATOM     14  C   UNL     1      43.525   4.708  11.276  0.00  0.00    +0.000 C 
ATOM     15  C   UNL     1      42.408   5.646  11.746  0.00  0.00    +0.000 C 
BRANCH  14  19
ATOM     16  C   UNL     1      47.247   5.691  13.319  0.00  0.00    +0.000 A 
ATOM     17  C   UNL     1      46.612   4.471  13.552  0.00  0.00    +0.000 A 
ATOM     18  C   UNL     1      45.413   4.158  12.896  0.00  0.00    +0.000 A 
ATOM     19  C   UNL     1      44.827   5.061  11.997  0.00  0.00    +0.000 A 
ATOM     20  C   UNL     1      45.474   6.287  11.772  0.00  0.00    +0.000 A 
ATOM     21  C   UNL     1      46.668   6.595  12.428  0.00  0.00    +0.000 A 
BRANCH  16  23
ATOM     22  C   UNL     1      49.166   7.089  13.170  0.00  0.00    +0.000 C 
ATOM     23  O   UNL     1      48.415   6.118  13.886  0.00  0.00    +0.000 OA
ENDBRANCH  16  23
ENDBRANCH  14  19
ENDBRANCH   1  14
TORSDOF 5
ENDMDL
MODEL 2
REMARK VINA RESULT:    -8.097      1.167      1.794
REMARK INTER + INTRA:         -11.223
REMARK INTER:                 -10.480
REMARK INTRA:                  -0.743
REMARK UNBOUND:                -0.758
REMARK  Name = 
REMARK  7 active torsions:
REMARK  status: ('A' for Active; 'I' for Inactive)
REMARK    1  A    between atoms: C_1  and  O_2
REMARK    2  A    between atoms: O_2  and  C_3
REMARK    3  A    between atoms: C_6  and  C_7
REMARK    4  A    between atoms: C_7  and  C_8
REMARK    5  A    between atoms: C_7  and  N_9
REMARK    6  A    between atoms: N_9  and  C_10
REMARK    7  A    between atoms: C_13  and  C_14
REMARK                            x       y       z     vdW  Elec       q    Type
REMARK                         _______ _______ _______ _____ _____    ______ ____
ROOT
ATOM      1  N   UNL     1      43.700   4.770   9.895  0.00  0.00    +0.000 N 
ATOM      2  H   UNL     1      43.729   5.735   9.566  0.00  0.00    +0.000 HD
ENDROOT
BRANCH   1   3
ATOM      3  C   UNL     1      44.654   3.983   9.249  0.00  0.00    +0.000 A 
ATOM      4  C   UNL     1      44.708   2.592   9.314  0.00  0.00    +0.000 A 
ATOM      5  C   UNL     1      45.629   1.871   8.547  0.00  0.00    +0.000 A 
ATOM      6  C   UNL     1      46.485   2.571   7.709  0.00  0.00    +0.000 A 
ATOM      7  N   UNL     1      46.473   3.923   7.586  0.00  0.00    +0.000 NA
ATOM      8  C   UNL     1      45.549   4.574   8.341  0.00  0.00    +0.000 A 
BRANCH   6   9
ATOM      9  C   UNL     1      47.476   1.820   6.869  0.00  0.00    +0.000 C 
ATOM     10  N   UNL     1      48.494   2.572   6.347  0.00  0.00    +0.000 N 
ATOM     11  O   UNL     1      47.387   0.619   6.657  0.00  0.00    +0.000 OA
ATOM     12  H   UNL     1      48.527   3.568   6.533  0.00  0.00    +0.000 HD
ATOM     13  H   UNL     1      49.185   2.134   5.757  0.00  0.00    +0.000 HD
ENDBRANCH   6   9
ENDBRANCH   1   3
BRANCH   1  14
ATOM     14  C   UNL     1      43.465   4.715  11.346  0.00  0.00    +0.000 C 
ATOM     15  C   UNL     1      42.378   5.703  11.783  0.00  0.00    +0.000 C 
BRANCH  14  19
ATOM     16  C   UNL     1      47.195   5.707  13.371  0.00  0.00    +0.000 A 
ATOM     17  C   UNL     1      46.581   6.631  12.527  0.00  0.00    +0.000 A 
ATOM     18  C   UNL     1      45.382   6.309  11.874  0.00  0.00    +0.000 A 
ATOM     19  C   UNL     1      44.779   5.055  12.053  0.00  0.00    +0.000 A 
ATOM     20  C   UNL     1      45.408   4.132  12.904  0.00  0.00    +0.000 A 
ATOM     21  C   UNL     1      46.602   4.457  13.552  0.00  0.00    +0.000 A 
BRANCH  16  23
ATOM     22  C   UNL     1      48.540   7.155  14.696  0.00  0.00    +0.000 C 
ATOM     23  O   UNL     1      48.356   5.893  14.068  0.00  0.00    +0.000 OA
ENDBRANCH  16  23
ENDBRANCH  14  19
ENDBRANCH   1  14
TORSDOF 5
ENDMDL
MODEL 3
REMARK VINA RESULT:    -6.833      2.205      6.172
REMARK INTER + INTRA:          -9.588
REMARK INTER:                  -9.563
REMARK INTRA:                  -0.026
REMARK UNBOUND:                -0.758
REMARK  Name = 
REMARK  7 active torsions:
REMARK  status: ('A' for Active; 'I' for Inactive)
REMARK    1  A    between atoms: C_1  and  O_2
REMARK    2  A    between atoms: O_2  and  C_3
REMARK    3  A    between atoms: C_6  and  C_7
REMARK    4  A    between atoms: C_7  and  C_8
REMARK    5  A    between atoms: C_7  and  N_9
REMARK    6  A    between atoms: N_9  and  C_10
REMARK    7  A    between atoms: C_13  and  C_14
REMARK                            x       y       z     vdW  Elec       q    Type
REMARK                         _______ _______ _______ _____ _____    ______ ____
ROOT
ATOM      1  N   UNL     1      44.307   5.423  10.621  0.00  0.00    +0.000 N 
ATOM      2  H   UNL     1      43.555   6.082  10.820  0.00  0.00    +0.000 HD
ENDROOT
BRANCH   1   3
ATOM      3  C   UNL     1      45.308   5.488  11.591  0.00  0.00    +0.000 A 
ATOM      4  C   UNL     1      46.489   6.218  11.463  0.00  0.00    +0.000 A 
ATOM      5  C   UNL     1      47.391   6.321  12.527  0.00  0.00    +0.000 A 
ATOM      6  C   UNL     1      47.081   5.687  13.721  0.00  0.00    +0.000 A 
ATOM      7  N   UNL     1      45.942   4.975  13.918  0.00  0.00    +0.000 NA
ATOM      8  C   UNL     1      45.093   4.919  12.858  0.00  0.00    +0.000 A 
BRANCH   6   9
ATOM      9  C   UNL     1      48.028   5.789  14.880  0.00  0.00    +0.000 C 
ATOM     10  N   UNL     1      47.569   5.273  16.063  0.00  0.00    +0.000 N 
ATOM     11  O   UNL     1      49.136   6.299  14.786  0.00  0.00    +0.000 OA
ATOM     12  H   UNL     1      46.639   4.872  16.106  0.00  0.00    +0.000 HD
ATOM     13  H   UNL     1      48.146   5.326  16.888  0.00  0.00    +0.000 HD
ENDBRANCH   6   9
ENDBRANCH   1   3
BRANCH   1  14
ATOM     14  C   UNL     1      43.774   4.154  10.103  0.00  0.00    +0.000 C 
ATOM     15  C   UNL     1      43.444   3.174  11.234  0.00  0.00    +0.000 C 
BRANCH  14  19
ATOM     16  C   UNL     1      46.760   2.376   7.472  0.00  0.00    +0.000 A 
ATOM     17  C   UNL     1      46.043   1.583   8.367  0.00  0.00    +0.000 A 
ATOM     18  C   UNL     1      45.085   2.157   9.214  0.00  0.00    +0.000 A 
ATOM     19  C   UNL     1      44.829   3.536   9.184  0.00  0.00    +0.000 A 
ATOM     20  C   UNL     1      45.559   4.325   8.280  0.00  0.00    +0.000 A 
ATOM     21  C   UNL     1      46.513   3.749   7.438  0.00  0.00    +0.000 A 
BRANCH  16  23
ATOM     22  C   UNL     1      47.634   2.435   5.260  0.00  0.00    +0.000 C 
ATOM     23  O   UNL     1      47.713   1.946   6.592  0.00  0.00    +0.000 OA
ENDBRANCH  16  23
ENDBRANCH  14  19
ENDBRANCH   1  14
TORSDOF 5
ENDMDL
MODEL 4
REMARK VINA RESULT:    -6.590      2.750      6.326
REMARK INTER + INTRA:          -9.275
REMARK INTER:                  -8.596
REMARK INTRA:                  -0.679
REMARK UNBOUND:                -0.758
REMARK  Name = 
REMARK  7 active torsions:
REMARK  status: ('A' for Active; 'I' for Inactive)
REMARK    1  A    between atoms: C_1  and  O_2
REMARK    2  A    between atoms: O_2  and  C_3
REMARK    3  A    between atoms: C_6  and  C_7
REMARK    4  A    between atoms: C_7  and  C_8
REMARK    5  A    between atoms: C_7  and  N_9
REMARK    6  A    between atoms: N_9  and  C_10
REMARK    7  A    between atoms: C_13  and  C_14
REMARK                            x       y       z     vdW  Elec       q    Type
REMARK                         _______ _______ _______ _____ _____    ______ ____
ROOT
ATOM      1  N   UNL     1      45.149   5.026  12.334  0.00  0.00    +0.000 N 
ATOM      2  H   UNL     1      45.223   4.044  12.597  0.00  0.00    +0.000 HD
ENDROOT
BRANCH   1   3
ATOM      3  C   UNL     1      46.364   5.690  12.507  0.00  0.00    +0.000 A 
ATOM      4  C   UNL     1      46.772   6.800  11.768  0.00  0.00    +0.000 A 
ATOM      5  C   UNL     1      47.956   7.476  12.079  0.00  0.00    +0.000 A 
ATOM      6  C   UNL     1      48.714   7.026  13.149  0.00  0.00    +0.000 A 
ATOM      7  N   UNL     1      48.366   5.964  13.920  0.00  0.00    +0.000 NA
ATOM      8  C   UNL     1      47.200   5.351  13.584  0.00  0.00    +0.000 A 
BRANCH   6   9
ATOM      9  C   UNL     1      49.984   7.739  13.509  0.00  0.00    +0.000 C 
ATOM     10  N   UNL     1      50.583   7.327  14.669  0.00  0.00    +0.000 N 
ATOM     11  O   UNL     1      50.459   8.632  12.820  0.00  0.00    +0.000 OA
ATOM     12  H   UNL     1      50.152   6.594  15.222  0.00  0.00    +0.000 HD
ATOM     13  H   UNL     1      51.429   7.778  14.981  0.00  0.00    +0.000 HD
ENDBRANCH   6   9
ENDBRANCH   1   3
BRANCH   1  14
ATOM     14  C   UNL     1      44.310   5.190  11.137  0.00  0.00    +0.000 C 
ATOM     15  C   UNL     1      42.851   4.808  11.411  0.00  0.00    +0.000 C 
BRANCH  14  19
ATOM     16  C   UNL     1      45.892   2.624   7.990  0.00  0.00    +0.000 A 
ATOM     17  C   UNL     1      45.215   2.073   9.078  0.00  0.00    +0.000 A 
ATOM     18  C   UNL     1      44.710   2.901  10.091  0.00  0.00    +0.000 A 
ATOM     19  C   UNL     1      44.875   4.293  10.034  0.00  0.00    +0.000 A 
ATOM     20  C   UNL     1      45.560   4.835   8.935  0.00  0.00    +0.000 A 
ATOM     21  C   UNL     1      46.063   4.007   7.929  0.00  0.00    +0.000 A 
BRANCH  16  23
ATOM     22  C   UNL     1      47.847   1.879   6.856  0.00  0.00    +0.000 C 
ATOM     23  O   UNL     1      46.429   1.936   6.938  0.00  0.00    +0.000 OA
ENDBRANCH  16  23
ENDBRANCH  14  19
ENDBRANCH   1  14
TORSDOF 5
ENDMDL
MODEL 5
REMARK VINA RESULT:    -6.240      2.711      6.801
REMARK INTER + INTRA:          -8.823
REMARK INTER:                  -8.223
REMARK INTRA:                  -0.600
REMARK UNBOUND:                -0.758
REMARK  Name = 
REMARK  7 active torsions:
REMARK  status: ('A' for Active; 'I' for Inactive)
REMARK    1  A    between atoms: C_1  and  O_2
REMARK    2  A    between atoms: O_2  and  C_3
REMARK    3  A    between atoms: C_6  and  C_7
REMARK    4  A    between atoms: C_7  and  C_8
REMARK    5  A    between atoms: C_7  and  N_9
REMARK    6  A    between atoms: N_9  and  C_10
REMARK    7  A    between atoms: C_13  and  C_14
REMARK                            x       y       z     vdW  Elec       q    Type
REMARK                         _______ _______ _______ _____ _____    ______ ____
ROOT
ATOM      1  N   UNL     1      45.246   4.493  11.934  0.00  0.00    +0.000 N 
ATOM      2  H   UNL     1      46.064   3.884  11.927  0.00  0.00    +0.000 HD
ENDROOT
BRANCH   1   3
ATOM      3  C   UNL     1      45.610   5.831  12.085  0.00  0.00    +0.000 A 
ATOM      4  C   UNL     1      46.890   6.271  12.421  0.00  0.00    +0.000 A 
ATOM      5  C   UNL     1      47.199   7.635  12.444  0.00  0.00    +0.000 A 
ATOM      6  C   UNL     1      46.207   8.545  12.114  0.00  0.00    +0.000 A 
ATOM      7  N   UNL     1      44.946   8.184  11.761  0.00  0.00    +0.000 NA
ATOM      8  C   UNL     1      44.702   6.846  11.741  0.00  0.00    +0.000 A 
BRANCH   6   9
ATOM      9  C   UNL     1      46.516  10.013  12.122  0.00  0.00    +0.000 C 
ATOM     10  N   UNL     1      47.550  10.392  12.936  0.00  0.00    +0.000 N 
ATOM     11  O   UNL     1      45.892  10.824  11.453  0.00  0.00    +0.000 OA
ATOM     12  H   UNL     1      48.035   9.694  13.487  0.00  0.00    +0.000 HD
ATOM     13  H   UNL     1      47.799  11.367  13.004  0.00  0.00    +0.000 HD
ENDBRANCH   6   9
ENDBRANCH   1   3
BRANCH   1  14
ATOM     14  C   UNL     1      44.244   4.040  10.957  0.00  0.00    +0.000 C 
ATOM     15  C   UNL     1      43.356   2.929  11.528  0.00  0.00    +0.000 C 
BRANCH  14  19
ATOM     16  C   UNL     1      46.377   2.572   7.452  0.00  0.00    +0.000 A 
ATOM     17  C   UNL     1      46.229   3.941   7.667  0.00  0.00    +0.000 A 
ATOM     18  C   UNL     1      45.540   4.411   8.794  0.00  0.00    +0.000 A 
ATOM     19  C   UNL     1      44.984   3.520   9.724  0.00  0.00    +0.000 A 
ATOM     20  C   UNL     1      45.139   2.143   9.495  0.00  0.00    +0.000 A 
ATOM     21  C   UNL     1      45.825   1.678   8.371  0.00  0.00    +0.000 A 
BRANCH  16  23
ATOM     22  C   UNL     1      47.231   2.774   5.240  0.00  0.00    +0.000 C 
ATOM     23  O   UNL     1      47.026   1.982   6.403  0.00  0.00    +0.000 OA
ENDBRANCH  16  23
ENDBRANCH  14  19
ENDBRANCH   1  14
TORSDOF 5
ENDMDL
MODEL 6
REMARK VINA RESULT:    -5.970      3.468      7.044
REMARK INTER + INTRA:          -8.473
REMARK INTER:                  -7.948
REMARK INTRA:                  -0.525
REMARK UNBOUND:                -0.758
REMARK  Name = 
REMARK  7 active torsions:
REMARK  status: ('A' for Active; 'I' for Inactive)
REMARK    1  A    between atoms: C_1  and  O_2
REMARK    2  A    between atoms: O_2  and  C_3
REMARK    3  A    between atoms: C_6  and  C_7
REMARK    4  A    between atoms: C_7  and  C_8
REMARK    5  A    between atoms: C_7  and  N_9
REMARK    6  A    between atoms: N_9  and  C_10
REMARK    7  A    between atoms: C_13  and  C_14
REMARK                            x       y       z     vdW  Elec       q    Type
REMARK                         _______ _______ _______ _____ _____    ______ ____
ROOT
ATOM      1  N   UNL     1      45.768   4.015  13.545  0.00  0.00    +0.000 N 
ATOM      2  H   UNL     1      46.213   3.298  12.972  0.00  0.00    +0.000 HD
ENDROOT
BRANCH   1   3
ATOM      3  C   UNL     1      46.695   4.658  14.366  0.00  0.00    +0.000 A 
ATOM      4  C   UNL     1      47.020   4.254  15.660  0.00  0.00    +0.000 A 
ATOM      5  C   UNL     1      48.041   4.887  16.376  0.00  0.00    +0.000 A 
ATOM      6  C   UNL     1      48.734   5.922  15.767  0.00  0.00    +0.000 A 
ATOM      7  N   UNL     1      48.480   6.353  14.505  0.00  0.00    +0.000 NA
ATOM      8  C   UNL     1      47.488   5.695  13.847  0.00  0.00    +0.000 A 
BRANCH   6   9
ATOM      9  C   UNL     1      49.840   6.611  16.511  0.00  0.00    +0.000 C 
ATOM     10  N   UNL     1      49.632   6.777  17.854  0.00  0.00    +0.000 N 
ATOM     11  O   UNL     1      50.861   7.002  15.963  0.00  0.00    +0.000 OA
ATOM     12  H   UNL     1      48.767   6.452  18.270  0.00  0.00    +0.000 HD
ATOM     13  H   UNL     1      50.327   7.250  18.411  0.00  0.00    +0.000 HD
ENDBRANCH   6   9
ENDBRANCH   1   3
BRANCH   1  14
ATOM     14  C   UNL     1      44.738   4.736  12.781  0.00  0.00    +0.000 C 
ATOM     15  C   UNL     1      43.325   4.317  13.198  0.00  0.00    +0.000 C 
BRANCH  14  19
ATOM     16  C   UNL     1      45.300   3.854   8.550  0.00  0.00    +0.000 A 
ATOM     17  C   UNL     1      44.700   2.919   9.394  0.00  0.00    +0.000 A 
ATOM     18  C   UNL     1      44.524   3.204  10.755  0.00  0.00    +0.000 A 
ATOM     19  C   UNL     1      44.945   4.428  11.297  0.00  0.00    +0.000 A 
ATOM     20  C   UNL     1      45.549   5.360  10.437  0.00  0.00    +0.000 A 
ATOM     21  C   UNL     1      45.724   5.072   9.082  0.00  0.00    +0.000 A 
BRANCH  16  23
ATOM     22  C   UNL     1      46.841   3.334   6.813  0.00  0.00    +0.000 C 
ATOM     23  O   UNL     1      45.528   3.706   7.210  0.00  0.00    +0.000 OA
ENDBRANCH  16  23
ENDBRANCH  14  19
ENDBRANCH   1  14
TORSDOF 5
ENDMDL
MODEL 7
REMARK VINA RESULT:    -5.755      3.009      6.450
REMARK INTER + INTRA:          -8.195
REMARK INTER:                  -8.285
REMARK INTRA:                   0.090
REMARK UNBOUND:                -0.758
REMARK  Name = 
REMARK  7 active torsions:
REMARK  status: ('A' for Active; 'I' for Inactive)
REMARK    1  A    between atoms: C_1  and  O_2
REMARK    2  A    between atoms: O_2  and  C_3
REMARK    3  A    between atoms: C_6  and  C_7
REMARK    4  A    between atoms: C_7  and  C_8
REMARK    5  A    between atoms: C_7  and  N_9
REMARK    6  A    between atoms: N_9  and  C_10
REMARK    7  A    between atoms: C_13  and  C_14
REMARK                            x       y       z     vdW  Elec       q    Type
REMARK                         _______ _______ _______ _____ _____    ______ ____
ROOT
ATOM      1  N   UNL     1      46.258   6.059  12.068  0.00  0.00    +0.000 N 
ATOM      2  H   UNL     1      46.372   7.068  12.161  0.00  0.00    +0.000 HD
ENDROOT
BRANCH   1   3
ATOM      3  C   UNL     1      46.776   5.385  13.174  0.00  0.00    +0.000 A 
ATOM      4  C   UNL     1      47.208   6.003  14.347  0.00  0.00    +0.000 A 
ATOM      5  C   UNL     1      47.610   5.246  15.453  0.00  0.00    +0.000 A 
ATOM      6  C   UNL     1      47.562   3.863  15.362  0.00  0.00    +0.000 A 
ATOM      7  N   UNL     1      47.136   3.199  14.257  0.00  0.00    +0.000 NA
ATOM      8  C   UNL     1      46.743   3.981  13.216  0.00  0.00    +0.000 A 
BRANCH   6   9
ATOM      9  C   UNL     1      47.980   3.030  16.537  0.00  0.00    +0.000 C 
ATOM     10  N   UNL     1      47.056   2.926  17.543  0.00  0.00    +0.000 N 
ATOM     11  O   UNL     1      49.069   2.478  16.603  0.00  0.00    +0.000 OA
ATOM     12  H   UNL     1      46.169   3.409  17.460  0.00  0.00    +0.000 HD
ATOM     13  H   UNL     1      47.279   2.396  18.372  0.00  0.00    +0.000 HD
ENDBRANCH   6   9
ENDBRANCH   1   3
BRANCH   1  14
ATOM     14  C   UNL     1      44.958   5.729  11.464  0.00  0.00    +0.000 C 
ATOM     15  C   UNL     1      43.996   5.118  12.489  0.00  0.00    +0.000 C 
BRANCH  14  19
ATOM     16  C   UNL     1      45.678   2.886   8.241  0.00  0.00    +0.000 A 
ATOM     17  C   UNL     1      46.080   4.215   8.114  0.00  0.00    +0.000 A 
ATOM     18  C   UNL     1      45.845   5.129   9.152  0.00  0.00    +0.000 A 
ATOM     19  C   UNL     1      45.201   4.729  10.332  0.00  0.00    +0.000 A 
ATOM     20  C   UNL     1      44.799   3.388  10.446  0.00  0.00    +0.000 A 
ATOM     21  C   UNL     1      45.034   2.481   9.411  0.00  0.00    +0.000 A 
BRANCH  16  23
ATOM     22  C   UNL     1      47.184   1.552   6.970  0.00  0.00    +0.000 C 
ATOM     23  O   UNL     1      45.848   1.896   7.313  0.00  0.00    +0.000 OA
ENDBRANCH  16  23
ENDBRANCH  14  19
ENDBRANCH   1  14
TORSDOF 5
ENDMDL
MODEL 8
REMARK VINA RESULT:    -5.609      4.719      6.418
REMARK INTER + INTRA:          -8.007
REMARK INTER:                  -7.463
REMARK INTRA:                  -0.545
REMARK UNBOUND:                -0.758
REMARK  Name = 
REMARK  7 active torsions:
REMARK  status: ('A' for Active; 'I' for Inactive)
REMARK    1  A    between atoms: C_1  and  O_2
REMARK    2  A    between atoms: O_2  and  C_3
REMARK    3  A    between atoms: C_6  and  C_7
REMARK    4  A    between atoms: C_7  and  C_8
REMARK    5  A    between atoms: C_7  and  N_9
REMARK    6  A    between atoms: N_9  and  C_10
REMARK    7  A    between atoms: C_13  and  C_14
REMARK                            x       y       z     vdW  Elec       q    Type
REMARK                         _______ _______ _______ _____ _____    ______ ____
ROOT
ATOM      1  N   UNL     1      47.661   5.171  15.628  0.00  0.00    +0.000 N 
ATOM      2  H   UNL     1      48.627   5.391  15.388  0.00  0.00    +0.000 HD
ENDROOT
BRANCH   1   3
ATOM      3  C   UNL     1      46.896   4.931  14.486  0.00  0.00    +0.000 A 
ATOM      4  C   UNL     1      46.442   5.921  13.615  0.00  0.00    +0.000 A 
ATOM      5  C   UNL     1      45.775   5.587  12.431  0.00  0.00    +0.000 A 
ATOM      6  C   UNL     1      45.582   4.247  12.136  0.00  0.00    +0.000 A 
ATOM      7  N   UNL     1      46.013   3.234  12.931  0.00  0.00    +0.000 NA
ATOM      8  C   UNL     1      46.668   3.612  14.061  0.00  0.00    +0.000 A 
BRANCH   6   9
ATOM      9  C   UNL     1      44.877   3.862  10.868  0.00  0.00    +0.000 C 
ATOM     10  N   UNL     1      44.894   2.527  10.566  0.00  0.00    +0.000 N 
ATOM     11  O   UNL     1      44.324   4.680  10.145  0.00  0.00    +0.000 OA
ATOM     12  H   UNL     1      45.375   1.881  11.182  0.00  0.00    +0.000 HD
ATOM     13  H   UNL     1      44.456   2.201   9.719  0.00  0.00    +0.000 HD
ENDBRANCH   6   9
ENDBRANCH   1   3
BRANCH   1  14
ATOM     14  C   UNL     1      47.595   4.325  16.829  0.00  0.00    +0.000 C 
ATOM     15  C   UNL     1      47.120   5.113  18.054  0.00  0.00    +0.000 C 
BRANCH  14  19
ATOM     16  C   UNL     1      51.579   2.738  17.608  0.00  0.00    +0.000 A 
ATOM     17  C   UNL     1      51.302   4.089  17.817  0.00  0.00    +0.000 A 
ATOM     18  C   UNL     1      50.020   4.598  17.562  0.00  0.00    +0.000 A 
ATOM     19  C   UNL     1      48.994   3.765  17.093  0.00  0.00    +0.000 A 
ATOM     20  C   UNL     1      49.286   2.407  16.885  0.00  0.00    +0.000 A 
ATOM     21  C   UNL     1      50.564   1.904  17.138  0.00  0.00    +0.000 A 
BRANCH  16  23
ATOM     22  C   UNL     1      52.785   0.694  17.778  0.00  0.00    +0.000 C 
ATOM     23  O   UNL     1      52.777   2.115  17.819  0.00  0.00    +0.000 OA
ENDBRANCH  16  23
ENDBRANCH  14  19
ENDBRANCH   1  14
TORSDOF 5
ENDMDL
MODEL 9
REMARK VINA RESULT:    -5.469      3.358      5.363
REMARK INTER + INTRA:          -7.825
REMARK INTER:                  -7.201
REMARK INTRA:                  -0.625
REMARK UNBOUND:                -0.758
REMARK  Name = 
REMARK  7 active torsions:
REMARK  status: ('A' for Active; 'I' for Inactive)
REMARK    1  A    between atoms: C_1  and  O_2
REMARK    2  A    between atoms: O_2  and  C_3
REMARK    3  A    between atoms: C_6  and  C_7
REMARK    4  A    between atoms: C_7  and  C_8
REMARK    5  A    between atoms: C_7  and  N_9
REMARK    6  A    between atoms: N_9  and  C_10
REMARK    7  A    between atoms: C_13  and  C_14
REMARK                            x       y       z     vdW  Elec       q    Type
REMARK                         _______ _______ _______ _____ _____    ______ ____
ROOT
ATOM      1  N   UNL     1      46.823   6.917  13.576  0.00  0.00    +0.000 N 
ATOM      2  H   UNL     1      46.474   7.862  13.413  0.00  0.00    +0.000 HD
ENDROOT
BRANCH   1   3
ATOM      3  C   UNL     1      46.047   5.968  12.910  0.00  0.00    +0.000 A 
ATOM      4  C   UNL     1      45.789   5.977  11.539  0.00  0.00    +0.000 A 
ATOM      5  C   UNL     1      45.094   4.926  10.931  0.00  0.00    +0.000 A 
ATOM      6  C   UNL     1      44.673   3.866  11.720  0.00  0.00    +0.000 A 
ATOM      7  N   UNL     1      44.906   3.787  13.055  0.00  0.00    +0.000 NA
ATOM      8  C   UNL     1      45.598   4.826  13.594  0.00  0.00    +0.000 A 
BRANCH   6   9
ATOM      9  C   UNL     1      43.933   2.723  11.090  0.00  0.00    +0.000 C 
ATOM     10  N   UNL     1      44.471   2.245   9.925  0.00  0.00    +0.000 N 
ATOM     11  O   UNL     1      42.918   2.245  11.576  0.00  0.00    +0.000 OA
ATOM     12  H   UNL     1      45.306   2.676   9.545  0.00  0.00    +0.000 HD
ATOM     13  H   UNL     1      44.014   1.489   9.438  0.00  0.00    +0.000 HD
ENDBRANCH   6   9
ENDBRANCH   1   3
BRANCH   1  14
ATOM     14  C   UNL     1      48.293   6.890  13.580  0.00  0.00    +0.000 C 
ATOM     15  C   UNL     1      48.859   7.023  14.998  0.00  0.00    +0.000 C 
BRANCH  14  19
ATOM     16  C   UNL     1      49.706  10.221  11.151  0.00  0.00    +0.000 A 
ATOM     17  C   UNL     1      48.385  10.181  11.595  0.00  0.00    +0.000 A 
ATOM     18  C   UNL     1      47.932   9.106  12.374  0.00  0.00    +0.000 A 
ATOM     19  C   UNL     1      48.792   8.053  12.720  0.00  0.00    +0.000 A 
ATOM     20  C   UNL     1      50.119   8.105  12.264  0.00  0.00    +0.000 A 
ATOM     21  C   UNL     1      50.566   9.176  11.488  0.00  0.00    +0.000 A 
BRANCH  16  23
ATOM     22  C   UNL     1      51.590  10.971   9.905  0.00  0.00    +0.000 C 
ATOM     23  O   UNL     1      50.276  11.206  10.392  0.00  0.00    +0.000 OA
ENDBRANCH  16  23
ENDBRANCH  14  19
ENDBRANCH   1  14
TORSDOF 5
ENDMDL
