MODEL 1
REMARK VINA RESULT:    -8.224      0.000      0.000
REMARK INTER + INTRA:         -11.555
REMARK INTER:                 -10.628
REMARK INTRA:                  -0.927
REMARK UNBOUND:                -0.927
REMARK  Name = 
REMARK  5 active torsions:
REMARK  status: ('A' for Active; 'I' for Inactive)
REMARK    1  A    between atoms: C_2  and  C_3
REMARK    2  A    between atoms: C_6  and  N_7
REMARK    3  A    between atoms: N_7  and  C_8
REMARK    4  A    between atoms: C_8  and  C_9
REMARK    5  A    between atoms: C_13  and  C_14
REMARK                            x       y       z     vdW  Elec       q    Type
REMARK                         _______ _______ _______ _____ _____    ______ ____
ROOT
ATOM      1  C   UNL     1      43.827   5.014  11.240  0.00  0.00    +0.000 C 
ATOM      2  C   UNL     1      42.499   5.170  11.983  0.00  0.00    +0.000 C 
ATOM      3  C   UNL     1      42.932   6.221  11.021  0.00  0.00    +0.000 C 
ENDROOT
BRANCH   1   4
ATOM      4  C   UNL     1      45.094   5.257  12.061  0.00  0.00    +0.000 A 
ATOM      5  C   UNL     1      45.517   4.348  13.036  0.00  0.00    +0.000 A 
ATOM      6  C   UNL     1      46.769   4.475  13.636  0.00  0.00    +0.000 A 
ATOM      7  C   UNL     1      47.604   5.545  13.304  0.00  0.00    +0.000 A 
ATOM      8  C   UNL     1      47.194   6.535  12.400  0.00  0.00    +0.000 A 
ATOM      9  C   UNL     1      45.932   6.360  11.797  0.00  0.00    +0.000 A 
BRANCH   8  10
ATOM     10  C   UNL     1      48.033   7.715  12.072  0.00  0.00    +0.000 A 
ATOM     11  C   UNL     1      49.378   7.550  11.684  0.00  0.00    +0.000 A 
ATOM     12  C   UNL     1      50.200   8.641  11.386  0.00  0.00    +0.000 A 
ATOM     13  C   UNL     1      49.692   9.934  11.451  0.00  0.00    +0.000 A 
ATOM     14  C   UNL     1      48.364  10.130  11.820  0.00  0.00    +0.000 A 
ATOM     15  C   UNL     1      47.554   9.035  12.130  0.00  0.00    +0.000 A 
ATOM     16  F   UNL     1      46.291   9.290  12.504  0.00  0.00    +0.000 F 
ENDBRANCH   8  10
ENDBRANCH   1   4
BRANCH   1  17
ATOM     17  N   UNL     1      43.902   3.850  10.361  0.00  0.00    +0.000 N 
ATOM     18  H   UNL     1      43.361   3.023  10.598  0.00  0.00    +0.000 HD
BRANCH  17  22
ATOM     19  C   UNL     1      46.604   2.642   7.511  0.00  0.00    +0.000 A 
ATOM     20  C   UNL     1      46.015   1.768   8.409  0.00  0.00    +0.000 A 
ATOM     21  N   UNL     1      45.147   2.181   9.368  0.00  0.00    +0.000 NA
ATOM     22  C   UNL     1      44.869   3.505   9.426  0.00  0.00    +0.000 A 
ATOM     23  C   UNL     1      45.495   4.373   8.535  0.00  0.00    +0.000 A 
ATOM     24  N   UNL     1      46.364   3.972   7.561  0.00  0.00    +0.000 NA
BRANCH  19  26
ATOM     25  N   UNL     1      48.213   1.763   5.676  0.00  0.00    +0.000 NA
ATOM     26  C   UNL     1      47.471   2.157   6.477  0.00  0.00    +0.000 C 
ENDBRANCH  19  26
ENDBRANCH  17  22
ENDBRANCH   1  17
TORSDOF 5
ENDMDL
MODEL 2
REMARK VINA RESULT:    -7.930      2.024      3.790
REMARK INTER + INTRA:         -11.176
REMARK INTER:                 -11.119
REMARK INTRA:                  -0.056
REMARK UNBOUND:                -0.927
REMARK  Name = 
REMARK  5 active torsions:
REMARK  status: ('A' for Active; 'I' for Inactive)
REMARK    1  A    between atoms: C_2  and  C_3
REMARK    2  A    between atoms: C_6  and  N_7
REMARK    3  A    between atoms: N_7  and  C_8
REMARK    4  A    between atoms: C_8  and  C_9
REMARK    5  A    between atoms: C_13  and  C_14
REMARK                            x       y       z     vdW  Elec       q    Type
REMARK                         _______ _______ _______ _____ _____    ______ ____
ROOT
ATOM      1  C   UNL     1      44.062   4.836  11.542  0.00  0.00    +0.000 C 
ATOM      2  C   UNL     1      43.389   3.718  12.338  0.00  0.00    +0.000 C 
ATOM      3  C   UNL     1      42.874   5.111  12.446  0.00  0.00    +0.000 C 
ENDROOT
BRANCH   1   4
ATOM      4  C   UNL     1      45.422   5.308  12.057  0.00  0.00    +0.000 A 
ATOM      5  C   UNL     1      46.161   6.284  11.379  0.00  0.00    +0.000 A 
ATOM      6  C   UNL     1      47.297   6.849  11.957  0.00  0.00    +0.000 A 
ATOM      7  C   UNL     1      47.744   6.412  13.208  0.00  0.00    +0.000 A 
ATOM      8  C   UNL     1      47.093   5.374  13.891  0.00  0.00    +0.000 A 
ATOM      9  C   UNL     1      45.935   4.845  13.286  0.00  0.00    +0.000 A 
BRANCH   8  10
ATOM     10  C   UNL     1      47.577   4.848  15.191  0.00  0.00    +0.000 A 
ATOM     11  C   UNL     1      47.394   3.490  15.525  0.00  0.00    +0.000 A 
ATOM     12  C   UNL     1      47.823   2.967  16.749  0.00  0.00    +0.000 A 
ATOM     13  C   UNL     1      48.464   3.787  17.671  0.00  0.00    +0.000 A 
ATOM     14  C   UNL     1      48.671   5.128  17.366  0.00  0.00    +0.000 A 
ATOM     15  C   UNL     1      48.227   5.647  16.147  0.00  0.00    +0.000 A 
ATOM     16  F   UNL     1      48.431   6.954  15.923  0.00  0.00    +0.000 F 
ENDBRANCH   8  10
ENDBRANCH   1   4
BRANCH   1  17
ATOM     17  N   UNL     1      43.999   4.677  10.091  0.00  0.00    +0.000 N 
ATOM     18  H   UNL     1      43.129   4.895   9.613  0.00  0.00    +0.000 HD
BRANCH  17  22
ATOM     19  C   UNL     1      46.576   2.622   7.639  0.00  0.00    +0.000 A 
ATOM     20  C   UNL     1      46.375   3.987   7.544  0.00  0.00    +0.000 A 
ATOM     21  N   UNL     1      45.498   4.654   8.338  0.00  0.00    +0.000 NA
ATOM     22  C   UNL     1      44.805   3.925   9.246  0.00  0.00    +0.000 A 
ATOM     23  C   UNL     1      44.998   2.548   9.306  0.00  0.00    +0.000 A 
ATOM     24  N   UNL     1      45.881   1.865   8.520  0.00  0.00    +0.000 NA
BRANCH  19  26
ATOM     25  N   UNL     1      48.336   1.470   6.119  0.00  0.00    +0.000 NA
ATOM     26  C   UNL     1      47.555   1.965   6.821  0.00  0.00    +0.000 C 
ENDBRANCH  19  26
ENDBRANCH  17  22
ENDBRANCH   1  17
TORSDOF 5
ENDMDL
MODEL 3
REMARK VINA RESULT:    -7.557      3.602      7.054
REMARK INTER + INTRA:         -10.693
REMARK INTER:                  -9.821
REMARK INTRA:                  -0.873
REMARK UNBOUND:                -0.927
REMARK  Name = 
REMARK  5 active torsions:
REMARK  status: ('A' for Active; 'I' for Inactive)
REMARK    1  A    between atoms: C_2  and  C_3
REMARK    2  A    between atoms: C_6  and  N_7
REMARK    3  A    between atoms: N_7  and  C_8
REMARK    4  A    between atoms: C_8  and  C_9
REMARK    5  A    between atoms: C_13  and  C_14
REMARK                            x       y       z     vdW  Elec       q    Type
REMARK                         _______ _______ _______ _____ _____    ______ ____
ROOT
ATOM      1  C   UNL     1      46.099   7.231  12.372  0.00  0.00    +0.000 C 
ATOM      2  C   UNL     1      46.247   8.599  11.704  0.00  0.00    +0.000 C 
ATOM      3  C   UNL     1      45.362   8.452  12.892  0.00  0.00    +0.000 C 
ENDROOT
BRANCH   1   4
ATOM      4  C   UNL     1      45.252   6.202  11.624  0.00  0.00    +0.000 A 
ATOM      5  C   UNL     1      43.875   6.089  11.847  0.00  0.00    +0.000 A 
ATOM      6  C   UNL     1      43.081   5.292  11.024  0.00  0.00    +0.000 A 
ATOM      7  C   UNL     1      43.660   4.554   9.987  0.00  0.00    +0.000 A 
ATOM      8  C   UNL     1      45.046   4.560   9.774  0.00  0.00    +0.000 A 
ATOM      9  C   UNL     1      45.812   5.395  10.612  0.00  0.00    +0.000 A 
BRANCH   8  10
ATOM     10  C   UNL     1      45.696   3.741   8.722  0.00  0.00    +0.000 A 
ATOM     11  C   UNL     1      46.404   4.359   7.670  0.00  0.00    +0.000 A 
ATOM     12  C   UNL     1      47.012   3.617   6.653  0.00  0.00    +0.000 A 
ATOM     13  C   UNL     1      46.945   2.228   6.668  0.00  0.00    +0.000 A 
ATOM     14  C   UNL     1      46.265   1.587   7.699  0.00  0.00    +0.000 A 
ATOM     15  C   UNL     1      45.646   2.337   8.703  0.00  0.00    +0.000 A 
ATOM     16  F   UNL     1      44.983   1.662   9.655  0.00  0.00    +0.000 F 
ENDBRANCH   8  10
ENDBRANCH   1   4
BRANCH   1  17
ATOM     17  N   UNL     1      47.334   6.689  12.934  0.00  0.00    +0.000 N 
ATOM     18  H   UNL     1      48.159   6.637  12.343  0.00  0.00    +0.000 HD
BRANCH  17  22
ATOM     19  C   UNL     1      47.872   4.501  16.369  0.00  0.00    +0.000 A 
ATOM     20  C   UNL     1      48.615   5.630  16.072  0.00  0.00    +0.000 A 
ATOM     21  N   UNL     1      48.452   6.330  14.920  0.00  0.00    +0.000 NA
ATOM     22  C   UNL     1      47.521   5.877  14.045  0.00  0.00    +0.000 A 
ATOM     23  C   UNL     1      46.806   4.722  14.347  0.00  0.00    +0.000 A 
ATOM     24  N   UNL     1      46.953   4.013  15.504  0.00  0.00    +0.000 NA
BRANCH  19  26
ATOM     25  N   UNL     1      48.220   3.285  18.635  0.00  0.00    +0.000 NA
ATOM     26  C   UNL     1      48.035   3.825  17.624  0.00  0.00    +0.000 C 
ENDBRANCH  19  26
ENDBRANCH  17  22
ENDBRANCH   1  17
TORSDOF 5
ENDMDL
MODEL 4
REMARK VINA RESULT:    -7.253      1.611      2.503
REMARK INTER + INTRA:         -10.299
REMARK INTER:                 -10.093
REMARK INTRA:                  -0.207
REMARK UNBOUND:                -0.927
REMARK  Name = 
REMARK  5 active torsions:
REMARK  status: ('A' for Active; 'I' for Inactive)
REMARK    1  A    between atoms: C_2  and  C_3
REMARK    2  A    between atoms: C_6  and  N_7
REMARK    3  A    between atoms: N_7  and  C_8
REMARK    4  A    between atoms: C_8  and  C_9
REMARK    5  A    between atoms: C_13  and  C_14
REMARK                            x       y       z     vdW  Elec       q    Type
REMARK                         _______ _______ _______ _____ _____    ______ ____
ROOT
ATOM      1  C   UNL     1      44.433   4.542  11.562  0.00  0.00    +0.000 C 
ATOM      2  C   UNL     1      45.077   3.452  12.421  0.00  0.00    +0.000 C 
ATOM      3  C   UNL     1      43.756   4.014  12.815  0.00  0.00    +0.000 C 
ENDROOT
BRANCH   1   4
ATOM      4  C   UNL     1      45.048   5.937  11.668  0.00  0.00    +0.000 A 
ATOM      5  C   UNL     1      44.336   7.080  11.288  0.00  0.00    +0.000 A 
ATOM      6  C   UNL     1      44.825   8.354  11.572  0.00  0.00    +0.000 A 
ATOM      7  C   UNL     1      46.063   8.509  12.203  0.00  0.00    +0.000 A 
ATOM      8  C   UNL     1      46.860   7.401  12.525  0.00  0.00    +0.000 A 
ATOM      9  C   UNL     1      46.321   6.129  12.243  0.00  0.00    +0.000 A 
BRANCH   8  10
ATOM     10  C   UNL     1      48.203   7.535  13.140  0.00  0.00    +0.000 A 
ATOM     11  C   UNL     1      48.430   7.109  14.465  0.00  0.00    +0.000 A 
ATOM     12  C   UNL     1      49.679   7.238  15.079  0.00  0.00    +0.000 A 
ATOM     13  C   UNL     1      50.748   7.783  14.376  0.00  0.00    +0.000 A 
ATOM     14  C   UNL     1      50.561   8.203  13.063  0.00  0.00    +0.000 A 
ATOM     15  C   UNL     1      49.305   8.084  12.461  0.00  0.00    +0.000 A 
ATOM     16  F   UNL     1      49.181   8.531  11.202  0.00  0.00    +0.000 F 
ENDBRANCH   8  10
ENDBRANCH   1   4
BRANCH   1  17
ATOM     17  N   UNL     1      44.114   4.134  10.196  0.00  0.00    +0.000 N 
ATOM     18  H   UNL     1      43.140   4.000   9.941  0.00  0.00    +0.000 HD
BRANCH  17  22
ATOM     19  C   UNL     1      46.687   2.521   7.429  0.00  0.00    +0.000 A 
ATOM     20  C   UNL     1      46.409   3.874   7.499  0.00  0.00    +0.000 A 
ATOM     21  N   UNL     1      45.534   4.395   8.397  0.00  0.00    +0.000 NA
ATOM     22  C   UNL     1      44.921   3.530   9.240  0.00  0.00    +0.000 A 
ATOM     23  C   UNL     1      45.190   2.169   9.135  0.00  0.00    +0.000 A 
ATOM     24  N   UNL     1      46.072   1.631   8.243  0.00  0.00    +0.000 NA
BRANCH  19  26
ATOM     25  N   UNL     1      48.443   1.656   5.726  0.00  0.00    +0.000 NA
ATOM     26  C   UNL     1      47.662   2.018   6.505  0.00  0.00    +0.000 C 
ENDBRANCH  19  26
ENDBRANCH  17  22
ENDBRANCH   1  17
TORSDOF 5
ENDMDL
MODEL 5
REMARK VINA RESULT:    -6.727      4.247      7.811
REMARK INTER + INTRA:          -9.621
REMARK INTER:                  -8.648
REMARK INTRA:                  -0.973
REMARK UNBOUND:                -0.927
REMARK  Name = 
REMARK  5 active torsions:
REMARK  status: ('A' for Active; 'I' for Inactive)
REMARK    1  A    between atoms: C_2  and  C_3
REMARK    2  A    between atoms: C_6  and  N_7
REMARK    3  A    between atoms: N_7  and  C_8
REMARK    4  A    between atoms: C_8  and  C_9
REMARK    5  A    between atoms: C_13  and  C_14
REMARK                            x       y       z     vdW  Elec       q    Type
REMARK                         _______ _______ _______ _____ _____    ______ ____
ROOT
ATOM      1  C   UNL     1      49.036   7.892  12.810  0.00  0.00    +0.000 C 
ATOM      2  C   UNL     1      49.956   8.026  11.596  0.00  0.00    +0.000 C 
ATOM      3  C   UNL     1      49.615   9.233  12.397  0.00  0.00    +0.000 C 
ENDROOT
BRANCH   1   4
ATOM      4  C   UNL     1      47.552   7.681  12.513  0.00  0.00    +0.000 A 
ATOM      5  C   UNL     1      46.592   8.632  12.877  0.00  0.00    +0.000 A 
ATOM      6  C   UNL     1      45.276   8.526  12.429  0.00  0.00    +0.000 A 
ATOM      7  C   UNL     1      44.884   7.438  11.643  0.00  0.00    +0.000 A 
ATOM      8  C   UNL     1      45.783   6.410  11.323  0.00  0.00    +0.000 A 
ATOM      9  C   UNL     1      47.109   6.564  11.775  0.00  0.00    +0.000 A 
BRANCH   8  10
ATOM     10  C   UNL     1      45.382   5.214  10.543  0.00  0.00    +0.000 A 
ATOM     11  C   UNL     1      45.702   5.113   9.173  0.00  0.00    +0.000 A 
ATOM     12  C   UNL     1      45.324   4.007   8.405  0.00  0.00    +0.000 A 
ATOM     13  C   UNL     1      44.626   2.957   8.993  0.00  0.00    +0.000 A 
ATOM     14  C   UNL     1      44.306   3.020  10.345  0.00  0.00    +0.000 A 
ATOM     15  C   UNL     1      44.674   4.136  11.102  0.00  0.00    +0.000 A 
ATOM     16  F   UNL     1      44.313   4.150  12.394  0.00  0.00    +0.000 F 
ENDBRANCH   8  10
ENDBRANCH   1   4
BRANCH   1  17
ATOM     17  N   UNL     1      49.555   7.042  13.879  0.00  0.00    +0.000 N 
ATOM     18  H   UNL     1      50.155   6.261  13.634  0.00  0.00    +0.000 HD
BRANCH  17  22
ATOM     19  C   UNL     1      48.345   6.323  17.739  0.00  0.00    +0.000 A 
ATOM     20  C   UNL     1      48.336   5.351  16.754  0.00  0.00    +0.000 A 
ATOM     21  N   UNL     1      48.708   5.605  15.473  0.00  0.00    +0.000 NA
ATOM     22  C   UNL     1      49.094   6.870  15.178  0.00  0.00    +0.000 A 
ATOM     23  C   UNL     1      49.067   7.841  16.175  0.00  0.00    +0.000 A 
ATOM     24  N   UNL     1      48.702   7.599  17.468  0.00  0.00    +0.000 NA
BRANCH  19  26
ATOM     25  N   UNL     1      47.715   5.788  20.199  0.00  0.00    +0.000 NA
ATOM     26  C   UNL     1      47.999   5.998  19.093  0.00  0.00    +0.000 C 
ENDBRANCH  19  26
ENDBRANCH  17  22
ENDBRANCH   1  17
TORSDOF 5
ENDMDL
MODEL 6
REMARK VINA RESULT:    -6.370      5.754      8.274
REMARK INTER + INTRA:          -9.159
REMARK INTER:                  -8.563
REMARK INTRA:                  -0.596
REMARK UNBOUND:                -0.927
REMARK  Name = 
REMARK  5 active torsions:
REMARK  status: ('A' for Active; 'I' for Inactive)
REMARK    1  A    between atoms: C_2  and  C_3
REMARK    2  A    between atoms: C_6  and  N_7
REMARK    3  A    between atoms: N_7  and  C_8
REMARK    4  A    between atoms: C_8  and  C_9
REMARK    5  A    between atoms: C_13  and  C_14
REMARK                            x       y       z     vdW  Elec       q    Type
REMARK                         _______ _______ _______ _____ _____    ______ ____
ROOT
ATOM      1  C   UNL     1      48.197   4.519  16.978  0.00  0.00    +0.000 C 
ATOM      2  C   UNL     1      47.216   4.750  18.129  0.00  0.00    +0.000 C 
ATOM      3  C   UNL     1      47.175   3.468  17.373  0.00  0.00    +0.000 C 
ENDROOT
BRANCH   1   4
ATOM      4  C   UNL     1      47.912   5.281  15.684  0.00  0.00    +0.000 A 
ATOM      5  C   UNL     1      48.726   6.339  15.265  0.00  0.00    +0.000 A 
ATOM      6  C   UNL     1      48.579   6.894  13.995  0.00  0.00    +0.000 A 
ATOM      7  C   UNL     1      47.580   6.430  13.134  0.00  0.00    +0.000 A 
ATOM      8  C   UNL     1      46.679   5.433  13.536  0.00  0.00    +0.000 A 
ATOM      9  C   UNL     1      46.874   4.881  14.818  0.00  0.00    +0.000 A 
BRANCH   8  10
ATOM     10  C   UNL     1      45.571   4.962  12.668  0.00  0.00    +0.000 A 
ATOM     11  C   UNL     1      44.673   5.883  12.092  0.00  0.00    +0.000 A 
ATOM     12  C   UNL     1      43.608   5.471  11.284  0.00  0.00    +0.000 A 
ATOM     13  C   UNL     1      43.421   4.119  11.015  0.00  0.00    +0.000 A 
ATOM     14  C   UNL     1      44.298   3.186  11.559  0.00  0.00    +0.000 A 
ATOM     15  C   UNL     1      45.350   3.605  12.377  0.00  0.00    +0.000 A 
ATOM     16  F   UNL     1      46.145   2.655  12.894  0.00  0.00    +0.000 F 
ENDBRANCH   8  10
ENDBRANCH   1   4
BRANCH   1  17
ATOM     17  N   UNL     1      49.605   4.514  17.368  0.00  0.00    +0.000 N 
ATOM     18  H   UNL     1      50.115   5.393  17.369  0.00  0.00    +0.000 HD
BRANCH  17  22
ATOM     19  C   UNL     1      52.339   1.467  17.712  0.00  0.00    +0.000 A 
ATOM     20  C   UNL     1      52.616   2.772  18.080  0.00  0.00    +0.000 A 
ATOM     21  N   UNL     1      51.717   3.779  17.934  0.00  0.00    +0.000 NA
ATOM     22  C   UNL     1      50.513   3.464  17.401  0.00  0.00    +0.000 A 
ATOM     23  C   UNL     1      50.263   2.152  17.008  0.00  0.00    +0.000 A 
ATOM     24  N   UNL     1      51.154   1.128  17.155  0.00  0.00    +0.000 NA
BRANCH  19  26
ATOM     25  N   UNL     1      54.039  -0.443  18.157  0.00  0.00    +0.000 NA
ATOM     26  C   UNL     1      53.297   0.423  17.937  0.00  0.00    +0.000 C 
ENDBRANCH  19  26
ENDBRANCH  17  22
ENDBRANCH   1  17
TORSDOF 5
ENDMDL
MODEL 7
REMARK VINA RESULT:    -6.361      3.355      5.994
REMARK INTER + INTRA:          -9.148
REMARK INTER:                  -8.302
REMARK INTRA:                  -0.846
REMARK UNBOUND:                -0.927
REMARK  Name = 
REMARK  5 active torsions:
REMARK  status: ('A' for Active; 'I' for Inactive)
REMARK    1  A    between atoms: C_2  and  C_3
REMARK    2  A    between atoms: C_6  and  N_7
REMARK    3  A    between atoms: N_7  and  C_8
REMARK    4  A    between atoms: C_8  and  C_9
REMARK    5  A    between atoms: C_13  and  C_14
REMARK                            x       y       z     vdW  Elec       q    Type
REMARK                         _______ _______ _______ _____ _____    ______ ____
ROOT
ATOM      1  C   UNL     1      47.976   8.066  12.543  0.00  0.00    +0.000 C 
ATOM      2  C   UNL     1      48.569   9.239  11.759  0.00  0.00    +0.000 C 
ATOM      3  C   UNL     1      49.124   7.871  11.569  0.00  0.00    +0.000 C 
ENDROOT
BRANCH   1   4
ATOM      4  C   UNL     1      48.335   7.996  14.027  0.00  0.00    +0.000 A 
ATOM      5  C   UNL     1      48.323   9.137  14.836  0.00  0.00    +0.000 A 
ATOM      6  C   UNL     1      48.456   9.033  16.220  0.00  0.00    +0.000 A 
ATOM      7  C   UNL     1      48.651   7.784  16.818  0.00  0.00    +0.000 A 
ATOM      8  C   UNL     1      48.761   6.618  16.047  0.00  0.00    +0.000 A 
ATOM      9  C   UNL     1      48.599   6.760  14.654  0.00  0.00    +0.000 A 
BRANCH   8  10
ATOM     10  C   UNL     1      49.028   5.287  16.646  0.00  0.00    +0.000 A 
ATOM     11  C   UNL     1      50.267   5.016  17.262  0.00  0.00    +0.000 A 
ATOM     12  C   UNL     1      50.557   3.767  17.821  0.00  0.00    +0.000 A 
ATOM     13  C   UNL     1      49.604   2.754  17.794  0.00  0.00    +0.000 A 
ATOM     14  C   UNL     1      48.367   2.994  17.204  0.00  0.00    +0.000 A 
ATOM     15  C   UNL     1      48.091   4.240  16.636  0.00  0.00    +0.000 A 
ATOM     16  F   UNL     1      46.890   4.401  16.059  0.00  0.00    +0.000 F 
ENDBRANCH   8  10
ENDBRANCH   1   4
BRANCH   1  17
ATOM     17  N   UNL     1      46.571   7.789  12.257  0.00  0.00    +0.000 N 
ATOM     18  H   UNL     1      45.877   8.496  12.483  0.00  0.00    +0.000 HD
BRANCH  17  22
ATOM     19  C   UNL     1      44.479   4.282  11.807  0.00  0.00    +0.000 A 
ATOM     20  C   UNL     1      44.709   4.868  13.039  0.00  0.00    +0.000 A 
ATOM     21  N   UNL     1      45.428   6.011  13.182  0.00  0.00    +0.000 NA
ATOM     22  C   UNL     1      45.930   6.573  12.056  0.00  0.00    +0.000 A 
ATOM     23  C   UNL     1      45.715   5.952  10.829  0.00  0.00    +0.000 A 
ATOM     24  N   UNL     1      44.989   4.807  10.669  0.00  0.00    +0.000 NA
BRANCH  19  26
ATOM     25  N   UNL     1      43.012   2.157  11.549  0.00  0.00    +0.000 NA
ATOM     26  C   UNL     1      43.665   3.106  11.694  0.00  0.00    +0.000 C 
ENDBRANCH  19  26
ENDBRANCH  17  22
ENDBRANCH   1  17
TORSDOF 5
ENDMDL
MODEL 8
REMARK VINA RESULT:    -6.309      3.961      7.329
REMARK INTER + INTRA:          -9.080
REMARK INTER:                  -8.421
REMARK INTRA:                  -0.659
REMARK UNBOUND:                -0.927
REMARK  Name = 
REMARK  5 active torsions:
REMARK  status: ('A' for Active; 'I' for Inactive)
REMARK    1  A    between atoms: C_2  and  C_3
REMARK    2  A    between atoms: C_6  and  N_7
REMARK    3  A    between atoms: N_7  and  C_8
REMARK    4  A    between atoms: C_8  and  C_9
REMARK    5  A    between atoms: C_13  and  C_14
REMARK                            x       y       z     vdW  Elec       q    Type
REMARK                         _______ _______ _______ _____ _____    ______ ____
ROOT
ATOM      1  C   UNL     1      46.300   7.103  12.253  0.00  0.00    +0.000 C 
ATOM      2  C   UNL     1      46.262   8.534  11.714  0.00  0.00    +0.000 C 
ATOM      3  C   UNL     1      45.618   8.222  13.020  0.00  0.00    +0.000 C 
ENDROOT
BRANCH   1   4
ATOM      4  C   UNL     1      45.375   6.098  11.566  0.00  0.00    +0.000 A 
ATOM      5  C   UNL     1      43.989   6.138  11.749  0.00  0.00    +0.000 A 
ATOM      6  C   UNL     1      43.142   5.351  10.969  0.00  0.00    +0.000 A 
ATOM      7  C   UNL     1      43.672   4.472  10.021  0.00  0.00    +0.000 A 
ATOM      8  C   UNL     1      45.058   4.325   9.858  0.00  0.00    +0.000 A 
ATOM      9  C   UNL     1      45.880   5.154  10.648  0.00  0.00    +0.000 A 
BRANCH   8  10
ATOM     10  C   UNL     1      45.652   3.357   8.904  0.00  0.00    +0.000 A 
ATOM     11  C   UNL     1      45.411   1.974   9.045  0.00  0.00    +0.000 A 
ATOM     12  C   UNL     1      45.971   1.035   8.173  0.00  0.00    +0.000 A 
ATOM     13  C   UNL     1      46.776   1.454   7.120  0.00  0.00    +0.000 A 
ATOM     14  C   UNL     1      47.022   2.813   6.946  0.00  0.00    +0.000 A 
ATOM     15  C   UNL     1      46.472   3.744   7.830  0.00  0.00    +0.000 A 
ATOM     16  F   UNL     1      46.768   5.037   7.626  0.00  0.00    +0.000 F 
ENDBRANCH   8  10
ENDBRANCH   1   4
BRANCH   1  17
ATOM     17  N   UNL     1      47.640   6.589  12.525  0.00  0.00    +0.000 N 
ATOM     18  H   UNL     1      47.950   5.752  12.041  0.00  0.00    +0.000 HD
BRANCH  17  22
ATOM     19  C   UNL     1      50.123   7.011  15.771  0.00  0.00    +0.000 A 
ATOM     20  C   UNL     1      48.986   6.224  15.791  0.00  0.00    +0.000 A 
ATOM     21  N   UNL     1      48.153   6.114  14.724  0.00  0.00    +0.000 NA
ATOM     22  C   UNL     1      48.474   6.819  13.612  0.00  0.00    +0.000 A 
ATOM     23  C   UNL     1      49.605   7.630  13.621  0.00  0.00    +0.000 A 
ATOM     24  N   UNL     1      50.454   7.745  14.683  0.00  0.00    +0.000 NA
BRANCH  19  26
ATOM     25  N   UNL     1      51.684   7.118  17.841  0.00  0.00    +0.000 NA
ATOM     26  C   UNL     1      51.006   7.053  16.900  0.00  0.00    +0.000 C 
ENDBRANCH  19  26
ENDBRANCH  17  22
ENDBRANCH   1  17
TORSDOF 5
ENDMDL
MODEL 9
REMARK VINA RESULT:    -5.889      4.043      6.336
REMARK INTER + INTRA:          -8.537
REMARK INTER:                  -7.565
REMARK INTRA:                  -0.972
REMARK UNBOUND:                -0.927
REMARK  Name = 
REMARK  5 active torsions:
REMARK  status: ('A' for Active; 'I' for Inactive)
REMARK    1  A    between atoms: C_2  and  C_3
REMARK    2  A    between atoms: C_6  and  N_7
REMARK    3  A    between atoms: N_7  and  C_8
REMARK    4  A    between atoms: C_8  and  C_9
REMARK    5  A    between atoms: C_13  and  C_14
REMARK                            x       y       z     vdW  Elec       q    Type
REMARK                         _______ _______ _______ _____ _____    ______ ____
ROOT
ATOM      1  C   UNL     1      47.935   7.882  13.076  0.00  0.00    +0.000 C 
ATOM      2  C   UNL     1      48.535   8.877  12.080  0.00  0.00    +0.000 C 
ATOM      3  C   UNL     1      48.937   7.444  12.022  0.00  0.00    +0.000 C 
ENDROOT
BRANCH   1   4
ATOM      4  C   UNL     1      48.460   7.962  14.509  0.00  0.00    +0.000 A 
ATOM      5  C   UNL     1      48.101   9.011  15.362  0.00  0.00    +0.000 A 
ATOM      6  C   UNL     1      48.420   8.972  16.718  0.00  0.00    +0.000 A 
ATOM      7  C   UNL     1      49.148   7.899  17.240  0.00  0.00    +0.000 A 
ATOM      8  C   UNL     1      49.612   6.864  16.415  0.00  0.00    +0.000 A 
ATOM      9  C   UNL     1      49.250   6.927  15.054  0.00  0.00    +0.000 A 
BRANCH   8  10
ATOM     10  C   UNL     1      50.438   5.743  16.927  0.00  0.00    +0.000 A 
ATOM     11  C   UNL     1      49.830   4.547  17.362  0.00  0.00    +0.000 A 
ATOM     12  C   UNL     1      50.579   3.480  17.867  0.00  0.00    +0.000 A 
ATOM     13  C   UNL     1      51.965   3.571  17.935  0.00  0.00    +0.000 A 
ATOM     14  C   UNL     1      52.596   4.733  17.502  0.00  0.00    +0.000 A 
ATOM     15  C   UNL     1      51.840   5.802  17.013  0.00  0.00    +0.000 A 
ATOM     16  F   UNL     1      52.504   6.905  16.636  0.00  0.00    +0.000 F 
ENDBRANCH   8  10
ENDBRANCH   1   4
BRANCH   1  17
ATOM     17  N   UNL     1      46.487   7.721  12.981  0.00  0.00    +0.000 N 
ATOM     18  H   UNL     1      45.888   8.465  13.328  0.00  0.00    +0.000 HD
BRANCH  17  22
ATOM     19  C   UNL     1      44.290   4.322  12.273  0.00  0.00    +0.000 A 
ATOM     20  C   UNL     1      44.069   5.513  11.606  0.00  0.00    +0.000 A 
ATOM     21  N   UNL     1      44.779   6.641  11.867  0.00  0.00    +0.000 NA
ATOM     22  C   UNL     1      45.731   6.566  12.829  0.00  0.00    +0.000 A 
ATOM     23  C   UNL     1      45.918   5.367  13.511  0.00  0.00    +0.000 A 
ATOM     24  N   UNL     1      45.217   4.224  13.254  0.00  0.00    +0.000 NA
BRANCH  19  26
ATOM     25  N   UNL     1      43.000   2.172  11.605  0.00  0.00    +0.000 NA
ATOM     26  C   UNL     1      43.557   3.139  11.925  0.00  0.00    +0.000 C 
ENDBRANCH  19  26
ENDBRANCH  17  22
ENDBRANCH   1  17
TORSDOF 5
ENDMDL
