MODEL 1
REMARK VINA RESULT:    -8.251      0.000      0.000
REMARK INTER + INTRA:         -12.260
REMARK INTER:                 -11.145
REMARK INTRA:                  -1.115
REMARK UNBOUND:                -1.115
REMARK  Name = 
REMARK  6 active torsions:
REMARK  status: ('A' for Active; 'I' for Inactive)
REMARK    1  A    between atoms: C_2  and  C_25
REMARK    2  A    between atoms: N_3  and  C_4
REMARK    3  A    between atoms: C_4  and  C_5
REMARK    4  A    between atoms: C_8  and  C_9
REMARK    5  A    between atoms: C_9  and  N_10
REMARK    6  A    between atoms: C_11  and  C_13
REMARK                            x       y       z     vdW  Elec       q    Type
REMARK                         _______ _______ _______ _____ _____    ______ ____
ROOT
ATOM      1  C   UNL     1      44.979   5.538  10.657  0.00  0.00    +0.000 A 
ATOM      2  C   UNL     1      44.317   6.006  11.802  0.00  0.00    +0.000 A 
ATOM      3  C   UNL     1      44.973   6.840  12.716  0.00  0.00    +0.000 A 
ATOM      4  C   UNL     1      46.297   7.242  12.496  0.00  0.00    +0.000 A 
ATOM      5  C   UNL     1      46.958   6.773  11.352  0.00  0.00    +0.000 A 
ATOM      6  C   UNL     1      46.302   5.941  10.437  0.00  0.00    +0.000 A 
ENDROOT
BRANCH   1   7
ATOM      7  C   UNL     1      44.284   4.599   9.704  0.00  0.00    +0.000 C 
BRANCH   7  10
ATOM      8  O   UNL     1      45.407   2.084   9.447  0.00  0.00    +0.000 OA
ATOM      9  C   UNL     1      45.629   2.907   8.562  0.00  0.00    +0.000 C 
ATOM     10  N   UNL     1      45.130   4.190   8.608  0.00  0.00    +0.000 N 
ATOM     11  H   UNL     1      45.189   4.780   7.791  0.00  0.00    +0.000 HD
BRANCH   9  12
ATOM     12  C   UNL     1      46.415   2.586   7.402  0.00  0.00    +0.000 A 
ATOM     13  C   UNL     1      46.549   3.167   6.155  0.00  0.00    +0.000 A 
ATOM     14  C   UNL     1      47.499   2.377   5.479  0.00  0.00    +0.000 A 
ATOM     15  N   UNL     1      47.940   1.364   6.227  0.00  0.00    +0.000 NA
ATOM     16  N   UNL     1      47.280   1.522   7.388  0.00  0.00    +0.000 N 
ATOM     17  H   UNL     1      47.454   0.870   8.151  0.00  0.00    +0.000 HD
ENDBRANCH   9  12
ENDBRANCH   7  10
ENDBRANCH   1   7
BRANCH   4  18
ATOM     18  C   UNL     1      47.009   8.143  13.474  0.00  0.00    +0.000 C 
BRANCH  18  19
ATOM     19  N   UNL     1      47.448   7.430  14.646  0.00  0.00    +0.000 N 
ATOM     20  C   UNL     1      48.699   6.866  14.698  0.00  0.00    +0.000 C 
ATOM     21  O   UNL     1      49.500   6.980  13.773  0.00  0.00    +0.000 OA
ATOM     22  H   UNL     1      46.735   7.128  15.305  0.00  0.00    +0.000 HD
BRANCH  20  23
ATOM     23  C   UNL     1      49.064   6.171  15.940  0.00  0.00    +0.000 A 
ATOM     24  C   UNL     1      50.155   6.609  16.679  0.00  0.00    +0.000 A 
ATOM     25  S   UNL     1      50.409   5.727  18.116  0.00  0.00    +0.000 S 
ATOM     26  C   UNL     1      49.105   4.692  17.774  0.00  0.00    +0.000 A 
ATOM     27  N   UNL     1      48.786   3.668  18.613  0.00  0.00    +0.000 NA
ATOM     28  C   UNL     1      47.796   2.941  18.215  0.00  0.00    +0.000 A 
ATOM     29  N   UNL     1      47.091   3.149  17.057  0.00  0.00    +0.000 N 
ATOM     30  C   UNL     1      47.356   4.187  16.197  0.00  0.00    +0.000 A 
ATOM     31  O   UNL     1      46.677   4.373  15.191  0.00  0.00    +0.000 OA
ATOM     32  C   UNL     1      48.470   5.027  16.590  0.00  0.00    +0.000 A 
ATOM     33  H   UNL     1      46.321   2.547  16.807  0.00  0.00    +0.000 HD
ENDBRANCH  20  23
ENDBRANCH  18  19
ENDBRANCH   4  18
TORSDOF 6
ENDMDL
MODEL 2
REMARK VINA RESULT:    -7.841      1.186      1.248
REMARK INTER + INTRA:         -11.707
REMARK INTER:                 -10.979
REMARK INTRA:                  -0.728
REMARK UNBOUND:                -1.115
REMARK  Name = 
REMARK  6 active torsions:
REMARK  status: ('A' for Active; 'I' for Inactive)
REMARK    1  A    between atoms: C_2  and  C_25
REMARK    2  A    between atoms: N_3  and  C_4
REMARK    3  A    between atoms: C_4  and  C_5
REMARK    4  A    between atoms: C_8  and  C_9
REMARK    5  A    between atoms: C_9  and  N_10
REMARK    6  A    between atoms: C_11  and  C_13
REMARK                            x       y       z     vdW  Elec       q    Type
REMARK                         _______ _______ _______ _____ _____    ______ ____
ROOT
ATOM      1  C   UNL     1      44.679   5.412  11.303  0.00  0.00    +0.000 A 
ATOM      2  C   UNL     1      44.388   6.782  11.369  0.00  0.00    +0.000 A 
ATOM      3  C   UNL     1      45.211   7.655  12.092  0.00  0.00    +0.000 A 
ATOM      4  C   UNL     1      46.356   7.180  12.746  0.00  0.00    +0.000 A 
ATOM      5  C   UNL     1      46.646   5.811  12.680  0.00  0.00    +0.000 A 
ATOM      6  C   UNL     1      45.824   4.939  11.957  0.00  0.00    +0.000 A 
ENDROOT
BRANCH   1   7
ATOM      7  C   UNL     1      43.760   4.470  10.568  0.00  0.00    +0.000 C 
BRANCH   7  10
ATOM      8  O   UNL     1      45.226   4.766   8.241  0.00  0.00    +0.000 OA
ATOM      9  C   UNL     1      45.185   3.652   8.758  0.00  0.00    +0.000 C 
ATOM     10  N   UNL     1      44.469   3.400   9.907  0.00  0.00    +0.000 N 
ATOM     11  H   UNL     1      44.594   2.525  10.394  0.00  0.00    +0.000 HD
BRANCH   9  12
ATOM     12  C   UNL     1      45.897   2.530   8.210  0.00  0.00    +0.000 A 
ATOM     13  C   UNL     1      46.888   2.409   7.255  0.00  0.00    +0.000 A 
ATOM     14  C   UNL     1      47.172   1.031   7.189  0.00  0.00    +0.000 A 
ATOM     15  N   UNL     1      46.422   0.318   8.031  0.00  0.00    +0.000 NA
ATOM     16  N   UNL     1      45.670   1.249   8.645  0.00  0.00    +0.000 N 
ATOM     17  H   UNL     1      45.008   0.959   9.362  0.00  0.00    +0.000 HD
ENDBRANCH   9  12
ENDBRANCH   7  10
ENDBRANCH   1   7
BRANCH   4  18
ATOM     18  C   UNL     1      47.250   8.115  13.523  0.00  0.00    +0.000 C 
BRANCH  18  19
ATOM     19  N   UNL     1      47.675   7.542  14.774  0.00  0.00    +0.000 N 
ATOM     20  C   UNL     1      48.935   7.015  14.915  0.00  0.00    +0.000 C 
ATOM     21  O   UNL     1      49.756   7.047  14.002  0.00  0.00    +0.000 OA
ATOM     22  H   UNL     1      46.951   7.296  15.445  0.00  0.00    +0.000 HD
BRANCH  20  23
ATOM     23  C   UNL     1      49.283   6.466  16.233  0.00  0.00    +0.000 A 
ATOM     24  C   UNL     1      50.241   7.102  17.012  0.00  0.00    +0.000 A 
ATOM     25  S   UNL     1      50.488   6.366  18.530  0.00  0.00    +0.000 S 
ATOM     26  C   UNL     1      49.364   5.140  18.179  0.00  0.00    +0.000 A 
ATOM     27  N   UNL     1      49.114   4.144  19.073  0.00  0.00    +0.000 NA
ATOM     28  C   UNL     1      48.265   3.261  18.663  0.00  0.00    +0.000 A 
ATOM     29  N   UNL     1      47.638   3.288  17.444  0.00  0.00    +0.000 N 
ATOM     30  C   UNL     1      47.835   4.289  16.524  0.00  0.00    +0.000 A 
ATOM     31  O   UNL     1      47.225   4.309  15.459  0.00  0.00    +0.000 OA
ATOM     32  C   UNL     1      48.792   5.300  16.928  0.00  0.00    +0.000 A 
ATOM     33  H   UNL     1      46.978   2.569  17.187  0.00  0.00    +0.000 HD
ENDBRANCH  20  23
ENDBRANCH  18  19
ENDBRANCH   4  18
TORSDOF 6
ENDMDL
MODEL 3
REMARK VINA RESULT:    -7.577      2.347      2.722
REMARK INTER + INTRA:         -11.349
REMARK INTER:                 -10.407
REMARK INTRA:                  -0.942
REMARK UNBOUND:                -1.115
REMARK  Name = 
REMARK  6 active torsions:
REMARK  status: ('A' for Active; 'I' for Inactive)
REMARK    1  A    between atoms: C_2  and  C_25
REMARK    2  A    between atoms: N_3  and  C_4
REMARK    3  A    between atoms: C_4  and  C_5
REMARK    4  A    between atoms: C_8  and  C_9
REMARK    5  A    between atoms: C_9  and  N_10
REMARK    6  A    between atoms: C_11  and  C_13
REMARK                            x       y       z     vdW  Elec       q    Type
REMARK                         _______ _______ _______ _____ _____    ______ ____
ROOT
ATOM      1  C   UNL     1      45.314   5.028  11.460  0.00  0.00    +0.000 A 
ATOM      2  C   UNL     1      45.638   4.520  12.727  0.00  0.00    +0.000 A 
ATOM      3  C   UNL     1      46.532   5.200  13.563  0.00  0.00    +0.000 A 
ATOM      4  C   UNL     1      47.105   6.414  13.161  0.00  0.00    +0.000 A 
ATOM      5  C   UNL     1      46.782   6.921  11.895  0.00  0.00    +0.000 A 
ATOM      6  C   UNL     1      45.887   6.242  11.059  0.00  0.00    +0.000 A 
ENDROOT
BRANCH   1   7
ATOM      7  C   UNL     1      44.392   4.265  10.544  0.00  0.00    +0.000 C 
BRANCH   7  10
ATOM      8  O   UNL     1      45.501   4.522   8.022  0.00  0.00    +0.000 OA
ATOM      9  C   UNL     1      45.598   3.434   8.586  0.00  0.00    +0.000 C 
ATOM     10  N   UNL     1      45.064   3.202   9.834  0.00  0.00    +0.000 N 
ATOM     11  H   UNL     1      45.307   2.359  10.334  0.00  0.00    +0.000 HD
BRANCH   9  12
ATOM     12  C   UNL     1      46.292   2.325   7.990  0.00  0.00    +0.000 A 
ATOM     13  C   UNL     1      46.094   0.958   8.014  0.00  0.00    +0.000 A 
ATOM     14  C   UNL     1      47.116   0.422   7.206  0.00  0.00    +0.000 A 
ATOM     15  N   UNL     1      47.912   1.367   6.703  0.00  0.00    +0.000 NA
ATOM     16  N   UNL     1      47.384   2.508   7.181  0.00  0.00    +0.000 N 
ATOM     17  H   UNL     1      47.809   3.397   6.925  0.00  0.00    +0.000 HD
ENDBRANCH   9  12
ENDBRANCH   7  10
ENDBRANCH   1   7
BRANCH   4  18
ATOM     18  C   UNL     1      48.065   7.155  14.059  0.00  0.00    +0.000 C 
BRANCH  18  19
ATOM     19  N   UNL     1      47.970   6.720  15.429  0.00  0.00    +0.000 N 
ATOM     20  C   UNL     1      49.098   6.429  16.155  0.00  0.00    +0.000 C 
ATOM     21  O   UNL     1      50.225   6.564  15.682  0.00  0.00    +0.000 OA
ATOM     22  H   UNL     1      47.066   6.381  15.750  0.00  0.00    +0.000 HD
BRANCH  20  23
ATOM     23  C   UNL     1      48.902   6.007  17.548  0.00  0.00    +0.000 A 
ATOM     24  C   UNL     1      49.214   4.707  17.924  0.00  0.00    +0.000 A 
ATOM     25  S   UNL     1      48.978   4.397  19.584  0.00  0.00    +0.000 S 
ATOM     26  C   UNL     1      48.397   5.972  19.850  0.00  0.00    +0.000 A 
ATOM     27  N   UNL     1      47.984   6.366  21.086  0.00  0.00    +0.000 NA
ATOM     28  C   UNL     1      47.535   7.576  21.137  0.00  0.00    +0.000 A 
ATOM     29  N   UNL     1      47.468   8.430  20.066  0.00  0.00    +0.000 N 
ATOM     30  C   UNL     1      47.901   8.087  18.808  0.00  0.00    +0.000 A 
ATOM     31  O   UNL     1      47.869   8.890  17.881  0.00  0.00    +0.000 OA
ATOM     32  C   UNL     1      48.402   6.732  18.692  0.00  0.00    +0.000 A 
ATOM     33  H   UNL     1      47.112   9.368  20.176  0.00  0.00    +0.000 HD
ENDBRANCH  20  23
ENDBRANCH  18  19
ENDBRANCH   4  18
TORSDOF 6
ENDMDL
MODEL 4
REMARK VINA RESULT:    -7.440      4.646      9.501
REMARK INTER + INTRA:         -11.164
REMARK INTER:                 -10.415
REMARK INTRA:                  -0.749
REMARK UNBOUND:                -1.115
REMARK  Name = 
REMARK  6 active torsions:
REMARK  status: ('A' for Active; 'I' for Inactive)
REMARK    1  A    between atoms: C_2  and  C_25
REMARK    2  A    between atoms: N_3  and  C_4
REMARK    3  A    between atoms: C_4  and  C_5
REMARK    4  A    between atoms: C_8  and  C_9
REMARK    5  A    between atoms: C_9  and  N_10
REMARK    6  A    between atoms: C_11  and  C_13
REMARK                            x       y       z     vdW  Elec       q    Type
REMARK                         _______ _______ _______ _____ _____    ______ ____
ROOT
ATOM      1  C   UNL     1      51.408   2.884  17.693  0.00  0.00    +0.000 A 
ATOM      2  C   UNL     1      50.613   1.907  17.077  0.00  0.00    +0.000 A 
ATOM      3  C   UNL     1      49.252   2.135  16.842  0.00  0.00    +0.000 A 
ATOM      4  C   UNL     1      48.660   3.355  17.198  0.00  0.00    +0.000 A 
ATOM      5  C   UNL     1      49.454   4.330  17.814  0.00  0.00    +0.000 A 
ATOM      6  C   UNL     1      50.815   4.103  18.048  0.00  0.00    +0.000 A 
ENDROOT
BRANCH   1   7
ATOM      7  C   UNL     1      52.860   2.611  17.991  0.00  0.00    +0.000 C 
BRANCH   7  10
ATOM      8  O   UNL     1      54.450   0.693  16.789  0.00  0.00    +0.000 OA
ATOM      9  C   UNL     1      53.907   0.406  17.853  0.00  0.00    +0.000 C 
ATOM     10  N   UNL     1      53.083   1.287  18.519  0.00  0.00    +0.000 N 
ATOM     11  H   UNL     1      52.793   1.083  19.465  0.00  0.00    +0.000 HD
BRANCH   9  12
ATOM     12  C   UNL     1      54.103  -0.867  18.492  0.00  0.00    +0.000 A 
ATOM     13  C   UNL     1      55.221  -1.635  18.753  0.00  0.00    +0.000 A 
ATOM     14  C   UNL     1      54.739  -2.774  19.428  0.00  0.00    +0.000 A 
ATOM     15  N   UNL     1      53.414  -2.745  19.586  0.00  0.00    +0.000 NA
ATOM     16  N   UNL     1      53.057  -1.576  19.024  0.00  0.00    +0.000 N 
ATOM     17  H   UNL     1      52.076  -1.303  19.026  0.00  0.00    +0.000 HD
ENDBRANCH   9  12
ENDBRANCH   7  10
ENDBRANCH   1   7
BRANCH   4  18
ATOM     18  C   UNL     1      47.195   3.610  16.943  0.00  0.00    +0.000 C 
BRANCH  18  19
ATOM     19  N   UNL     1      46.988   4.609  15.926  0.00  0.00    +0.000 N 
ATOM     20  C   UNL     1      47.043   4.278  14.594  0.00  0.00    +0.000 C 
ATOM     21  O   UNL     1      47.227   3.122  14.221  0.00  0.00    +0.000 OA
ATOM     22  H   UNL     1      47.072   5.583  16.203  0.00  0.00    +0.000 HD
BRANCH  20  23
ATOM     23  C   UNL     1      46.806   5.360  13.630  0.00  0.00    +0.000 A 
ATOM     24  C   UNL     1      47.843   6.221  13.293  0.00  0.00    +0.000 A 
ATOM     25  S   UNL     1      47.415   7.386  12.124  0.00  0.00    +0.000 S 
ATOM     26  C   UNL     1      45.814   6.819  12.067  0.00  0.00    +0.000 A 
ATOM     27  N   UNL     1      44.890   7.413  11.263  0.00  0.00    +0.000 NA
ATOM     28  C   UNL     1      43.706   6.903  11.345  0.00  0.00    +0.000 A 
ATOM     29  N   UNL     1      43.364   5.849  12.152  0.00  0.00    +0.000 N 
ATOM     30  C   UNL     1      44.269   5.198  12.956  0.00  0.00    +0.000 A 
ATOM     31  O   UNL     1      43.941   4.229  13.633  0.00  0.00    +0.000 OA
ATOM     32  C   UNL     1      45.613   5.741  12.913  0.00  0.00    +0.000 A 
ATOM     33  H   UNL     1      42.420   5.492  12.163  0.00  0.00    +0.000 HD
ENDBRANCH  20  23
ENDBRANCH  18  19
ENDBRANCH   4  18
TORSDOF 6
ENDMDL
MODEL 5
REMARK VINA RESULT:    -7.202      2.045      2.748
REMARK INTER + INTRA:         -10.843
REMARK INTER:                 -10.158
REMARK INTRA:                  -0.685
REMARK UNBOUND:                -1.115
REMARK  Name = 
REMARK  6 active torsions:
REMARK  status: ('A' for Active; 'I' for Inactive)
REMARK    1  A    between atoms: C_2  and  C_25
REMARK    2  A    between atoms: N_3  and  C_4
REMARK    3  A    between atoms: C_4  and  C_5
REMARK    4  A    between atoms: C_8  and  C_9
REMARK    5  A    between atoms: C_9  and  N_10
REMARK    6  A    between atoms: C_11  and  C_13
REMARK                            x       y       z     vdW  Elec       q    Type
REMARK                         _______ _______ _______ _____ _____    ______ ____
ROOT
ATOM      1  C   UNL     1      45.046   5.126  11.249  0.00  0.00    +0.000 A 
ATOM      2  C   UNL     1      45.425   4.556  12.473  0.00  0.00    +0.000 A 
ATOM      3  C   UNL     1      46.287   5.235  13.342  0.00  0.00    +0.000 A 
ATOM      4  C   UNL     1      46.771   6.510  13.017  0.00  0.00    +0.000 A 
ATOM      5  C   UNL     1      46.393   7.079  11.794  0.00  0.00    +0.000 A 
ATOM      6  C   UNL     1      45.530   6.400  10.925  0.00  0.00    +0.000 A 
ENDROOT
BRANCH   1   7
ATOM      7  C   UNL     1      44.160   4.366  10.295  0.00  0.00    +0.000 C 
BRANCH   7  10
ATOM      8  O   UNL     1      45.664   4.638   7.989  0.00  0.00    +0.000 OA
ATOM      9  C   UNL     1      45.587   3.522   8.498  0.00  0.00    +0.000 C 
ATOM     10  N   UNL     1      44.848   3.282   9.636  0.00  0.00    +0.000 N 
ATOM     11  H   UNL     1      44.944   2.400  10.118  0.00  0.00    +0.000 HD
BRANCH   9  12
ATOM     12  C   UNL     1      46.276   2.385   7.952  0.00  0.00    +0.000 A 
ATOM     13  C   UNL     1      46.108   1.020   8.084  0.00  0.00    +0.000 A 
ATOM     14  C   UNL     1      47.103   0.444   7.270  0.00  0.00    +0.000 A 
ATOM     15  N   UNL     1      47.855   1.363   6.663  0.00  0.00    +0.000 NA
ATOM     16  N   UNL     1      47.326   2.527   7.081  0.00  0.00    +0.000 N 
ATOM     17  H   UNL     1      47.720   3.402   6.742  0.00  0.00    +0.000 HD
ENDBRANCH   9  12
ENDBRANCH   7  10
ENDBRANCH   1   7
BRANCH   4  18
ATOM     18  C   UNL     1      47.696   7.251  13.951  0.00  0.00    +0.000 C 
BRANCH  18  19
ATOM     19  N   UNL     1      48.231   6.392  14.976  0.00  0.00    +0.000 N 
ATOM     20  C   UNL     1      48.991   6.906  15.999  0.00  0.00    +0.000 C 
ATOM     21  O   UNL     1      49.208   8.111  16.101  0.00  0.00    +0.000 OA
ATOM     22  H   UNL     1      48.264   5.394  14.781  0.00  0.00    +0.000 HD
BRANCH  20  23
ATOM     23  C   UNL     1      49.481   5.955  17.006  0.00  0.00    +0.000 A 
ATOM     24  C   UNL     1      48.577   5.304  17.835  0.00  0.00    +0.000 A 
ATOM     25  S   UNL     1      49.305   4.198  18.909  0.00  0.00    +0.000 S 
ATOM     26  C   UNL     1      50.860   4.590  18.344  0.00  0.00    +0.000 A 
ATOM     27  N   UNL     1      51.966   4.004  18.877  0.00  0.00    +0.000 NA
ATOM     28  C   UNL     1      53.082   4.420  18.378  0.00  0.00    +0.000 A 
ATOM     29  N   UNL     1      53.192   5.363  17.389  0.00  0.00    +0.000 N 
ATOM     30  C   UNL     1      52.103   5.958  16.799  0.00  0.00    +0.000 A 
ATOM     31  O   UNL     1      52.233   6.766  15.885  0.00  0.00    +0.000 OA
ATOM     32  C   UNL     1      50.823   5.537  17.334  0.00  0.00    +0.000 A 
ATOM     33  H   UNL     1      54.097   5.639  17.037  0.00  0.00    +0.000 HD
ENDBRANCH  20  23
ENDBRANCH  18  19
ENDBRANCH   4  18
TORSDOF 6
ENDMDL
MODEL 6
REMARK VINA RESULT:    -7.150      4.602      9.490
REMARK INTER + INTRA:         -10.772
REMARK INTER:                  -9.709
REMARK INTRA:                  -1.063
REMARK UNBOUND:                -1.115
REMARK  Name = 
REMARK  6 active torsions:
REMARK  status: ('A' for Active; 'I' for Inactive)
REMARK    1  A    between atoms: C_2  and  C_25
REMARK    2  A    between atoms: N_3  and  C_4
REMARK    3  A    between atoms: C_4  and  C_5
REMARK    4  A    between atoms: C_8  and  C_9
REMARK    5  A    between atoms: C_9  and  N_10
REMARK    6  A    between atoms: C_11  and  C_13
REMARK                            x       y       z     vdW  Elec       q    Type
REMARK                         _______ _______ _______ _____ _____    ______ ____
ROOT
ATOM      1  C   UNL     1      51.408   2.928  17.705  0.00  0.00    +0.000 A 
ATOM      2  C   UNL     1      50.583   1.924  17.176  0.00  0.00    +0.000 A 
ATOM      3  C   UNL     1      49.231   2.175  16.910  0.00  0.00    +0.000 A 
ATOM      4  C   UNL     1      48.679   3.441  17.147  0.00  0.00    +0.000 A 
ATOM      5  C   UNL     1      49.503   4.443  17.676  0.00  0.00    +0.000 A 
ATOM      6  C   UNL     1      50.855   4.193  17.940  0.00  0.00    +0.000 A 
ENDROOT
BRANCH   1   7
ATOM      7  C   UNL     1      52.849   2.636  18.038  0.00  0.00    +0.000 C 
BRANCH   7  10
ATOM      8  O   UNL     1      54.464   0.730  16.849  0.00  0.00    +0.000 OA
ATOM      9  C   UNL     1      53.884   0.426  17.889  0.00  0.00    +0.000 C 
ATOM     10  N   UNL     1      53.045   1.299  18.546  0.00  0.00    +0.000 N 
ATOM     11  H   UNL     1      52.722   1.079  19.477  0.00  0.00    +0.000 HD
BRANCH   9  12
ATOM     12  C   UNL     1      54.050  -0.861  18.507  0.00  0.00    +0.000 A 
ATOM     13  C   UNL     1      55.155  -1.637  18.801  0.00  0.00    +0.000 A 
ATOM     14  C   UNL     1      54.642  -2.790  19.428  0.00  0.00    +0.000 A 
ATOM     15  N   UNL     1      53.311  -2.762  19.527  0.00  0.00    +0.000 NA
ATOM     16  N   UNL     1      52.981  -1.581  18.976  0.00  0.00    +0.000 N 
ATOM     17  H   UNL     1      52.001  -1.306  18.940  0.00  0.00    +0.000 HD
ENDBRANCH   9  12
ENDBRANCH   7  10
ENDBRANCH   1   7
BRANCH   4  18
ATOM     18  C   UNL     1      47.224   3.720  16.858  0.00  0.00    +0.000 C 
BRANCH  18  19
ATOM     19  N   UNL     1      47.058   4.682  15.798  0.00  0.00    +0.000 N 
ATOM     20  C   UNL     1      47.073   4.288  14.483  0.00  0.00    +0.000 C 
ATOM     21  O   UNL     1      47.186   3.107  14.162  0.00  0.00    +0.000 OA
ATOM     22  H   UNL     1      47.201   5.662  16.029  0.00  0.00    +0.000 HD
BRANCH  20  23
ATOM     23  C   UNL     1      46.881   5.337  13.473  0.00  0.00    +0.000 A 
ATOM     24  C   UNL     1      45.829   5.240  12.571  0.00  0.00    +0.000 A 
ATOM     25  S   UNL     1      45.718   6.563  11.501  0.00  0.00    +0.000 S 
ATOM     26  C   UNL     1      47.105   7.286  12.167  0.00  0.00    +0.000 A 
ATOM     27  N   UNL     1      47.585   8.462  11.677  0.00  0.00    +0.000 NA
ATOM     28  C   UNL     1      48.663   8.879  12.253  0.00  0.00    +0.000 A 
ATOM     29  N   UNL     1      49.300   8.231  13.279  0.00  0.00    +0.000 N 
ATOM     30  C   UNL     1      48.837   7.060  13.827  0.00  0.00    +0.000 A 
ATOM     31  O   UNL     1      49.406   6.528  14.775  0.00  0.00    +0.000 OA
ATOM     32  C   UNL     1      47.634   6.539  13.206  0.00  0.00    +0.000 A 
ATOM     33  H   UNL     1      50.138   8.616  13.691  0.00  0.00    +0.000 HD
ENDBRANCH  20  23
ENDBRANCH  18  19
ENDBRANCH   4  18
TORSDOF 6
ENDMDL
MODEL 7
REMARK VINA RESULT:    -6.947      2.772      3.786
REMARK INTER + INTRA:         -10.498
REMARK INTER:                  -9.556
REMARK INTRA:                  -0.942
REMARK UNBOUND:                -1.115
REMARK  Name = 
REMARK  6 active torsions:
REMARK  status: ('A' for Active; 'I' for Inactive)
REMARK    1  A    between atoms: C_2  and  C_25
REMARK    2  A    between atoms: N_3  and  C_4
REMARK    3  A    between atoms: C_4  and  C_5
REMARK    4  A    between atoms: C_8  and  C_9
REMARK    5  A    between atoms: C_9  and  N_10
REMARK    6  A    between atoms: C_11  and  C_13
REMARK                            x       y       z     vdW  Elec       q    Type
REMARK                         _______ _______ _______ _____ _____    ______ ____
ROOT
ATOM      1  C   UNL     1      45.065   4.753  10.823  0.00  0.00    +0.000 A 
ATOM      2  C   UNL     1      45.135   3.887  11.924  0.00  0.00    +0.000 A 
ATOM      3  C   UNL     1      45.834   4.255  13.080  0.00  0.00    +0.000 A 
ATOM      4  C   UNL     1      46.459   5.506  13.170  0.00  0.00    +0.000 A 
ATOM      5  C   UNL     1      46.390   6.370  12.070  0.00  0.00    +0.000 A 
ATOM      6  C   UNL     1      45.691   6.003  10.914  0.00  0.00    +0.000 A 
ENDROOT
BRANCH   1   7
ATOM      7  C   UNL     1      44.357   4.329   9.562  0.00  0.00    +0.000 C 
BRANCH   7  10
ATOM      8  O   UNL     1      45.356   1.801   9.047  0.00  0.00    +0.000 OA
ATOM      9  C   UNL     1      45.698   2.718   8.303  0.00  0.00    +0.000 C 
ATOM     10  N   UNL     1      45.268   4.014   8.488  0.00  0.00    +0.000 N 
ATOM     11  H   UNL     1      45.430   4.702   7.767  0.00  0.00    +0.000 HD
BRANCH   9  12
ATOM     12  C   UNL     1      46.561   2.503   7.174  0.00  0.00    +0.000 A 
ATOM     13  C   UNL     1      46.669   3.103   5.934  0.00  0.00    +0.000 A 
ATOM     14  C   UNL     1      47.734   2.439   5.293  0.00  0.00    +0.000 A 
ATOM     15  N   UNL     1      48.267   1.483   6.057  0.00  0.00    +0.000 NA
ATOM     16  N   UNL     1      47.549   1.552   7.192  0.00  0.00    +0.000 N 
ATOM     17  H   UNL     1      47.773   0.922   7.960  0.00  0.00    +0.000 HD
ENDBRANCH   9  12
ENDBRANCH   7  10
ENDBRANCH   1   7
BRANCH   4  18
ATOM     18  C   UNL     1      47.210   5.912  14.415  0.00  0.00    +0.000 C 
BRANCH  18  19
ATOM     19  N   UNL     1      48.508   6.456  14.110  0.00  0.00    +0.000 N 
ATOM     20  C   UNL     1      48.755   7.801  14.241  0.00  0.00    +0.000 C 
ATOM     21  O   UNL     1      47.899   8.579  14.657  0.00  0.00    +0.000 OA
ATOM     22  H   UNL     1      49.136   5.884  13.553  0.00  0.00    +0.000 HD
BRANCH  20  23
ATOM     23  C   UNL     1      50.112   8.262  13.921  0.00  0.00    +0.000 A 
ATOM     24  C   UNL     1      50.313   9.114  12.843  0.00  0.00    +0.000 A 
ATOM     25  S   UNL     1      51.937   9.594  12.642  0.00  0.00    +0.000 S 
ATOM     26  C   UNL     1      52.439   8.636  13.954  0.00  0.00    +0.000 A 
ATOM     27  N   UNL     1      53.751   8.572  14.311  0.00  0.00    +0.000 NA
ATOM     28  C   UNL     1      53.995   7.781  15.302  0.00  0.00    +0.000 A 
ATOM     29  N   UNL     1      53.045   7.054  15.973  0.00  0.00    +0.000 N 
ATOM     30  C   UNL     1      51.707   7.111  15.668  0.00  0.00    +0.000 A 
ATOM     31  O   UNL     1      50.876   6.482  16.316  0.00  0.00    +0.000 OA
ATOM     32  C   UNL     1      51.379   7.975  14.551  0.00  0.00    +0.000 A 
ATOM     33  H   UNL     1      53.302   6.458  16.746  0.00  0.00    +0.000 HD
ENDBRANCH  20  23
ENDBRANCH  18  19
ENDBRANCH   4  18
TORSDOF 6
ENDMDL
MODEL 8
REMARK VINA RESULT:    -6.854      3.650      8.263
REMARK INTER + INTRA:         -10.373
REMARK INTER:                  -9.493
REMARK INTRA:                  -0.880
REMARK UNBOUND:                -1.115
REMARK  Name = 
REMARK  6 active torsions:
REMARK  status: ('A' for Active; 'I' for Inactive)
REMARK    1  A    between atoms: C_2  and  C_25
REMARK    2  A    between atoms: N_3  and  C_4
REMARK    3  A    between atoms: C_4  and  C_5
REMARK    4  A    between atoms: C_8  and  C_9
REMARK    5  A    between atoms: C_9  and  N_10
REMARK    6  A    between atoms: C_11  and  C_13
REMARK                            x       y       z     vdW  Elec       q    Type
REMARK                         _______ _______ _______ _____ _____    ______ ____
ROOT
ATOM      1  C   UNL     1      50.288   7.079  15.776  0.00  0.00    +0.000 A 
ATOM      2  C   UNL     1      48.983   6.617  15.553  0.00  0.00    +0.000 A 
ATOM      3  C   UNL     1      48.299   6.945  14.376  0.00  0.00    +0.000 A 
ATOM      4  C   UNL     1      48.913   7.724  13.385  0.00  0.00    +0.000 A 
ATOM      5  C   UNL     1      50.217   8.186  13.609  0.00  0.00    +0.000 A 
ATOM      6  C   UNL     1      50.902   7.857  14.785  0.00  0.00    +0.000 A 
ENDROOT
BRANCH   1   7
ATOM      7  C   UNL     1      50.999   6.767  17.068  0.00  0.00    +0.000 C 
BRANCH   7  10
ATOM      8  O   UNL     1      49.942   4.748  18.637  0.00  0.00    +0.000 OA
ATOM      9  C   UNL     1      50.900   4.476  17.917  0.00  0.00    +0.000 C 
ATOM     10  N   UNL     1      51.507   5.416  17.114  0.00  0.00    +0.000 N 
ATOM     11  H   UNL     1      52.175   5.123  16.416  0.00  0.00    +0.000 HD
BRANCH   9  12
ATOM     12  C   UNL     1      51.451   3.150  17.848  0.00  0.00    +0.000 A 
ATOM     13  C   UNL     1      52.700   2.626  18.120  0.00  0.00    +0.000 A 
ATOM     14  C   UNL     1      52.584   1.244  17.870  0.00  0.00    +0.000 A 
ATOM     15  N   UNL     1      51.360   0.904  17.464  0.00  0.00    +0.000 NA
ATOM     16  N   UNL     1      50.692   2.072  17.473  0.00  0.00    +0.000 N 
ATOM     17  H   UNL     1      49.707   2.083  17.211  0.00  0.00    +0.000 HD
ENDBRANCH   9  12
ENDBRANCH   7  10
ENDBRANCH   1   7
BRANCH   4  18
ATOM     18  C   UNL     1      48.185   8.077  12.112  0.00  0.00    +0.000 C 
BRANCH  18  19
ATOM     19  N   UNL     1      47.513   6.938  11.540  0.00  0.00    +0.000 N 
ATOM     20  C   UNL     1      46.147   6.924  11.403  0.00  0.00    +0.000 C 
ATOM     21  O   UNL     1      45.454   7.886  11.723  0.00  0.00    +0.000 OA
ATOM     22  H   UNL     1      48.030   6.064  11.494  0.00  0.00    +0.000 HD
BRANCH  20  23
ATOM     23  C   UNL     1      45.552   5.725  10.796  0.00  0.00    +0.000 A 
ATOM     24  C   UNL     1      45.692   5.504   9.432  0.00  0.00    +0.000 A 
ATOM     25  S   UNL     1      44.989   4.045   8.898  0.00  0.00    +0.000 S 
ATOM     26  C   UNL     1      44.424   3.684  10.461  0.00  0.00    +0.000 A 
ATOM     27  N   UNL     1      43.701   2.555  10.699  0.00  0.00    +0.000 NA
ATOM     28  C   UNL     1      43.307   2.423  11.921  0.00  0.00    +0.000 A 
ATOM     29  N   UNL     1      43.577   3.313  12.929  0.00  0.00    +0.000 N 
ATOM     30  C   UNL     1      44.329   4.448  12.743  0.00  0.00    +0.000 A 
ATOM     31  O   UNL     1      44.591   5.201  13.675  0.00  0.00    +0.000 OA
ATOM     32  C   UNL     1      44.785   4.652  11.382  0.00  0.00    +0.000 A 
ATOM     33  H   UNL     1      43.245   3.147  13.867  0.00  0.00    +0.000 HD
ENDBRANCH  20  23
ENDBRANCH  18  19
ENDBRANCH   4  18
TORSDOF 6
ENDMDL
MODEL 9
REMARK VINA RESULT:    -6.846      3.855      8.385
REMARK INTER + INTRA:         -10.362
REMARK INTER:                  -9.363
REMARK INTRA:                  -0.999
REMARK UNBOUND:                -1.115
REMARK  Name = 
REMARK  6 active torsions:
REMARK  status: ('A' for Active; 'I' for Inactive)
REMARK    1  A    between atoms: C_2  and  C_25
REMARK    2  A    between atoms: N_3  and  C_4
REMARK    3  A    between atoms: C_4  and  C_5
REMARK    4  A    between atoms: C_8  and  C_9
REMARK    5  A    between atoms: C_9  and  N_10
REMARK    6  A    between atoms: C_11  and  C_13
REMARK                            x       y       z     vdW  Elec       q    Type
REMARK                         _______ _______ _______ _____ _____    ______ ____
ROOT
ATOM      1  C   UNL     1      49.762   4.546  17.656  0.00  0.00    +0.000 A 
ATOM      2  C   UNL     1      48.537   4.295  17.021  0.00  0.00    +0.000 A 
ATOM      3  C   UNL     1      48.060   5.152  16.021  0.00  0.00    +0.000 A 
ATOM      4  C   UNL     1      48.808   6.266  15.618  0.00  0.00    +0.000 A 
ATOM      5  C   UNL     1      50.031   6.517  16.253  0.00  0.00    +0.000 A 
ATOM      6  C   UNL     1      50.509   5.660  17.251  0.00  0.00    +0.000 A 
ENDROOT
BRANCH   1   7
ATOM      7  C   UNL     1      50.244   3.650  18.767  0.00  0.00    +0.000 C 
BRANCH   7  10
ATOM      8  O   UNL     1      50.640   1.405  17.200  0.00  0.00    +0.000 OA
ATOM      9  C   UNL     1      51.629   1.951  17.684  0.00  0.00    +0.000 C 
ATOM     10  N   UNL     1      51.534   3.062  18.491  0.00  0.00    +0.000 N 
ATOM     11  H   UNL     1      52.367   3.581  18.730  0.00  0.00    +0.000 HD
BRANCH   9  12
ATOM     12  C   UNL     1      52.962   1.478  17.430  0.00  0.00    +0.000 A 
ATOM     13  C   UNL     1      54.204   2.084  17.446  0.00  0.00    +0.000 A 
ATOM     14  C   UNL     1      55.119   1.062  17.124  0.00  0.00    +0.000 A 
ATOM     15  N   UNL     1      54.516  -0.110  16.914  0.00  0.00    +0.000 NA
ATOM     16  N   UNL     1      53.215   0.166  17.118  0.00  0.00    +0.000 N 
ATOM     17  H   UNL     1      52.530  -0.581  17.031  0.00  0.00    +0.000 HD
ENDBRANCH   9  12
ENDBRANCH   7  10
ENDBRANCH   1   7
BRANCH   4  18
ATOM     18  C   UNL     1      48.303   7.191  14.538  0.00  0.00    +0.000 C 
BRANCH  18  19
ATOM     19  N   UNL     1      47.052   6.741  13.982  0.00  0.00    +0.000 N 
ATOM     20  C   UNL     1      46.867   6.686  12.622  0.00  0.00    +0.000 C 
ATOM     21  O   UNL     1      47.764   6.976  11.834  0.00  0.00    +0.000 OA
ATOM     22  H   UNL     1      46.244   6.728  14.598  0.00  0.00    +0.000 HD
BRANCH  20  23
ATOM     23  C   UNL     1      45.563   6.201  12.148  0.00  0.00    +0.000 A 
ATOM     24  C   UNL     1      44.663   7.093  11.580  0.00  0.00    +0.000 A 
ATOM     25  S   UNL     1      43.222   6.360  11.037  0.00  0.00    +0.000 S 
ATOM     26  C   UNL     1      43.726   4.834  11.592  0.00  0.00    +0.000 A 
ATOM     27  N   UNL     1      42.925   3.742  11.459  0.00  0.00    +0.000 NA
ATOM     28  C   UNL     1      43.417   2.656  11.955  0.00  0.00    +0.000 A 
ATOM     29  N   UNL     1      44.641   2.562  12.565  0.00  0.00    +0.000 N 
ATOM     30  C   UNL     1      45.497   3.629  12.694  0.00  0.00    +0.000 A 
ATOM     31  O   UNL     1      46.605   3.502  13.205  0.00  0.00    +0.000 OA
ATOM     32  C   UNL     1      44.985   4.879  12.166  0.00  0.00    +0.000 A 
ATOM     33  H   UNL     1      44.971   1.679  12.926  0.00  0.00    +0.000 HD
ENDBRANCH  20  23
ENDBRANCH  18  19
ENDBRANCH   4  18
TORSDOF 6
ENDMDL
