MODEL 1
REMARK VINA RESULT:    -8.548      0.000      0.000
REMARK INTER + INTRA:         -11.839
REMARK INTER:                 -11.047
REMARK INTRA:                  -0.792
REMARK UNBOUND:                -0.792
REMARK  Name = 
REMARK  5 active torsions:
REMARK  status: ('A' for Active; 'I' for Inactive)
REMARK    1  A    between atoms: C_2  and  C_18
REMARK    2  A    between atoms: N_3  and  C_4
REMARK    3  A    between atoms: C_4  and  C_5
REMARK    4  A    between atoms: C_8  and  O_9
REMARK    5  A    between atoms: O_9  and  C_10
REMARK                            x       y       z     vdW  Elec       q    Type
REMARK                         _______ _______ _______ _____ _____    ______ ____
ROOT
ATOM      1  O   UNL     1      48.465   6.826  12.634  0.00  0.00    +0.000 OA
ATOM      2  C   UNL     1      47.773   6.695  13.640  0.00  0.00    +0.000 C 
ATOM      3  N   UNL     1      46.414   6.865  13.621  0.00  0.00    +0.000 N 
ATOM      4  H   UNL     1      45.907   6.916  14.499  0.00  0.00    +0.000 HD
ENDROOT
BRANCH   2   5
ATOM      5  C   UNL     1      48.359   6.297  14.924  0.00  0.00    +0.000 A 
ATOM      6  C   UNL     1      49.357   7.076  15.493  0.00  0.00    +0.000 A 
ATOM      7  S   UNL     1      49.922   6.479  16.986  0.00  0.00    +0.000 S 
ATOM      8  C   UNL     1      48.822   5.181  16.945  0.00  0.00    +0.000 A 
ATOM      9  N   UNL     1      48.752   4.293  17.972  0.00  0.00    +0.000 NA
ATOM     10  C   UNL     1      47.841   3.387  17.832  0.00  0.00    +0.000 A 
ATOM     11  N   UNL     1      47.011   3.276  16.746  0.00  0.00    +0.000 N 
ATOM     12  C   UNL     1      47.109   4.094  15.648  0.00  0.00    +0.000 A 
ATOM     13  O   UNL     1      46.461   3.878  14.628  0.00  0.00    +0.000 OA
ATOM     14  C   UNL     1      48.066   5.178  15.787  0.00  0.00    +0.000 A 
ATOM     15  H   UNL     1      46.345   2.520  16.683  0.00  0.00    +0.000 HD
ENDBRANCH   2   5
BRANCH   3  16
ATOM     16  C   UNL     1      45.714   7.299  12.443  0.00  0.00    +0.000 C 
BRANCH  16  17
ATOM     17  C   UNL     1      45.451   6.156  11.510  0.00  0.00    +0.000 A 
ATOM     18  C   UNL     1      44.725   5.028  11.908  0.00  0.00    +0.000 A 
ATOM     19  C   UNL     1      44.455   4.021  10.986  0.00  0.00    +0.000 A 
ATOM     20  C   UNL     1      44.928   4.179   9.692  0.00  0.00    +0.000 A 
ATOM     21  N   UNL     1      45.706   5.211   9.299  0.00  0.00    +0.000 NA
ATOM     22  C   UNL     1      45.942   6.177  10.211  0.00  0.00    +0.000 A 
BRANCH  20  23
ATOM     23  O   UNL     1      44.548   3.225   8.754  0.00  0.00    +0.000 OA
BRANCH  23  24
ATOM     24  C   UNL     1      45.549   2.708   7.955  0.00  0.00    +0.000 A 
ATOM     25  C   UNL     1      46.051   1.452   8.295  0.00  0.00    +0.000 A 
ATOM     26  C   UNL     1      47.084   0.888   7.541  0.00  0.00    +0.000 A 
ATOM     27  C   UNL     1      47.606   1.576   6.444  0.00  0.00    +0.000 A 
ATOM     28  C   UNL     1      47.076   2.810   6.077  0.00  0.00    +0.000 A 
ATOM     29  C   UNL     1      46.033   3.365   6.818  0.00  0.00    +0.000 A 
ENDBRANCH  23  24
ENDBRANCH  20  23
ENDBRANCH  16  17
ENDBRANCH   3  16
TORSDOF 5
ENDMDL
MODEL 2
REMARK VINA RESULT:    -8.189      1.868      2.457
REMARK INTER + INTRA:         -11.374
REMARK INTER:                 -10.862
REMARK INTRA:                  -0.512
REMARK UNBOUND:                -0.792
REMARK  Name = 
REMARK  5 active torsions:
REMARK  status: ('A' for Active; 'I' for Inactive)
REMARK    1  A    between atoms: C_2  and  C_18
REMARK    2  A    between atoms: N_3  and  C_4
REMARK    3  A    between atoms: C_4  and  C_5
REMARK    4  A    between atoms: C_8  and  O_9
REMARK    5  A    between atoms: O_9  and  C_10
REMARK                            x       y       z     vdW  Elec       q    Type
REMARK                         _______ _______ _______ _____ _____    ______ ____
ROOT
ATOM      1  O   UNL     1      48.904   6.267  14.539  0.00  0.00    +0.000 OA
ATOM      2  C   UNL     1      47.920   5.701  15.006  0.00  0.00    +0.000 C 
ATOM      3  N   UNL     1      46.711   5.683  14.362  0.00  0.00    +0.000 N 
ATOM      4  H   UNL     1      45.889   5.354  14.858  0.00  0.00    +0.000 HD
ENDROOT
BRANCH   2   5
ATOM      5  C   UNL     1      47.993   4.959  16.269  0.00  0.00    +0.000 A 
ATOM      6  C   UNL     1      47.689   3.604  16.287  0.00  0.00    +0.000 A 
ATOM      7  S   UNL     1      47.831   2.893  17.828  0.00  0.00    +0.000 S 
ATOM      8  C   UNL     1      48.346   4.360  18.518  0.00  0.00    +0.000 A 
ATOM      9  N   UNL     1      48.686   4.433  19.833  0.00  0.00    +0.000 NA
ATOM     10  C   UNL     1      49.103   5.595  20.212  0.00  0.00    +0.000 A 
ATOM     11  N   UNL     1      49.190   6.697  19.401  0.00  0.00    +0.000 N 
ATOM     12  C   UNL     1      48.773   6.691  18.093  0.00  0.00    +0.000 A 
ATOM     13  O   UNL     1      48.716   7.727  17.435  0.00  0.00    +0.000 OA
ATOM     14  C   UNL     1      48.365   5.390  17.595  0.00  0.00    +0.000 A 
ATOM     15  H   UNL     1      49.490   7.587  19.772  0.00  0.00    +0.000 HD
ENDBRANCH   2   5
BRANCH   3  16
ATOM     16  C   UNL     1      46.484   6.406  13.141  0.00  0.00    +0.000 C 
BRANCH  16  17
ATOM     17  C   UNL     1      45.869   5.529  12.093  0.00  0.00    +0.000 A 
ATOM     18  C   UNL     1      45.610   5.992  10.798  0.00  0.00    +0.000 A 
ATOM     19  C   UNL     1      45.095   5.120   9.843  0.00  0.00    +0.000 A 
ATOM     20  C   UNL     1      44.852   3.809  10.222  0.00  0.00    +0.000 A 
ATOM     21  N   UNL     1      45.007   3.353  11.485  0.00  0.00    +0.000 NA
ATOM     22  C   UNL     1      45.518   4.217  12.387  0.00  0.00    +0.000 A 
BRANCH  20  23
ATOM     23  O   UNL     1      44.454   2.922   9.229  0.00  0.00    +0.000 OA
BRANCH  23  24
ATOM     24  C   UNL     1      45.399   2.591   8.278  0.00  0.00    +0.000 A 
ATOM     25  C   UNL     1      46.007   1.340   8.392  0.00  0.00    +0.000 A 
ATOM     26  C   UNL     1      46.991   0.959   7.476  0.00  0.00    +0.000 A 
ATOM     27  C   UNL     1      47.360   1.823   6.443  0.00  0.00    +0.000 A 
ATOM     28  C   UNL     1      46.724   3.054   6.303  0.00  0.00    +0.000 A 
ATOM     29  C   UNL     1      45.729   3.427   7.205  0.00  0.00    +0.000 A 
ENDBRANCH  23  24
ENDBRANCH  20  23
ENDBRANCH  16  17
ENDBRANCH   3  16
TORSDOF 5
ENDMDL
MODEL 3
REMARK VINA RESULT:    -8.102      1.754      2.484
REMARK INTER + INTRA:         -11.263
REMARK INTER:                 -10.526
REMARK INTRA:                  -0.737
REMARK UNBOUND:                -0.792
REMARK  Name = 
REMARK  5 active torsions:
REMARK  status: ('A' for Active; 'I' for Inactive)
REMARK    1  A    between atoms: C_2  and  C_18
REMARK    2  A    between atoms: N_3  and  C_4
REMARK    3  A    between atoms: C_4  and  C_5
REMARK    4  A    between atoms: C_8  and  O_9
REMARK    5  A    between atoms: O_9  and  C_10
REMARK                            x       y       z     vdW  Elec       q    Type
REMARK                         _______ _______ _______ _____ _____    ______ ____
ROOT
ATOM      1  O   UNL     1      47.213   3.753  14.761  0.00  0.00    +0.000 OA
ATOM      2  C   UNL     1      47.057   4.927  14.436  0.00  0.00    +0.000 C 
ATOM      3  N   UNL     1      45.903   5.377  13.852  0.00  0.00    +0.000 N 
ATOM      4  H   UNL     1      45.881   6.308  13.447  0.00  0.00    +0.000 HD
ENDROOT
BRANCH   2   5
ATOM      5  C   UNL     1      48.087   5.937  14.701  0.00  0.00    +0.000 A 
ATOM      6  C   UNL     1      48.603   6.682  13.649  0.00  0.00    +0.000 A 
ATOM      7  S   UNL     1      49.782   7.815  14.129  0.00  0.00    +0.000 S 
ATOM      8  C   UNL     1      49.613   7.380  15.765  0.00  0.00    +0.000 A 
ATOM      9  N   UNL     1      50.323   8.017  16.734  0.00  0.00    +0.000 NA
ATOM     10  C   UNL     1      50.061   7.619  17.935  0.00  0.00    +0.000 A 
ATOM     11  N   UNL     1      49.172   6.625  18.252  0.00  0.00    +0.000 N 
ATOM     12  C   UNL     1      48.503   5.895  17.301  0.00  0.00    +0.000 A 
ATOM     13  O   UNL     1      47.833   4.911  17.604  0.00  0.00    +0.000 OA
ATOM     14  C   UNL     1      48.703   6.352  15.938  0.00  0.00    +0.000 A 
ATOM     15  H   UNL     1      49.043   6.336  19.211  0.00  0.00    +0.000 HD
ENDBRANCH   2   5
BRANCH   3  16
ATOM     16  C   UNL     1      44.830   4.490  13.493  0.00  0.00    +0.000 C 
BRANCH  16  17
ATOM     17  C   UNL     1      44.711   4.350  12.006  0.00  0.00    +0.000 A 
ATOM     18  C   UNL     1      45.410   5.184  11.126  0.00  0.00    +0.000 A 
ATOM     19  C   UNL     1      45.313   4.973   9.753  0.00  0.00    +0.000 A 
ATOM     20  C   UNL     1      44.514   3.931   9.309  0.00  0.00    +0.000 A 
ATOM     21  N   UNL     1      43.758   3.166  10.126  0.00  0.00    +0.000 NA
ATOM     22  C   UNL     1      43.879   3.385  11.452  0.00  0.00    +0.000 A 
BRANCH  20  23
ATOM     23  O   UNL     1      44.524   3.658   7.946  0.00  0.00    +0.000 OA
BRANCH  23  24
ATOM     24  C   UNL     1      45.616   2.966   7.461  0.00  0.00    +0.000 A 
ATOM     25  C   UNL     1      45.934   1.758   8.084  0.00  0.00    +0.000 A 
ATOM     26  C   UNL     1      47.044   1.025   7.657  0.00  0.00    +0.000 A 
ATOM     27  C   UNL     1      47.829   1.494   6.602  0.00  0.00    +0.000 A 
ATOM     28  C   UNL     1      47.489   2.678   5.951  0.00  0.00    +0.000 A 
ATOM     29  C   UNL     1      46.370   3.400   6.365  0.00  0.00    +0.000 A 
ENDBRANCH  23  24
ENDBRANCH  20  23
ENDBRANCH  16  17
ENDBRANCH   3  16
TORSDOF 5
ENDMDL
MODEL 4
REMARK VINA RESULT:    -7.932      2.409      3.386
REMARK INTER + INTRA:         -11.043
REMARK INTER:                 -10.714
REMARK INTRA:                  -0.329
REMARK UNBOUND:                -0.792
REMARK  Name = 
REMARK  5 active torsions:
REMARK  status: ('A' for Active; 'I' for Inactive)
REMARK    1  A    between atoms: C_2  and  C_18
REMARK    2  A    between atoms: N_3  and  C_4
REMARK    3  A    between atoms: C_4  and  C_5
REMARK    4  A    between atoms: C_8  and  O_9
REMARK    5  A    between atoms: O_9  and  C_10
REMARK                            x       y       z     vdW  Elec       q    Type
REMARK                         _______ _______ _______ _____ _____    ______ ____
ROOT
ATOM      1  O   UNL     1      47.674   4.791  13.528  0.00  0.00    +0.000 OA
ATOM      2  C   UNL     1      47.463   5.971  13.264  0.00  0.00    +0.000 C 
ATOM      3  N   UNL     1      46.197   6.487  13.175  0.00  0.00    +0.000 N 
ATOM      4  H   UNL     1      46.066   7.417  12.791  0.00  0.00    +0.000 HD
ENDROOT
BRANCH   2   5
ATOM      5  C   UNL     1      48.565   6.921  13.078  0.00  0.00    +0.000 A 
ATOM      6  C   UNL     1      48.706   7.576  11.862  0.00  0.00    +0.000 A 
ATOM      7  S   UNL     1      50.030   8.648  11.814  0.00  0.00    +0.000 S 
ATOM      8  C   UNL     1      50.435   8.307  13.432  0.00  0.00    +0.000 A 
ATOM      9  N   UNL     1      51.471   8.942  14.041  0.00  0.00    +0.000 NA
ATOM     10  C   UNL     1      51.637   8.622  15.282  0.00  0.00    +0.000 A 
ATOM     11  N   UNL     1      50.874   7.708  15.961  0.00  0.00    +0.000 N 
ATOM     12  C   UNL     1      49.877   6.978  15.361  0.00  0.00    +0.000 A 
ATOM     13  O   UNL     1      49.314   6.058  15.948  0.00  0.00    +0.000 OA
ATOM     14  C   UNL     1      49.600   7.354  13.986  0.00  0.00    +0.000 A 
ATOM     15  H   UNL     1      51.082   7.476  16.921  0.00  0.00    +0.000 HD
ENDBRANCH   2   5
BRANCH   3  16
ATOM     16  C   UNL     1      45.025   5.663  13.290  0.00  0.00    +0.000 C 
BRANCH  16  17
ATOM     17  C   UNL     1      44.779   4.885  12.033  0.00  0.00    +0.000 A 
ATOM     18  C   UNL     1      45.147   5.375  10.775  0.00  0.00    +0.000 A 
ATOM     19  C   UNL     1      44.953   4.587   9.644  0.00  0.00    +0.000 A 
ATOM     20  C   UNL     1      44.392   3.331   9.814  0.00  0.00    +0.000 A 
ATOM     21  N   UNL     1      43.945   2.864  11.000  0.00  0.00    +0.000 NA
ATOM     22  C   UNL     1      44.156   3.644  12.081  0.00  0.00    +0.000 A 
BRANCH  20  23
ATOM     23  O   UNL     1      44.317   2.510   8.693  0.00  0.00    +0.000 OA
BRANCH  23  24
ATOM     24  C   UNL     1      45.474   2.366   7.953  0.00  0.00    +0.000 A 
ATOM     25  C   UNL     1      45.782   3.382   7.047  0.00  0.00    +0.000 A 
ATOM     26  C   UNL     1      46.926   3.280   6.251  0.00  0.00    +0.000 A 
ATOM     27  C   UNL     1      47.763   2.169   6.366  0.00  0.00    +0.000 A 
ATOM     28  C   UNL     1      47.480   1.176   7.300  0.00  0.00    +0.000 A 
ATOM     29  C   UNL     1      46.350   1.286   8.108  0.00  0.00    +0.000 A 
ENDBRANCH  23  24
ENDBRANCH  20  23
ENDBRANCH  16  17
ENDBRANCH   3  16
TORSDOF 5
ENDMDL
MODEL 5
REMARK VINA RESULT:    -7.926      1.279      1.909
REMARK INTER + INTRA:         -11.035
REMARK INTER:                 -10.141
REMARK INTRA:                  -0.894
REMARK UNBOUND:                -0.792
REMARK  Name = 
REMARK  5 active torsions:
REMARK  status: ('A' for Active; 'I' for Inactive)
REMARK    1  A    between atoms: C_2  and  C_18
REMARK    2  A    between atoms: N_3  and  C_4
REMARK    3  A    between atoms: C_4  and  C_5
REMARK    4  A    between atoms: C_8  and  O_9
REMARK    5  A    between atoms: O_9  and  C_10
REMARK                            x       y       z     vdW  Elec       q    Type
REMARK                         _______ _______ _______ _____ _____    ______ ____
ROOT
ATOM      1  O   UNL     1      49.732   6.992  14.097  0.00  0.00    +0.000 OA
ATOM      2  C   UNL     1      48.805   6.869  14.892  0.00  0.00    +0.000 C 
ATOM      3  N   UNL     1      47.516   7.208  14.572  0.00  0.00    +0.000 N 
ATOM      4  H   UNL     1      46.817   7.251  15.307  0.00  0.00    +0.000 HD
ENDROOT
BRANCH   2   5
ATOM      5  C   UNL     1      49.013   6.300  16.228  0.00  0.00    +0.000 A 
ATOM      6  C   UNL     1      49.752   7.007  17.167  0.00  0.00    +0.000 A 
ATOM      7  S   UNL     1      49.892   6.210  18.666  0.00  0.00    +0.000 S 
ATOM      8  C   UNL     1      48.933   4.911  18.127  0.00  0.00    +0.000 A 
ATOM      9  N   UNL     1      48.621   3.882  18.959  0.00  0.00    +0.000 NA
ATOM     10  C   UNL     1      47.848   2.989  18.434  0.00  0.00    +0.000 A 
ATOM     11  N   UNL     1      47.380   3.021  17.146  0.00  0.00    +0.000 N 
ATOM     12  C   UNL     1      47.744   3.992  16.247  0.00  0.00    +0.000 A 
ATOM     13  O   UNL     1      47.436   3.913  15.060  0.00  0.00    +0.000 OA
ATOM     14  C   UNL     1      48.550   5.061  16.807  0.00  0.00    +0.000 A 
ATOM     15  H   UNL     1      46.810   2.269  16.787  0.00  0.00    +0.000 HD
ENDBRANCH   2   5
BRANCH   3  16
ATOM     16  C   UNL     1      47.175   7.819  13.317  0.00  0.00    +0.000 C 
BRANCH  16  17
ATOM     17  C   UNL     1      46.294   6.926  12.496  0.00  0.00    +0.000 A 
ATOM     18  C   UNL     1      45.272   7.435  11.687  0.00  0.00    +0.000 A 
ATOM     19  C   UNL     1      44.523   6.569  10.896  0.00  0.00    +0.000 A 
ATOM     20  C   UNL     1      44.823   5.216  10.946  0.00  0.00    +0.000 A 
ATOM     21  N   UNL     1      45.742   4.683  11.781  0.00  0.00    +0.000 NA
ATOM     22  C   UNL     1      46.461   5.547  12.528  0.00  0.00    +0.000 A 
BRANCH  20  23
ATOM     23  O   UNL     1      44.149   4.381  10.062  0.00  0.00    +0.000 OA
BRANCH  23  24
ATOM     24  C   UNL     1      44.928   3.623   9.211  0.00  0.00    +0.000 A 
ATOM     25  C   UNL     1      45.657   4.304   8.236  0.00  0.00    +0.000 A 
ATOM     26  C   UNL     1      46.444   3.590   7.328  0.00  0.00    +0.000 A 
ATOM     27  C   UNL     1      46.507   2.197   7.401  0.00  0.00    +0.000 A 
ATOM     28  C   UNL     1      45.814   1.518   8.401  0.00  0.00    +0.000 A 
ATOM     29  C   UNL     1      45.045   2.232   9.319  0.00  0.00    +0.000 A 
ENDBRANCH  23  24
ENDBRANCH  20  23
ENDBRANCH  16  17
ENDBRANCH   3  16
TORSDOF 5
ENDMDL
MODEL 6
REMARK VINA RESULT:    -7.919      2.142      3.353
REMARK INTER + INTRA:         -11.025
REMARK INTER:                 -10.828
REMARK INTRA:                  -0.198
REMARK UNBOUND:                -0.792
REMARK  Name = 
REMARK  5 active torsions:
REMARK  status: ('A' for Active; 'I' for Inactive)
REMARK    1  A    between atoms: C_2  and  C_18
REMARK    2  A    between atoms: N_3  and  C_4
REMARK    3  A    between atoms: C_4  and  C_5
REMARK    4  A    between atoms: C_8  and  O_9
REMARK    5  A    between atoms: O_9  and  C_10
REMARK                            x       y       z     vdW  Elec       q    Type
REMARK                         _______ _______ _______ _____ _____    ______ ____
ROOT
ATOM      1  O   UNL     1      46.020   4.163  14.034  0.00  0.00    +0.000 OA
ATOM      2  C   UNL     1      46.195   5.361  13.829  0.00  0.00    +0.000 C 
ATOM      3  N   UNL     1      45.201   6.174  13.352  0.00  0.00    +0.000 N 
ATOM      4  H   UNL     1      45.434   7.111  13.038  0.00  0.00    +0.000 HD
ENDROOT
BRANCH   2   5
ATOM      5  C   UNL     1      47.474   6.010  14.133  0.00  0.00    +0.000 A 
ATOM      6  C   UNL     1      48.041   5.851  15.390  0.00  0.00    +0.000 A 
ATOM      7  S   UNL     1      49.528   6.662  15.576  0.00  0.00    +0.000 S 
ATOM      8  C   UNL     1      49.488   7.218  13.968  0.00  0.00    +0.000 A 
ATOM      9  N   UNL     1      50.512   7.952  13.457  0.00  0.00    +0.000 NA
ATOM     10  C   UNL     1      50.372   8.267  12.211  0.00  0.00    +0.000 A 
ATOM     11  N   UNL     1      49.291   7.933  11.438  0.00  0.00    +0.000 N 
ATOM     12  C   UNL     1      48.196   7.273  11.937  0.00  0.00    +0.000 A 
ATOM     13  O   UNL     1      47.178   7.122  11.266  0.00  0.00    +0.000 OA
ATOM     14  C   UNL     1      48.334   6.829  13.312  0.00  0.00    +0.000 A 
ATOM     15  H   UNL     1      49.227   8.244  10.480  0.00  0.00    +0.000 HD
ENDBRANCH   2   5
BRANCH   3  16
ATOM     16  C   UNL     1      43.912   5.664  12.969  0.00  0.00    +0.000 C 
BRANCH  16  17
ATOM     17  C   UNL     1      44.021   4.726  11.805  0.00  0.00    +0.000 A 
ATOM     18  C   UNL     1      44.705   5.073  10.635  0.00  0.00    +0.000 A 
ATOM     19  C   UNL     1      44.830   4.142   9.608  0.00  0.00    +0.000 A 
ATOM     20  C   UNL     1      44.259   2.892   9.788  0.00  0.00    +0.000 A 
ATOM     21  N   UNL     1      43.518   2.555  10.866  0.00  0.00    +0.000 NA
ATOM     22  C   UNL     1      43.423   3.472  11.851  0.00  0.00    +0.000 A 
BRANCH  20  23
ATOM     23  O   UNL     1      44.496   1.936   8.807  0.00  0.00    +0.000 OA
BRANCH  23  24
ATOM     24  C   UNL     1      45.574   2.158   7.973  0.00  0.00    +0.000 A 
ATOM     25  C   UNL     1      46.586   1.198   7.969  0.00  0.00    +0.000 A 
ATOM     26  C   UNL     1      47.715   1.380   7.166  0.00  0.00    +0.000 A 
ATOM     27  C   UNL     1      47.828   2.517   6.363  0.00  0.00    +0.000 A 
ATOM     28  C   UNL     1      46.799   3.455   6.334  0.00  0.00    +0.000 A 
ATOM     29  C   UNL     1      45.664   3.264   7.120  0.00  0.00    +0.000 A 
ENDBRANCH  23  24
ENDBRANCH  20  23
ENDBRANCH  16  17
ENDBRANCH   3  16
TORSDOF 5
ENDMDL
MODEL 7
REMARK VINA RESULT:    -7.781      2.319      3.888
REMARK INTER + INTRA:         -10.848
REMARK INTER:                  -9.950
REMARK INTRA:                  -0.898
REMARK UNBOUND:                -0.792
REMARK  Name = 
REMARK  5 active torsions:
REMARK  status: ('A' for Active; 'I' for Inactive)
REMARK    1  A    between atoms: C_2  and  C_18
REMARK    2  A    between atoms: N_3  and  C_4
REMARK    3  A    between atoms: C_4  and  C_5
REMARK    4  A    between atoms: C_8  and  O_9
REMARK    5  A    between atoms: O_9  and  C_10
REMARK                            x       y       z     vdW  Elec       q    Type
REMARK                         _______ _______ _______ _____ _____    ______ ____
ROOT
ATOM      1  O   UNL     1      48.675   5.419  15.791  0.00  0.00    +0.000 OA
ATOM      2  C   UNL     1      48.324   6.312  15.025  0.00  0.00    +0.000 C 
ATOM      3  N   UNL     1      47.225   6.193  14.216  0.00  0.00    +0.000 N 
ATOM      4  H   UNL     1      47.072   6.877  13.483  0.00  0.00    +0.000 HD
ENDROOT
BRANCH   2   5
ATOM      5  C   UNL     1      49.038   7.591  14.965  0.00  0.00    +0.000 A 
ATOM      6  C   UNL     1      49.164   8.361  16.114  0.00  0.00    +0.000 A 
ATOM      7  S   UNL     1      50.026   9.811  15.874  0.00  0.00    +0.000 S 
ATOM      8  C   UNL     1      50.300   9.441  14.235  0.00  0.00    +0.000 A 
ATOM      9  N   UNL     1      51.034  10.269  13.446  0.00  0.00    +0.000 NA
ATOM     10  C   UNL     1      51.202   9.842  12.238  0.00  0.00    +0.000 A 
ATOM     11  N   UNL     1      50.683   8.674  11.742  0.00  0.00    +0.000 N 
ATOM     12  C   UNL     1      49.861   7.856  12.477  0.00  0.00    +0.000 A 
ATOM     13  O   UNL     1      49.285   6.899  11.964  0.00  0.00    +0.000 OA
ATOM     14  C   UNL     1      49.702   8.249  13.865  0.00  0.00    +0.000 A 
ATOM     15  H   UNL     1      50.821   8.419  10.775  0.00  0.00    +0.000 HD
ENDBRANCH   2   5
BRANCH   3  16
ATOM     16  C   UNL     1      46.460   4.978  14.139  0.00  0.00    +0.000 C 
BRANCH  16  17
ATOM     17  C   UNL     1      45.923   4.758  12.757  0.00  0.00    +0.000 A 
ATOM     18  C   UNL     1      45.966   5.756  11.778  0.00  0.00    +0.000 A 
ATOM     19  C   UNL     1      45.512   5.481  10.492  0.00  0.00    +0.000 A 
ATOM     20  C   UNL     1      45.024   4.210  10.231  0.00  0.00    +0.000 A 
ATOM     21  N   UNL     1      44.886   3.252  11.174  0.00  0.00    +0.000 NA
ATOM     22  C   UNL     1      45.345   3.543  12.410  0.00  0.00    +0.000 A 
BRANCH  20  23
ATOM     23  O   UNL     1      44.688   3.914   8.915  0.00  0.00    +0.000 OA
BRANCH  23  24
ATOM     24  C   UNL     1      45.566   3.108   8.218  0.00  0.00    +0.000 A 
ATOM     25  C   UNL     1      46.319   3.709   7.209  0.00  0.00    +0.000 A 
ATOM     26  C   UNL     1      47.206   2.941   6.450  0.00  0.00    +0.000 A 
ATOM     27  C   UNL     1      47.345   1.575   6.705  0.00  0.00    +0.000 A 
ATOM     28  C   UNL     1      46.626   0.982   7.740  0.00  0.00    +0.000 A 
ATOM     29  C   UNL     1      45.755   1.752   8.510  0.00  0.00    +0.000 A 
ENDBRANCH  23  24
ENDBRANCH  20  23
ENDBRANCH  16  17
ENDBRANCH   3  16
TORSDOF 5
ENDMDL
MODEL 8
REMARK VINA RESULT:    -7.051      3.931      8.545
REMARK INTER + INTRA:          -9.904
REMARK INTER:                  -8.970
REMARK INTRA:                  -0.934
REMARK UNBOUND:                -0.792
REMARK  Name = 
REMARK  5 active torsions:
REMARK  status: ('A' for Active; 'I' for Inactive)
REMARK    1  A    between atoms: C_2  and  C_18
REMARK    2  A    between atoms: N_3  and  C_4
REMARK    3  A    between atoms: C_4  and  C_5
REMARK    4  A    between atoms: C_8  and  O_9
REMARK    5  A    between atoms: O_9  and  C_10
REMARK                            x       y       z     vdW  Elec       q    Type
REMARK                         _______ _______ _______ _____ _____    ______ ____
ROOT
ATOM      1  O   UNL     1      47.334   3.170  13.998  0.00  0.00    +0.000 OA
ATOM      2  C   UNL     1      46.830   4.182  14.476  0.00  0.00    +0.000 C 
ATOM      3  N   UNL     1      46.760   4.396  15.828  0.00  0.00    +0.000 N 
ATOM      4  H   UNL     1      46.188   5.157  16.180  0.00  0.00    +0.000 HD
ENDROOT
BRANCH   2   5
ATOM      5  C   UNL     1      46.314   5.256  13.622  0.00  0.00    +0.000 A 
ATOM      6  C   UNL     1      47.102   6.372  13.373  0.00  0.00    +0.000 A 
ATOM      7  S   UNL     1      46.358   7.520  12.357  0.00  0.00    +0.000 S 
ATOM      8  C   UNL     1      44.974   6.546  12.178  0.00  0.00    +0.000 A 
ATOM      9  N   UNL     1      43.946   6.934  11.378  0.00  0.00    +0.000 NA
ATOM     10  C   UNL     1      42.981   6.078  11.297  0.00  0.00    +0.000 A 
ATOM     11  N   UNL     1      42.942   4.880  11.963  0.00  0.00    +0.000 N 
ATOM     12  C   UNL     1      43.915   4.491  12.850  0.00  0.00    +0.000 A 
ATOM     13  O   UNL     1      43.781   3.489  13.548  0.00  0.00    +0.000 OA
ATOM     14  C   UNL     1      45.059   5.382  12.920  0.00  0.00    +0.000 A 
ATOM     15  H   UNL     1      42.139   4.274  11.885  0.00  0.00    +0.000 HD
ENDBRANCH   2   5
BRANCH   3  16
ATOM     16  C   UNL     1      47.185   3.408  16.782  0.00  0.00    +0.000 C 
BRANCH  16  17
ATOM     17  C   UNL     1      48.542   3.728  17.331  0.00  0.00    +0.000 A 
ATOM     18  C   UNL     1      49.616   2.837  17.216  0.00  0.00    +0.000 A 
ATOM     19  C   UNL     1      50.872   3.207  17.687  0.00  0.00    +0.000 A 
ATOM     20  C   UNL     1      51.009   4.461  18.263  0.00  0.00    +0.000 A 
ATOM     21  N   UNL     1      49.976   5.308  18.469  0.00  0.00    +0.000 NA
ATOM     22  C   UNL     1      48.772   4.928  17.992  0.00  0.00    +0.000 A 
BRANCH  20  23
ATOM     23  O   UNL     1      52.292   4.862  18.617  0.00  0.00    +0.000 OA
BRANCH  23  24
ATOM     24  C   UNL     1      53.122   5.261  17.589  0.00  0.00    +0.000 A 
ATOM     25  C   UNL     1      54.331   4.579  17.444  0.00  0.00    +0.000 A 
ATOM     26  C   UNL     1      55.225   4.953  16.438  0.00  0.00    +0.000 A 
ATOM     27  C   UNL     1      54.908   6.003  15.574  0.00  0.00    +0.000 A 
ATOM     28  C   UNL     1      53.684   6.657  15.690  0.00  0.00    +0.000 A 
ATOM     29  C   UNL     1      52.783   6.271  16.681  0.00  0.00    +0.000 A 
ENDBRANCH  23  24
ENDBRANCH  20  23
ENDBRANCH  16  17
ENDBRANCH   3  16
TORSDOF 5
ENDMDL
MODEL 9
REMARK VINA RESULT:    -6.826      3.703      7.984
REMARK INTER + INTRA:          -9.613
REMARK INTER:                  -8.598
REMARK INTRA:                  -1.015
REMARK UNBOUND:                -0.792
REMARK  Name = 
REMARK  5 active torsions:
REMARK  status: ('A' for Active; 'I' for Inactive)
REMARK    1  A    between atoms: C_2  and  C_18
REMARK    2  A    between atoms: N_3  and  C_4
REMARK    3  A    between atoms: C_4  and  C_5
REMARK    4  A    between atoms: C_8  and  O_9
REMARK    5  A    between atoms: O_9  and  C_10
REMARK                            x       y       z     vdW  Elec       q    Type
REMARK                         _______ _______ _______ _____ _____    ______ ____
ROOT
ATOM      1  O   UNL     1      48.694   6.972  12.497  0.00  0.00    +0.000 OA
ATOM      2  C   UNL     1      47.648   7.140  13.117  0.00  0.00    +0.000 C 
ATOM      3  N   UNL     1      47.591   7.873  14.273  0.00  0.00    +0.000 N 
ATOM      4  H   UNL     1      46.749   7.844  14.838  0.00  0.00    +0.000 HD
ENDROOT
BRANCH   2   5
ATOM      5  C   UNL     1      46.374   6.606  12.625  0.00  0.00    +0.000 A 
ATOM      6  C   UNL     1      45.469   7.455  12.002  0.00  0.00    +0.000 A 
ATOM      7  S   UNL     1      44.046   6.675  11.484  0.00  0.00    +0.000 S 
ATOM      8  C   UNL     1      44.607   5.166  12.035  0.00  0.00    +0.000 A 
ATOM      9  N   UNL     1      43.869   4.039  11.855  0.00  0.00    +0.000 NA
ATOM     10  C   UNL     1      44.435   2.958  12.279  0.00  0.00    +0.000 A 
ATOM     11  N   UNL     1      45.663   2.906  12.888  0.00  0.00    +0.000 N 
ATOM     12  C   UNL     1      46.399   4.029  13.171  0.00  0.00    +0.000 A 
ATOM     13  O   UNL     1      47.420   3.971  13.853  0.00  0.00    +0.000 OA
ATOM     14  C   UNL     1      45.843   5.264  12.647  0.00  0.00    +0.000 A 
ATOM     15  H   UNL     1      46.031   2.031  13.230  0.00  0.00    +0.000 HD
ENDBRANCH   2   5
BRANCH   3  16
ATOM     16  C   UNL     1      48.769   8.415  14.893  0.00  0.00    +0.000 C 
BRANCH  16  17
ATOM     17  C   UNL     1      49.415   7.418  15.807  0.00  0.00    +0.000 A 
ATOM     18  C   UNL     1      50.774   7.100  15.714  0.00  0.00    +0.000 A 
ATOM     19  C   UNL     1      51.339   6.214  16.627  0.00  0.00    +0.000 A 
ATOM     20  C   UNL     1      50.517   5.672  17.603  0.00  0.00    +0.000 A 
ATOM     21  N   UNL     1      49.185   5.888  17.665  0.00  0.00    +0.000 NA
ATOM     22  C   UNL     1      48.666   6.760  16.775  0.00  0.00    +0.000 A 
BRANCH  20  23
ATOM     23  O   UNL     1      51.119   4.885  18.578  0.00  0.00    +0.000 OA
BRANCH  23  24
ATOM     24  C   UNL     1      51.470   3.601  18.209  0.00  0.00    +0.000 A 
ATOM     25  C   UNL     1      52.760   3.176  18.529  0.00  0.00    +0.000 A 
ATOM     26  C   UNL     1      53.182   1.896  18.159  0.00  0.00    +0.000 A 
ATOM     27  C   UNL     1      52.314   1.042  17.476  0.00  0.00    +0.000 A 
ATOM     28  C   UNL     1      51.013   1.449  17.194  0.00  0.00    +0.000 A 
ATOM     29  C   UNL     1      50.584   2.718  17.580  0.00  0.00    +0.000 A 
ENDBRANCH  23  24
ENDBRANCH  20  23
ENDBRANCH  16  17
ENDBRANCH   3  16
TORSDOF 5
ENDMDL
