MODEL 1
REMARK VINA RESULT:    -8.438      0.000      0.000
REMARK INTER + INTRA:         -12.421
REMARK INTER:                 -11.892
REMARK INTRA:                  -0.529
REMARK UNBOUND:                -0.529
REMARK  Name = 
REMARK  8 active torsions:
REMARK  status: ('A' for Active; 'I' for Inactive)
REMARK    1  A    between atoms: C_1  and  C_2
REMARK    2  A    between atoms: C_2  and  O_3
REMARK    3  A    between atoms: O_3  and  C_4
REMARK    4  A    between atoms: C_8  and  C_9
REMARK    5  A    between atoms: C_9  and  C_10
REMARK    6  A    between atoms: C_10  and  N_11
REMARK    7  A    between atoms: N_11  and  C_12
REMARK    8  A    between atoms: C_15  and  C_16
REMARK                            x       y       z     vdW  Elec       q    Type
REMARK                         _______ _______ _______ _____ _____    ______ ____
ROOT
ATOM      1  C   UNL     1      43.239   4.316  11.358  0.00  0.00    +0.000 C 
ENDROOT
BRANCH   1   2
ATOM      2  N   UNL     1      43.769   4.812  10.079  0.00  0.00    +0.000 N 
ATOM      3  H   UNL     1      44.120   5.766  10.152  0.00  0.00    +0.000 HD
BRANCH   2   4
ATOM      4  C   UNL     1      44.665   3.992   9.378  0.00  0.00    +0.000 A 
ATOM      5  C   UNL     1      44.634   2.596   9.451  0.00  0.00    +0.000 A 
ATOM      6  C   UNL     1      45.508   1.808   8.694  0.00  0.00    +0.000 A 
ATOM      7  C   UNL     1      46.412   2.400   7.808  0.00  0.00    +0.000 A 
ATOM      8  C   UNL     1      46.430   3.795   7.690  0.00  0.00    +0.000 A 
ATOM      9  C   UNL     1      45.552   4.575   8.457  0.00  0.00    +0.000 A 
BRANCH   7  10
ATOM     10  C   UNL     1      47.311   1.511   7.034  0.00  0.00    +0.000 C 
ATOM     11  N   UNL     1      48.344   2.091   6.352  0.00  0.00    +0.000 N 
ATOM     12  O   UNL     1      47.118   0.303   6.965  0.00  0.00    +0.000 OA
ATOM     13  H   UNL     1      48.385   3.083   6.173  0.00  0.00    +0.000 HD
ATOM     14  H   UNL     1      48.856   1.479   5.731  0.00  0.00    +0.000 HD
ENDBRANCH   7  10
ENDBRANCH   2   4
ENDBRANCH   1   2
BRANCH   1  15
ATOM     15  C   UNL     1      43.451   5.356  12.466  0.00  0.00    +0.000 C 
BRANCH  15  20
ATOM     16  C   UNL     1      46.964   4.873  13.906  0.00  0.00    +0.000 A 
ATOM     17  C   UNL     1      47.648   5.920  13.295  0.00  0.00    +0.000 A 
ATOM     18  C   UNL     1      46.965   6.817  12.474  0.00  0.00    +0.000 A 
ATOM     19  C   UNL     1      45.602   6.653  12.231  0.00  0.00    +0.000 A 
ATOM     20  C   UNL     1      44.908   5.578  12.797  0.00  0.00    +0.000 A 
ATOM     21  C   UNL     1      45.596   4.704  13.654  0.00  0.00    +0.000 A 
BRANCH  16  22
ATOM     22  O   UNL     1      47.524   3.940  14.747  0.00  0.00    +0.000 OA
BRANCH  22  24
ATOM     23  C   UNL     1      48.512   5.608  16.253  0.00  0.00    +0.000 C 
ATOM     24  C   UNL     1      47.807   4.259  16.139  0.00  0.00    +0.000 C 
ATOM     25  C   UNL     1      46.740   3.921  17.209  0.00  0.00    +0.000 C 
ATOM     26  O   UNL     1      47.460   2.741  17.632  0.00  0.00    +0.000 OA
ATOM     27  C   UNL     1      48.616   3.155  16.867  0.00  0.00    +0.000 C 
ENDBRANCH  22  24
ENDBRANCH  16  22
ENDBRANCH  15  20
ENDBRANCH   1  15
TORSDOF 7
ENDMDL
MODEL 2
REMARK VINA RESULT:    -7.858      2.010      2.316
REMARK INTER + INTRA:         -11.604
REMARK INTER:                 -10.786
REMARK INTRA:                  -0.818
REMARK UNBOUND:                -0.529
REMARK  Name = 
REMARK  8 active torsions:
REMARK  status: ('A' for Active; 'I' for Inactive)
REMARK    1  A    between atoms: C_1  and  C_2
REMARK    2  A    between atoms: C_2  and  O_3
REMARK    3  A    between atoms: O_3  and  C_4
REMARK    4  A    between atoms: C_8  and  C_9
REMARK    5  A    between atoms: C_9  and  C_10
REMARK    6  A    between atoms: C_10  and  N_11
REMARK    7  A    between atoms: N_11  and  C_12
REMARK    8  A    between atoms: C_15  and  C_16
REMARK                            x       y       z     vdW  Elec       q    Type
REMARK                         _______ _______ _______ _____ _____    ______ ____
ROOT
ATOM      1  C   UNL     1      43.831   3.245  12.072  0.00  0.00    +0.000 C 
ENDROOT
BRANCH   1   2
ATOM      2  N   UNL     1      43.622   3.711  10.693  0.00  0.00    +0.000 N 
ATOM      3  H   UNL     1      43.396   4.704  10.652  0.00  0.00    +0.000 HD
BRANCH   2   4
ATOM      4  C   UNL     1      44.585   3.368   9.732  0.00  0.00    +0.000 A 
ATOM      5  C   UNL     1      44.900   2.045   9.410  0.00  0.00    +0.000 A 
ATOM      6  C   UNL     1      45.826   1.740   8.407  0.00  0.00    +0.000 A 
ATOM      7  C   UNL     1      46.433   2.758   7.666  0.00  0.00    +0.000 A 
ATOM      8  C   UNL     1      46.100   4.089   7.945  0.00  0.00    +0.000 A 
ATOM      9  C   UNL     1      45.173   4.383   8.957  0.00  0.00    +0.000 A 
BRANCH   7  10
ATOM     10  C   UNL     1      47.405   2.370   6.616  0.00  0.00    +0.000 C 
ATOM     11  N   UNL     1      47.339   3.024   5.419  0.00  0.00    +0.000 N 
ATOM     12  O   UNL     1      48.214   1.467   6.791  0.00  0.00    +0.000 OA
ATOM     13  H   UNL     1      46.541   3.579   5.148  0.00  0.00    +0.000 HD
ATOM     14  H   UNL     1      47.923   2.649   4.683  0.00  0.00    +0.000 HD
ENDBRANCH   7  10
ENDBRANCH   2   4
ENDBRANCH   1   2
BRANCH   1  15
ATOM     15  C   UNL     1      43.775   4.425  13.051  0.00  0.00    +0.000 C 
BRANCH  15  20
ATOM     16  C   UNL     1      47.090   6.334  12.956  0.00  0.00    +0.000 A 
ATOM     17  C   UNL     1      46.768   7.384  12.100  0.00  0.00    +0.000 A 
ATOM     18  C   UNL     1      45.470   7.512  11.607  0.00  0.00    +0.000 A 
ATOM     19  C   UNL     1      44.494   6.573  11.940  0.00  0.00    +0.000 A 
ATOM     20  C   UNL     1      44.811   5.484  12.760  0.00  0.00    +0.000 A 
ATOM     21  C   UNL     1      46.111   5.388  13.283  0.00  0.00    +0.000 A 
BRANCH  16  22
ATOM     22  O   UNL     1      48.327   6.116  13.517  0.00  0.00    +0.000 OA
BRANCH  22  24
ATOM     23  C   UNL     1      50.082   7.816  13.280  0.00  0.00    +0.000 C 
ATOM     24  C   UNL     1      49.040   7.185  14.200  0.00  0.00    +0.000 C 
ATOM     25  C   UNL     1      48.242   8.136  15.127  0.00  0.00    +0.000 C 
ATOM     26  O   UNL     1      48.707   7.455  16.315  0.00  0.00    +0.000 OA
ATOM     27  C   UNL     1      49.688   6.734  15.534  0.00  0.00    +0.000 C 
ENDBRANCH  22  24
ENDBRANCH  16  22
ENDBRANCH  15  20
ENDBRANCH   1  15
TORSDOF 7
ENDMDL
MODEL 3
REMARK VINA RESULT:    -7.800      2.448      3.993
REMARK INTER + INTRA:         -11.521
REMARK INTER:                 -10.730
REMARK INTRA:                  -0.791
REMARK UNBOUND:                -0.529
REMARK  Name = 
REMARK  8 active torsions:
REMARK  status: ('A' for Active; 'I' for Inactive)
REMARK    1  A    between atoms: C_1  and  C_2
REMARK    2  A    between atoms: C_2  and  O_3
REMARK    3  A    between atoms: O_3  and  C_4
REMARK    4  A    between atoms: C_8  and  C_9
REMARK    5  A    between atoms: C_9  and  C_10
REMARK    6  A    between atoms: C_10  and  N_11
REMARK    7  A    between atoms: N_11  and  C_12
REMARK    8  A    between atoms: C_15  and  C_16
REMARK                            x       y       z     vdW  Elec       q    Type
REMARK                         _______ _______ _______ _____ _____    ______ ____
ROOT
ATOM      1  C   UNL     1      43.492   4.887  11.159  0.00  0.00    +0.000 C 
ENDROOT
BRANCH   1   2
ATOM      2  N   UNL     1      43.763   5.025   9.719  0.00  0.00    +0.000 N 
ATOM      3  H   UNL     1      44.083   5.961   9.476  0.00  0.00    +0.000 HD
BRANCH   2   4
ATOM      4  C   UNL     1      44.550   4.042   9.103  0.00  0.00    +0.000 A 
ATOM      5  C   UNL     1      45.566   4.342   8.191  0.00  0.00    +0.000 A 
ATOM      6  C   UNL     1      46.369   3.339   7.638  0.00  0.00    +0.000 A 
ATOM      7  C   UNL     1      46.200   2.004   8.016  0.00  0.00    +0.000 A 
ATOM      8  C   UNL     1      45.215   1.687   8.959  0.00  0.00    +0.000 A 
ATOM      9  C   UNL     1      44.413   2.702   9.505  0.00  0.00    +0.000 A 
BRANCH   7  10
ATOM     10  C   UNL     1      47.082   0.988   7.394  0.00  0.00    +0.000 C 
ATOM     11  N   UNL     1      46.796  -0.328   7.629  0.00  0.00    +0.000 N 
ATOM     12  O   UNL     1      48.060   1.305   6.729  0.00  0.00    +0.000 OA
ATOM     13  H   UNL     1      46.173  -0.624   8.365  0.00  0.00    +0.000 HD
ATOM     14  H   UNL     1      47.488  -0.990   7.303  0.00  0.00    +0.000 HD
ENDBRANCH   7  10
ENDBRANCH   2   4
ENDBRANCH   1   2
BRANCH   1  15
ATOM     15  C   UNL     1      43.873   6.174  11.901  0.00  0.00    +0.000 C 
BRANCH  15  20
ATOM     16  C   UNL     1      47.253   7.191  13.378  0.00  0.00    +0.000 A 
ATOM     17  C   UNL     1      47.694   5.976  13.895  0.00  0.00    +0.000 A 
ATOM     18  C   UNL     1      46.935   4.821  13.712  0.00  0.00    +0.000 A 
ATOM     19  C   UNL     1      45.714   4.879  13.039  0.00  0.00    +0.000 A 
ATOM     20  C   UNL     1      45.232   6.100  12.555  0.00  0.00    +0.000 A 
ATOM     21  C   UNL     1      46.024   7.249  12.710  0.00  0.00    +0.000 A 
BRANCH  16  22
ATOM     22  O   UNL     1      47.923   8.388  13.480  0.00  0.00    +0.000 OA
BRANCH  22  24
ATOM     23  C   UNL     1      49.226   7.793  11.486  0.00  0.00    +0.000 C 
ATOM     24  C   UNL     1      48.681   8.922  12.359  0.00  0.00    +0.000 C 
ATOM     25  C   UNL     1      48.150  10.185  11.638  0.00  0.00    +0.000 C 
ATOM     26  O   UNL     1      49.100  11.038  12.316  0.00  0.00    +0.000 OA
ATOM     27  C   UNL     1      49.822   9.878  12.791  0.00  0.00    +0.000 C 
ENDBRANCH  22  24
ENDBRANCH  16  22
ENDBRANCH  15  20
ENDBRANCH   1  15
TORSDOF 7
ENDMDL
MODEL 4
REMARK VINA RESULT:    -7.612      2.007      3.095
REMARK INTER + INTRA:         -11.257
REMARK INTER:                 -10.541
REMARK INTRA:                  -0.715
REMARK UNBOUND:                -0.529
REMARK  Name = 
REMARK  8 active torsions:
REMARK  status: ('A' for Active; 'I' for Inactive)
REMARK    1  A    between atoms: C_1  and  C_2
REMARK    2  A    between atoms: C_2  and  O_3
REMARK    3  A    between atoms: O_3  and  C_4
REMARK    4  A    between atoms: C_8  and  C_9
REMARK    5  A    between atoms: C_9  and  C_10
REMARK    6  A    between atoms: C_10  and  N_11
REMARK    7  A    between atoms: N_11  and  C_12
REMARK    8  A    between atoms: C_15  and  C_16
REMARK                            x       y       z     vdW  Elec       q    Type
REMARK                         _______ _______ _______ _____ _____    ______ ____
ROOT
ATOM      1  C   UNL     1      43.746   5.176  11.169  0.00  0.00    +0.000 C 
ENDROOT
BRANCH   1   2
ATOM      2  N   UNL     1      43.657   4.929   9.721  0.00  0.00    +0.000 N 
ATOM      3  H   UNL     1      43.591   5.793   9.186  0.00  0.00    +0.000 HD
BRANCH   2   4
ATOM      4  C   UNL     1      44.584   4.045   9.149  0.00  0.00    +0.000 A 
ATOM      5  C   UNL     1      44.525   2.660   9.329  0.00  0.00    +0.000 A 
ATOM      6  C   UNL     1      45.433   1.804   8.697  0.00  0.00    +0.000 A 
ATOM      7  C   UNL     1      46.405   2.313   7.831  0.00  0.00    +0.000 A 
ATOM      8  C   UNL     1      46.455   3.693   7.605  0.00  0.00    +0.000 A 
ATOM      9  C   UNL     1      45.540   4.543   8.248  0.00  0.00    +0.000 A 
BRANCH   7  10
ATOM     10  C   UNL     1      47.338   1.355   7.192  0.00  0.00    +0.000 C 
ATOM     11  N   UNL     1      48.381   1.868   6.473  0.00  0.00    +0.000 N 
ATOM     12  O   UNL     1      47.165   0.144   7.262  0.00  0.00    +0.000 OA
ATOM     13  H   UNL     1      48.412   2.832   6.178  0.00  0.00    +0.000 HD
ATOM     14  H   UNL     1      48.919   1.196   5.942  0.00  0.00    +0.000 HD
ENDBRANCH   7  10
ENDBRANCH   2   4
ENDBRANCH   1   2
BRANCH   1  15
ATOM     15  C   UNL     1      44.751   6.299  11.459  0.00  0.00    +0.000 C 
BRANCH  15  20
ATOM     16  C   UNL     1      48.071   6.136  13.355  0.00  0.00    +0.000 A 
ATOM     17  C   UNL     1      47.752   5.243  14.374  0.00  0.00    +0.000 A 
ATOM     18  C   UNL     1      46.492   4.647  14.413  0.00  0.00    +0.000 A 
ATOM     19  C   UNL     1      45.532   4.964  13.452  0.00  0.00    +0.000 A 
ATOM     20  C   UNL     1      45.818   5.896  12.448  0.00  0.00    +0.000 A 
ATOM     21  C   UNL     1      47.103   6.460  12.396  0.00  0.00    +0.000 A 
BRANCH  16  22
ATOM     22  O   UNL     1      49.282   6.770  13.204  0.00  0.00    +0.000 OA
BRANCH  22  24
ATOM     23  C   UNL     1      50.730   7.749  14.927  0.00  0.00    +0.000 C 
ATOM     24  C   UNL     1      49.590   7.987  13.941  0.00  0.00    +0.000 C 
ATOM     25  C   UNL     1      49.575   9.338  13.183  0.00  0.00    +0.000 C 
ATOM     26  O   UNL     1      48.277   9.684  13.716  0.00  0.00    +0.000 OA
ATOM     27  C   UNL     1      48.359   8.594  14.662  0.00  0.00    +0.000 C 
ENDBRANCH  22  24
ENDBRANCH  16  22
ENDBRANCH  15  20
ENDBRANCH   1  15
TORSDOF 7
ENDMDL
MODEL 5
REMARK VINA RESULT:    -7.389      1.577      1.941
REMARK INTER + INTRA:         -10.942
REMARK INTER:                 -10.405
REMARK INTRA:                  -0.537
REMARK UNBOUND:                -0.529
REMARK  Name = 
REMARK  8 active torsions:
REMARK  status: ('A' for Active; 'I' for Inactive)
REMARK    1  A    between atoms: C_1  and  C_2
REMARK    2  A    between atoms: C_2  and  O_3
REMARK    3  A    between atoms: O_3  and  C_4
REMARK    4  A    between atoms: C_8  and  C_9
REMARK    5  A    between atoms: C_9  and  C_10
REMARK    6  A    between atoms: C_10  and  N_11
REMARK    7  A    between atoms: N_11  and  C_12
REMARK    8  A    between atoms: C_15  and  C_16
REMARK                            x       y       z     vdW  Elec       q    Type
REMARK                         _______ _______ _______ _____ _____    ______ ____
ROOT
ATOM      1  C   UNL     1      44.647   5.303  11.471  0.00  0.00    +0.000 C 
ENDROOT
BRANCH   1   2
ATOM      2  N   UNL     1      44.181   4.960  10.119  0.00  0.00    +0.000 N 
ATOM      3  H   UNL     1      43.860   5.778   9.603  0.00  0.00    +0.000 HD
BRANCH   2   4
ATOM      4  C   UNL     1      45.009   4.151   9.326  0.00  0.00    +0.000 A 
ATOM      5  C   UNL     1      44.938   2.754   9.332  0.00  0.00    +0.000 A 
ATOM      6  C   UNL     1      45.740   1.981   8.486  0.00  0.00    +0.000 A 
ATOM      7  C   UNL     1      46.610   2.590   7.578  0.00  0.00    +0.000 A 
ATOM      8  C   UNL     1      46.666   3.988   7.528  0.00  0.00    +0.000 A 
ATOM      9  C   UNL     1      45.859   4.754   8.384  0.00  0.00    +0.000 A 
BRANCH   7  10
ATOM     10  C   UNL     1      47.434   1.716   6.709  0.00  0.00    +0.000 C 
ATOM     11  N   UNL     1      48.405   2.309   5.952  0.00  0.00    +0.000 N 
ATOM     12  O   UNL     1      47.231   0.511   6.633  0.00  0.00    +0.000 OA
ATOM     13  H   UNL     1      48.433   3.304   5.790  0.00  0.00    +0.000 HD
ATOM     14  H   UNL     1      48.858   1.709   5.274  0.00  0.00    +0.000 HD
ENDBRANCH   7  10
ENDBRANCH   2   4
ENDBRANCH   1   2
BRANCH   1  15
ATOM     15  C   UNL     1      45.125   6.760  11.519  0.00  0.00    +0.000 C 
BRANCH  15  20
ATOM     16  C   UNL     1      48.248   6.416  13.705  0.00  0.00    +0.000 A 
ATOM     17  C   UNL     1      49.199   7.051  12.911  0.00  0.00    +0.000 A 
ATOM     18  C   UNL     1      48.823   7.645  11.706  0.00  0.00    +0.000 A 
ATOM     19  C   UNL     1      47.499   7.578  11.272  0.00  0.00    +0.000 A 
ATOM     20  C   UNL     1      46.539   6.902  12.032  0.00  0.00    +0.000 A 
ATOM     21  C   UNL     1      46.921   6.343  13.262  0.00  0.00    +0.000 A 
BRANCH  16  22
ATOM     22  O   UNL     1      48.497   5.814  14.916  0.00  0.00    +0.000 OA
BRANCH  22  24
ATOM     23  C   UNL     1      48.600   8.086  15.840  0.00  0.00    +0.000 C 
ATOM     24  C   UNL     1      48.860   6.601  16.085  0.00  0.00    +0.000 C 
ATOM     25  C   UNL     1      48.525   6.042  17.489  0.00  0.00    +0.000 C 
ATOM     26  O   UNL     1      49.889   5.618  17.706  0.00  0.00    +0.000 OA
ATOM     27  C   UNL     1      50.321   6.370  16.548  0.00  0.00    +0.000 C 
ENDBRANCH  22  24
ENDBRANCH  16  22
ENDBRANCH  15  20
ENDBRANCH   1  15
TORSDOF 7
ENDMDL
MODEL 6
REMARK VINA RESULT:    -7.331      2.206      3.196
REMARK INTER + INTRA:         -10.860
REMARK INTER:                 -10.388
REMARK INTRA:                  -0.472
REMARK UNBOUND:                -0.529
REMARK  Name = 
REMARK  8 active torsions:
REMARK  status: ('A' for Active; 'I' for Inactive)
REMARK    1  A    between atoms: C_1  and  C_2
REMARK    2  A    between atoms: C_2  and  O_3
REMARK    3  A    between atoms: O_3  and  C_4
REMARK    4  A    between atoms: C_8  and  C_9
REMARK    5  A    between atoms: C_9  and  C_10
REMARK    6  A    between atoms: C_10  and  N_11
REMARK    7  A    between atoms: N_11  and  C_12
REMARK    8  A    between atoms: C_15  and  C_16
REMARK                            x       y       z     vdW  Elec       q    Type
REMARK                         _______ _______ _______ _____ _____    ______ ____
ROOT
ATOM      1  C   UNL     1      44.199   4.925  11.527  0.00  0.00    +0.000 C 
ENDROOT
BRANCH   1   2
ATOM      2  N   UNL     1      43.767   3.860  10.609  0.00  0.00    +0.000 N 
ATOM      3  H   UNL     1      42.821   4.010  10.263  0.00  0.00    +0.000 HD
BRANCH   2   4
ATOM      4  C   UNL     1      44.638   3.496   9.571  0.00  0.00    +0.000 A 
ATOM      5  C   UNL     1      45.326   4.431   8.793  0.00  0.00    +0.000 A 
ATOM      6  C   UNL     1      46.229   4.031   7.803  0.00  0.00    +0.000 A 
ATOM      7  C   UNL     1      46.499   2.676   7.592  0.00  0.00    +0.000 A 
ATOM      8  C   UNL     1      45.851   1.725   8.389  0.00  0.00    +0.000 A 
ATOM      9  C   UNL     1      44.944   2.138   9.377  0.00  0.00    +0.000 A 
BRANCH   7  10
ATOM     10  C   UNL     1      47.466   2.316   6.528  0.00  0.00    +0.000 C 
ATOM     11  N   UNL     1      47.407   3.013   5.354  0.00  0.00    +0.000 N 
ATOM     12  O   UNL     1      48.265   1.398   6.669  0.00  0.00    +0.000 OA
ATOM     13  H   UNL     1      46.614   3.585   5.104  0.00  0.00    +0.000 HD
ATOM     14  H   UNL     1      47.986   2.658   4.604  0.00  0.00    +0.000 HD
ENDBRANCH   7  10
ENDBRANCH   2   4
ENDBRANCH   1   2
BRANCH   1  15
ATOM     15  C   UNL     1      43.392   6.206  11.278  0.00  0.00    +0.000 C 
BRANCH  15  20
ATOM     16  C   UNL     1      45.982   8.588  12.781  0.00  0.00    +0.000 A 
ATOM     17  C   UNL     1      45.664   9.775  12.126  0.00  0.00    +0.000 A 
ATOM     18  C   UNL     1      44.578   9.822  11.253  0.00  0.00    +0.000 A 
ATOM     19  C   UNL     1      43.824   8.676  11.003  0.00  0.00    +0.000 A 
ATOM     20  C   UNL     1      44.159   7.462  11.614  0.00  0.00    +0.000 A 
ATOM     21  C   UNL     1      45.229   7.436  12.523  0.00  0.00    +0.000 A 
BRANCH  16  22
ATOM     22  O   UNL     1      47.015   8.426  13.675  0.00  0.00    +0.000 OA
BRANCH  22  24
ATOM     23  C   UNL     1      48.777   8.167  11.986  0.00  0.00    +0.000 C 
ATOM     24  C   UNL     1      48.209   7.675  13.315  0.00  0.00    +0.000 C 
ATOM     25  C   UNL     1      49.220   7.310  14.429  0.00  0.00    +0.000 C 
ATOM     26  O   UNL     1      48.735   5.951  14.500  0.00  0.00    +0.000 OA
ATOM     27  C   UNL     1      47.981   6.142  13.280  0.00  0.00    +0.000 C 
ENDBRANCH  22  24
ENDBRANCH  16  22
ENDBRANCH  15  20
ENDBRANCH   1  15
TORSDOF 7
ENDMDL
MODEL 7
REMARK VINA RESULT:    -6.614      2.782      4.200
REMARK INTER + INTRA:          -9.850
REMARK INTER:                  -8.748
REMARK INTRA:                  -1.102
REMARK UNBOUND:                -0.529
REMARK  Name = 
REMARK  8 active torsions:
REMARK  status: ('A' for Active; 'I' for Inactive)
REMARK    1  A    between atoms: C_1  and  C_2
REMARK    2  A    between atoms: C_2  and  O_3
REMARK    3  A    between atoms: O_3  and  C_4
REMARK    4  A    between atoms: C_8  and  C_9
REMARK    5  A    between atoms: C_9  and  C_10
REMARK    6  A    between atoms: C_10  and  N_11
REMARK    7  A    between atoms: N_11  and  C_12
REMARK    8  A    between atoms: C_15  and  C_16
REMARK                            x       y       z     vdW  Elec       q    Type
REMARK                         _______ _______ _______ _____ _____    ______ ____
ROOT
ATOM      1  C   UNL     1      46.718   8.609  12.530  0.00  0.00    +0.000 C 
ENDROOT
BRANCH   1   2
ATOM      2  N   UNL     1      45.658   7.854  13.215  0.00  0.00    +0.000 N 
ATOM      3  H   UNL     1      44.839   8.429  13.409  0.00  0.00    +0.000 HD
BRANCH   2   4
ATOM      4  C   UNL     1      45.291   6.609  12.684  0.00  0.00    +0.000 A 
ATOM      5  C   UNL     1      45.059   5.482  13.478  0.00  0.00    +0.000 A 
ATOM      6  C   UNL     1      44.640   4.270  12.918  0.00  0.00    +0.000 A 
ATOM      7  C   UNL     1      44.401   4.167  11.545  0.00  0.00    +0.000 A 
ATOM      8  C   UNL     1      44.587   5.295  10.738  0.00  0.00    +0.000 A 
ATOM      9  C   UNL     1      45.012   6.505  11.310  0.00  0.00    +0.000 A 
BRANCH   7  10
ATOM     10  C   UNL     1      43.958   2.856  11.012  0.00  0.00    +0.000 C 
ATOM     11  N   UNL     1      44.632   2.347   9.938  0.00  0.00    +0.000 N 
ATOM     12  O   UNL     1      42.995   2.263  11.483  0.00  0.00    +0.000 OA
ATOM     13  H   UNL     1      45.247   2.910   9.369  0.00  0.00    +0.000 HD
ATOM     14  H   UNL     1      44.225   1.522   9.517  0.00  0.00    +0.000 HD
ENDBRANCH   7  10
ENDBRANCH   2   4
ENDBRANCH   1   2
BRANCH   1  15
ATOM     15  C   UNL     1      48.089   7.978  12.808  0.00  0.00    +0.000 C 
BRANCH  15  20
ATOM     16  C   UNL     1      48.996   6.344  16.148  0.00  0.00    +0.000 A 
ATOM     17  C   UNL     1      49.000   7.451  16.993  0.00  0.00    +0.000 A 
ATOM     18  C   UNL     1      48.648   8.708  16.502  0.00  0.00    +0.000 A 
ATOM     19  C   UNL     1      48.323   8.872  15.156  0.00  0.00    +0.000 A 
ATOM     20  C   UNL     1      48.361   7.781  14.281  0.00  0.00    +0.000 A 
ATOM     21  C   UNL     1      48.678   6.513  14.795  0.00  0.00    +0.000 A 
BRANCH  16  22
ATOM     22  O   UNL     1      49.306   5.058  16.521  0.00  0.00    +0.000 OA
BRANCH  22  24
ATOM     23  C   UNL     1      49.340   4.290  18.853  0.00  0.00    +0.000 C 
ATOM     24  C   UNL     1      48.543   4.371  17.553  0.00  0.00    +0.000 C 
ATOM     25  C   UNL     1      47.025   4.655  17.667  0.00  0.00    +0.000 C 
ATOM     26  O   UNL     1      46.689   3.419  16.997  0.00  0.00    +0.000 OA
ATOM     27  C   UNL     1      48.056   2.964  17.120  0.00  0.00    +0.000 C 
ENDBRANCH  22  24
ENDBRANCH  16  22
ENDBRANCH  15  20
ENDBRANCH   1  15
TORSDOF 7
ENDMDL
MODEL 8
REMARK VINA RESULT:    -6.134      2.790      4.740
REMARK INTER + INTRA:          -9.173
REMARK INTER:                  -8.879
REMARK INTRA:                  -0.294
REMARK UNBOUND:                -0.529
REMARK  Name = 
REMARK  8 active torsions:
REMARK  status: ('A' for Active; 'I' for Inactive)
REMARK    1  A    between atoms: C_1  and  C_2
REMARK    2  A    between atoms: C_2  and  O_3
REMARK    3  A    between atoms: O_3  and  C_4
REMARK    4  A    between atoms: C_8  and  C_9
REMARK    5  A    between atoms: C_9  and  C_10
REMARK    6  A    between atoms: C_10  and  N_11
REMARK    7  A    between atoms: N_11  and  C_12
REMARK    8  A    between atoms: C_15  and  C_16
REMARK                            x       y       z     vdW  Elec       q    Type
REMARK                         _______ _______ _______ _____ _____    ______ ____
ROOT
ATOM      1  C   UNL     1      48.450   7.115  13.437  0.00  0.00    +0.000 C 
ENDROOT
BRANCH   1   2
ATOM      2  N   UNL     1      47.020   7.283  13.135  0.00  0.00    +0.000 N 
ATOM      3  H   UNL     1      46.837   8.125  12.592  0.00  0.00    +0.000 HD
BRANCH   2   4
ATOM      4  C   UNL     1      46.326   6.181  12.613  0.00  0.00    +0.000 A 
ATOM      5  C   UNL     1      46.159   4.984  13.317  0.00  0.00    +0.000 A 
ATOM      6  C   UNL     1      45.413   3.926  12.787  0.00  0.00    +0.000 A 
ATOM      7  C   UNL     1      44.778   4.053  11.549  0.00  0.00    +0.000 A 
ATOM      8  C   UNL     1      44.899   5.259  10.846  0.00  0.00    +0.000 A 
ATOM      9  C   UNL     1      45.653   6.312  11.386  0.00  0.00    +0.000 A 
BRANCH   7  10
ATOM     10  C   UNL     1      44.002   2.896  11.042  0.00  0.00    +0.000 C 
ATOM     11  N   UNL     1      44.488   2.237   9.948  0.00  0.00    +0.000 N 
ATOM     12  O   UNL     1      42.940   2.562  11.551  0.00  0.00    +0.000 OA
ATOM     13  H   UNL     1      45.203   2.629   9.353  0.00  0.00    +0.000 HD
ATOM     14  H   UNL     1      43.873   1.541   9.548  0.00  0.00    +0.000 HD
ENDBRANCH   7  10
ENDBRANCH   2   4
ENDBRANCH   1   2
BRANCH   1  15
ATOM     15  C   UNL     1      48.813   7.854  14.731  0.00  0.00    +0.000 C 
BRANCH  15  20
ATOM     16  C   UNL     1      49.975   5.252  17.286  0.00  0.00    +0.000 A 
ATOM     17  C   UNL     1      51.354   5.441  17.249  0.00  0.00    +0.000 A 
ATOM     18  C   UNL     1      51.902   6.446  16.452  0.00  0.00    +0.000 A 
ATOM     19  C   UNL     1      51.078   7.247  15.662  0.00  0.00    +0.000 A 
ATOM     20  C   UNL     1      49.694   7.040  15.650  0.00  0.00    +0.000 A 
ATOM     21  C   UNL     1      49.150   6.052  16.486  0.00  0.00    +0.000 A 
BRANCH  16  22
ATOM     22  O   UNL     1      49.322   4.309  18.045  0.00  0.00    +0.000 OA
BRANCH  22  24
ATOM     23  C   UNL     1      49.739   2.144  16.966  0.00  0.00    +0.000 C 
ATOM     24  C   UNL     1      48.690   3.154  17.425  0.00  0.00    +0.000 C 
ATOM     25  C   UNL     1      47.390   2.593  18.053  0.00  0.00    +0.000 C 
ATOM     26  O   UNL     1      46.568   3.224  17.046  0.00  0.00    +0.000 OA
ATOM     27  C   UNL     1      47.741   3.528  16.258  0.00  0.00    +0.000 C 
ENDBRANCH  22  24
ENDBRANCH  16  22
ENDBRANCH  15  20
ENDBRANCH   1  15
TORSDOF 7
ENDMDL
MODEL 9
REMARK VINA RESULT:    -5.695      4.106      8.170
REMARK INTER + INTRA:          -8.555
REMARK INTER:                  -8.150
REMARK INTRA:                  -0.405
REMARK UNBOUND:                -0.529
REMARK  Name = 
REMARK  8 active torsions:
REMARK  status: ('A' for Active; 'I' for Inactive)
REMARK    1  A    between atoms: C_1  and  C_2
REMARK    2  A    between atoms: C_2  and  O_3
REMARK    3  A    between atoms: O_3  and  C_4
REMARK    4  A    between atoms: C_8  and  C_9
REMARK    5  A    between atoms: C_9  and  C_10
REMARK    6  A    between atoms: C_10  and  N_11
REMARK    7  A    between atoms: N_11  and  C_12
REMARK    8  A    between atoms: C_15  and  C_16
REMARK                            x       y       z     vdW  Elec       q    Type
REMARK                         _______ _______ _______ _____ _____    ______ ____
ROOT
ATOM      1  C   UNL     1      48.082   5.941  15.211  0.00  0.00    +0.000 C 
ENDROOT
BRANCH   1   2
ATOM      2  N   UNL     1      48.841   6.334  16.408  0.00  0.00    +0.000 N 
ATOM      3  H   UNL     1      48.242   6.727  17.132  0.00  0.00    +0.000 HD
BRANCH   2   4
ATOM      4  C   UNL     1      49.745   5.406  16.945  0.00  0.00    +0.000 A 
ATOM      5  C   UNL     1      49.375   4.109  17.314  0.00  0.00    +0.000 A 
ATOM      6  C   UNL     1      50.316   3.191  17.794  0.00  0.00    +0.000 A 
ATOM      7  C   UNL     1      51.667   3.538  17.880  0.00  0.00    +0.000 A 
ATOM      8  C   UNL     1      52.065   4.818  17.477  0.00  0.00    +0.000 A 
ATOM      9  C   UNL     1      51.111   5.731  17.000  0.00  0.00    +0.000 A 
BRANCH   7  10
ATOM     10  C   UNL     1      52.614   2.522  18.397  0.00  0.00    +0.000 C 
ATOM     11  N   UNL     1      52.348   1.209  18.125  0.00  0.00    +0.000 N 
ATOM     12  O   UNL     1      53.581   2.834  19.082  0.00  0.00    +0.000 OA
ATOM     13  H   UNL     1      51.447   0.897  17.798  0.00  0.00    +0.000 HD
ATOM     14  H   UNL     1      52.935   0.536  18.601  0.00  0.00    +0.000 HD
ENDBRANCH   7  10
ENDBRANCH   2   4
ENDBRANCH   1   2
BRANCH   1  15
ATOM     15  C   UNL     1      48.427   6.861  14.033  0.00  0.00    +0.000 C 
BRANCH  15  20
ATOM     16  C   UNL     1      45.449   6.623  11.640  0.00  0.00    +0.000 A 
ATOM     17  C   UNL     1      44.902   7.897  11.769  0.00  0.00    +0.000 A 
ATOM     18  C   UNL     1      45.528   8.850  12.573  0.00  0.00    +0.000 A 
ATOM     19  C   UNL     1      46.685   8.524  13.280  0.00  0.00    +0.000 A 
ATOM     20  C   UNL     1      47.222   7.234  13.202  0.00  0.00    +0.000 A 
ATOM     21  C   UNL     1      46.607   6.296  12.358  0.00  0.00    +0.000 A 
BRANCH  16  22
ATOM     22  O   UNL     1      44.933   5.612  10.865  0.00  0.00    +0.000 OA
BRANCH  22  24
ATOM     23  C   UNL     1      43.992   3.364  10.567  0.00  0.00    +0.000 C 
ATOM     24  C   UNL     1      44.021   4.626  11.426  0.00  0.00    +0.000 C 
ATOM     25  C   UNL     1      43.982   4.441  12.963  0.00  0.00    +0.000 C 
ATOM     26  O   UNL     1      42.766   5.212  13.080  0.00  0.00    +0.000 OA
ATOM     27  C   UNL     1      42.588   5.174  11.645  0.00  0.00    +0.000 C 
ENDBRANCH  22  24
ENDBRANCH  16  22
ENDBRANCH  15  20
ENDBRANCH   1  15
TORSDOF 7
ENDMDL
