MODEL 1
REMARK VINA RESULT:    -7.932      0.000      0.000
REMARK INTER + INTRA:         -10.332
REMARK INTER:                  -9.787
REMARK INTRA:                  -0.545
REMARK UNBOUND:                -0.545
REMARK  Name = 
REMARK  6 active torsions:
REMARK  status: ('A' for Active; 'I' for Inactive)
REMARK    1  A    between atoms: C_1  and  C_2
REMARK    2  A    between atoms: C_5  and  C_6
REMARK    3  A    between atoms: C_6  and  C_7
REMARK    4  A    between atoms: C_6  and  N_8
REMARK    5  A    between atoms: N_8  and  C_9
REMARK    6  A    between atoms: C_12  and  C_13
REMARK                            x       y       z     vdW  Elec       q    Type
REMARK                         _______ _______ _______ _____ _____    ______ ____
ROOT
ATOM      1  C   UNL     1      44.682   4.159   9.249  0.00  0.00    +0.000 A 
ATOM      2  N   UNL     1      45.491   4.736   8.320  0.00  0.00    +0.000 NA
ATOM      3  C   UNL     1      46.370   3.960   7.628  0.00  0.00    +0.000 A 
ATOM      4  C   UNL     1      46.506   2.599   7.808  0.00  0.00    +0.000 A 
ATOM      5  C   UNL     1      45.693   2.013   8.773  0.00  0.00    +0.000 A 
ATOM      6  C   UNL     1      44.778   2.783   9.504  0.00  0.00    +0.000 A 
ATOM      7 CL   UNL     1      43.810   1.904  10.629  0.00  0.00    +0.000 Cl
ENDROOT
BRANCH   4   8
ATOM      8  C   UNL     1      47.430   1.739   7.031  0.00  0.00    +0.000 C 
ATOM      9  N   UNL     1      48.509   2.303   6.414  0.00  0.00    +0.000 N 
ATOM     10  O   UNL     1      47.243   0.531   6.947  0.00  0.00    +0.000 OA
ATOM     11  H   UNL     1      48.805   3.265   6.502  0.00  0.00    +0.000 HD
ATOM     12  H   UNL     1      49.129   1.671   5.925  0.00  0.00    +0.000 HD
ENDBRANCH   4   8
BRANCH   1  13
ATOM     13  N   UNL     1      43.784   5.057   9.757  0.00  0.00    +0.000 N 
ATOM     14  H   UNL     1      43.565   5.731   9.028  0.00  0.00    +0.000 HD
BRANCH  13  15
ATOM     15  C   UNL     1      43.681   5.585  11.108  0.00  0.00    +0.000 C 
ATOM     16  C   UNL     1      42.877   4.638  11.999  0.00  0.00    +0.000 C 
BRANCH  15  21
ATOM     17  C   UNL     1      48.881   6.680  13.543  0.00  0.00    +0.000 C 
ATOM     18  C   UNL     1      47.608   6.330  12.832  0.00  0.00    +0.000 A 
ATOM     19  C   UNL     1      46.843   5.230  13.233  0.00  0.00    +0.000 A 
ATOM     20  C   UNL     1      45.599   4.979  12.646  0.00  0.00    +0.000 A 
ATOM     21  C   UNL     1      45.088   5.821  11.645  0.00  0.00    +0.000 A 
ATOM     22  C   UNL     1      45.884   6.895  11.214  0.00  0.00    +0.000 A 
ATOM     23  C   UNL     1      47.127   7.148  11.805  0.00  0.00    +0.000 A 
ENDBRANCH  15  21
ENDBRANCH  13  15
ENDBRANCH   1  13
TORSDOF 4
ENDMDL
MODEL 2
REMARK VINA RESULT:    -7.142      3.820      6.581
REMARK INTER + INTRA:          -9.357
REMARK INTER:                  -8.869
REMARK INTRA:                  -0.488
REMARK UNBOUND:                -0.545
REMARK  Name = 
REMARK  6 active torsions:
REMARK  status: ('A' for Active; 'I' for Inactive)
REMARK    1  A    between atoms: C_1  and  C_2
REMARK    2  A    between atoms: C_5  and  C_6
REMARK    3  A    between atoms: C_6  and  C_7
REMARK    4  A    between atoms: C_6  and  N_8
REMARK    5  A    between atoms: N_8  and  C_9
REMARK    6  A    between atoms: C_12  and  C_13
REMARK                            x       y       z     vdW  Elec       q    Type
REMARK                         _______ _______ _______ _____ _____    ______ ____
ROOT
ATOM      1  C   UNL     1      46.274   5.403  12.654  0.00  0.00    +0.000 A 
ATOM      2  N   UNL     1      45.979   4.425  13.552  0.00  0.00    +0.000 NA
ATOM      3  C   UNL     1      46.654   4.379  14.733  0.00  0.00    +0.000 A 
ATOM      4  C   UNL     1      47.640   5.274  15.094  0.00  0.00    +0.000 A 
ATOM      5  C   UNL     1      47.955   6.263  14.166  0.00  0.00    +0.000 A 
ATOM      6  C   UNL     1      47.281   6.336  12.940  0.00  0.00    +0.000 A 
ATOM      7 CL   UNL     1      47.752   7.645  11.918  0.00  0.00    +0.000 Cl
ENDROOT
BRANCH   4   8
ATOM      8  C   UNL     1      48.351   5.260  16.395  0.00  0.00    +0.000 C 
ATOM      9  N   UNL     1      47.943   6.102  17.388  0.00  0.00    +0.000 N 
ATOM     10  O   UNL     1      49.287   4.495  16.590  0.00  0.00    +0.000 OA
ATOM     11  H   UNL     1      47.127   6.696  17.363  0.00  0.00    +0.000 HD
ATOM     12  H   UNL     1      48.436   6.031  18.269  0.00  0.00    +0.000 HD
ENDBRANCH   4   8
BRANCH   1  13
ATOM     13  N   UNL     1      45.423   5.371  11.583  0.00  0.00    +0.000 N 
ATOM     14  H   UNL     1      45.034   6.302  11.461  0.00  0.00    +0.000 HD
BRANCH  13  15
ATOM     15  C   UNL     1      44.549   4.296  11.140  0.00  0.00    +0.000 C 
ATOM     16  C   UNL     1      43.109   4.790  11.005  0.00  0.00    +0.000 C 
BRANCH  15  21
ATOM     17  C   UNL     1      47.016   2.053   6.340  0.00  0.00    +0.000 C 
ATOM     18  C   UNL     1      46.275   2.633   7.508  0.00  0.00    +0.000 A 
ATOM     19  C   UNL     1      45.713   1.803   8.482  0.00  0.00    +0.000 A 
ATOM     20  C   UNL     1      45.127   2.350   9.628  0.00  0.00    +0.000 A 
ATOM     21  C   UNL     1      45.091   3.739   9.829  0.00  0.00    +0.000 A 
ATOM     22  C   UNL     1      45.614   4.567   8.822  0.00  0.00    +0.000 A 
ATOM     23  C   UNL     1      46.204   4.019   7.678  0.00  0.00    +0.000 A 
ENDBRANCH  15  21
ENDBRANCH  13  15
ENDBRANCH   1  13
TORSDOF 4
ENDMDL
MODEL 3
REMARK VINA RESULT:    -6.892      3.420      6.295
REMARK INTER + INTRA:          -9.048
REMARK INTER:                  -8.731
REMARK INTRA:                  -0.317
REMARK UNBOUND:                -0.545
REMARK  Name = 
REMARK  6 active torsions:
REMARK  status: ('A' for Active; 'I' for Inactive)
REMARK    1  A    between atoms: C_1  and  C_2
REMARK    2  A    between atoms: C_5  and  C_6
REMARK    3  A    between atoms: C_6  and  C_7
REMARK    4  A    between atoms: C_6  and  N_8
REMARK    5  A    between atoms: N_8  and  C_9
REMARK    6  A    between atoms: C_12  and  C_13
REMARK                            x       y       z     vdW  Elec       q    Type
REMARK                         _______ _______ _______ _____ _____    ______ ____
ROOT
ATOM      1  C   UNL     1      45.346   5.632  12.215  0.00  0.00    +0.000 A 
ATOM      2  N   UNL     1      45.125   6.948  11.952  0.00  0.00    +0.000 NA
ATOM      3  C   UNL     1      45.931   7.886  12.522  0.00  0.00    +0.000 A 
ATOM      4  C   UNL     1      46.978   7.590  13.371  0.00  0.00    +0.000 A 
ATOM      5  C   UNL     1      47.191   6.245  13.655  0.00  0.00    +0.000 A 
ATOM      6  C   UNL     1      46.379   5.255  13.086  0.00  0.00    +0.000 A 
ATOM      7 CL   UNL     1      46.798   3.633  13.498  0.00  0.00    +0.000 Cl
ENDROOT
BRANCH   4   8
ATOM      8  C   UNL     1      47.887   8.601  13.963  0.00  0.00    +0.000 C 
ATOM      9  N   UNL     1      47.575   9.154  15.171  0.00  0.00    +0.000 N 
ATOM     10  O   UNL     1      48.916   8.933  13.387  0.00  0.00    +0.000 OA
ATOM     11  H   UNL     1      46.808   8.879  15.768  0.00  0.00    +0.000 HD
ATOM     12  H   UNL     1      48.243   9.812  15.550  0.00  0.00    +0.000 HD
ENDBRANCH   4   8
BRANCH   1  13
ATOM     13  N   UNL     1      44.528   4.829  11.468  0.00  0.00    +0.000 N 
ATOM     14  H   UNL     1      43.568   5.127  11.621  0.00  0.00    +0.000 HD
BRANCH  13  15
ATOM     15  C   UNL     1      44.671   3.416  11.153  0.00  0.00    +0.000 C 
ATOM     16  C   UNL     1      43.352   2.676  11.372  0.00  0.00    +0.000 C 
BRANCH  15  21
ATOM     17  C   UNL     1      47.005   2.824   5.828  0.00  0.00    +0.000 C 
ATOM     18  C   UNL     1      46.293   2.979   7.138  0.00  0.00    +0.000 A 
ATOM     19  C   UNL     1      45.936   1.859   7.896  0.00  0.00    +0.000 A 
ATOM     20  C   UNL     1      45.381   2.012   9.170  0.00  0.00    +0.000 A 
ATOM     21  C   UNL     1      45.171   3.287   9.719  0.00  0.00    +0.000 A 
ATOM     22  C   UNL     1      45.486   4.407   8.932  0.00  0.00    +0.000 A 
ATOM     23  C   UNL     1      46.046   4.253   7.659  0.00  0.00    +0.000 A 
ENDBRANCH  15  21
ENDBRANCH  13  15
ENDBRANCH   1  13
TORSDOF 4
ENDMDL
MODEL 4
REMARK VINA RESULT:    -6.595      3.679      6.592
REMARK INTER + INTRA:          -8.682
REMARK INTER:                  -8.276
REMARK INTRA:                  -0.406
REMARK UNBOUND:                -0.545
REMARK  Name = 
REMARK  6 active torsions:
REMARK  status: ('A' for Active; 'I' for Inactive)
REMARK    1  A    between atoms: C_1  and  C_2
REMARK    2  A    between atoms: C_5  and  C_6
REMARK    3  A    between atoms: C_6  and  C_7
REMARK    4  A    between atoms: C_6  and  N_8
REMARK    5  A    between atoms: N_8  and  C_9
REMARK    6  A    between atoms: C_12  and  C_13
REMARK                            x       y       z     vdW  Elec       q    Type
REMARK                         _______ _______ _______ _____ _____    ______ ____
ROOT
ATOM      1  C   UNL     1      45.520   6.243  11.836  0.00  0.00    +0.000 A 
ATOM      2  N   UNL     1      46.455   5.534  12.525  0.00  0.00    +0.000 NA
ATOM      3  C   UNL     1      47.300   6.189  13.368  0.00  0.00    +0.000 A 
ATOM      4  C   UNL     1      47.277   7.553  13.578  0.00  0.00    +0.000 A 
ATOM      5  C   UNL     1      46.333   8.279  12.858  0.00  0.00    +0.000 A 
ATOM      6  C   UNL     1      45.451   7.636  11.980  0.00  0.00    +0.000 A 
ATOM      7 CL   UNL     1      44.310   8.667  11.198  0.00  0.00    +0.000 Cl
ENDROOT
BRANCH   4   8
ATOM      8  C   UNL     1      48.163   8.269  14.526  0.00  0.00    +0.000 C 
ATOM      9  N   UNL     1      47.618   9.145  15.419  0.00  0.00    +0.000 N 
ATOM     10  O   UNL     1      49.373   8.076  14.522  0.00  0.00    +0.000 OA
ATOM     11  H   UNL     1      46.631   9.300  15.569  0.00  0.00    +0.000 HD
ATOM     12  H   UNL     1      48.258   9.583  16.069  0.00  0.00    +0.000 HD
ENDBRANCH   4   8
BRANCH   1  13
ATOM     13  N   UNL     1      44.684   5.417  11.135  0.00  0.00    +0.000 N 
ATOM     14  H   UNL     1      43.750   5.816  11.162  0.00  0.00    +0.000 HD
BRANCH  13  15
ATOM     15  C   UNL     1      44.711   3.967  11.025  0.00  0.00    +0.000 C 
ATOM     16  C   UNL     1      43.303   3.388  11.162  0.00  0.00    +0.000 C 
BRANCH  15  21
ATOM     17  C   UNL     1      46.794   2.638   5.729  0.00  0.00    +0.000 C 
ATOM     18  C   UNL     1      46.378   2.970   7.131  0.00  0.00    +0.000 A 
ATOM     19  C   UNL     1      46.282   4.299   7.552  0.00  0.00    +0.000 A 
ATOM     20  C   UNL     1      45.779   4.606   8.821  0.00  0.00    +0.000 A 
ATOM     21  C   UNL     1      45.359   3.593   9.697  0.00  0.00    +0.000 A 
ATOM     22  C   UNL     1      45.505   2.258   9.284  0.00  0.00    +0.000 A 
ATOM     23  C   UNL     1      46.004   1.952   8.014  0.00  0.00    +0.000 A 
ENDBRANCH  15  21
ENDBRANCH  13  15
ENDBRANCH   1  13
TORSDOF 4
ENDMDL
MODEL 5
REMARK VINA RESULT:    -6.207      5.123      7.519
REMARK INTER + INTRA:          -8.203
REMARK INTER:                  -7.680
REMARK INTRA:                  -0.524
REMARK UNBOUND:                -0.545
REMARK  Name = 
REMARK  6 active torsions:
REMARK  status: ('A' for Active; 'I' for Inactive)
REMARK    1  A    between atoms: C_1  and  C_2
REMARK    2  A    between atoms: C_5  and  C_6
REMARK    3  A    between atoms: C_6  and  C_7
REMARK    4  A    between atoms: C_6  and  N_8
REMARK    5  A    between atoms: N_8  and  C_9
REMARK    6  A    between atoms: C_12  and  C_13
REMARK                            x       y       z     vdW  Elec       q    Type
REMARK                         _______ _______ _______ _____ _____    ______ ____
ROOT
ATOM      1  C   UNL     1      47.540   5.115  14.565  0.00  0.00    +0.000 A 
ATOM      2  N   UNL     1      47.180   3.918  15.102  0.00  0.00    +0.000 NA
ATOM      3  C   UNL     1      47.507   3.641  16.394  0.00  0.00    +0.000 A 
ATOM      4  C   UNL     1      48.197   4.506  17.218  0.00  0.00    +0.000 A 
ATOM      5  C   UNL     1      48.582   5.723  16.663  0.00  0.00    +0.000 A 
ATOM      6  C   UNL     1      48.263   6.038  15.335  0.00  0.00    +0.000 A 
ATOM      7 CL   UNL     1      48.769   7.601  14.808  0.00  0.00    +0.000 Cl
ENDROOT
BRANCH   4   8
ATOM      8  C   UNL     1      48.520   4.232  18.638  0.00  0.00    +0.000 C 
ATOM      9  N   UNL     1      48.260   2.997  19.156  0.00  0.00    +0.000 N 
ATOM     10  O   UNL     1      49.027   5.095  19.345  0.00  0.00    +0.000 OA
ATOM     11  H   UNL     1      47.938   2.193  18.637  0.00  0.00    +0.000 HD
ATOM     12  H   UNL     1      48.531   2.847  20.120  0.00  0.00    +0.000 HD
ENDBRANCH   4   8
BRANCH   1  13
ATOM     13  N   UNL     1      47.029   5.273  13.307  0.00  0.00    +0.000 N 
ATOM     14  H   UNL     1      47.745   5.700  12.725  0.00  0.00    +0.000 HD
BRANCH  13  15
ATOM     15  C   UNL     1      45.667   5.590  12.906  0.00  0.00    +0.000 C 
ATOM     16  C   UNL     1      45.430   7.100  12.942  0.00  0.00    +0.000 C 
BRANCH  15  21
ATOM     17  C   UNL     1      45.104   3.090   7.653  0.00  0.00    +0.000 C 
ATOM     18  C   UNL     1      45.132   3.777   8.986  0.00  0.00    +0.000 A 
ATOM     19  C   UNL     1      44.762   3.096  10.149  0.00  0.00    +0.000 A 
ATOM     20  C   UNL     1      44.903   3.703  11.401  0.00  0.00    +0.000 A 
ATOM     21  C   UNL     1      45.419   5.003  11.521  0.00  0.00    +0.000 A 
ATOM     22  C   UNL     1      45.742   5.698  10.344  0.00  0.00    +0.000 A 
ATOM     23  C   UNL     1      45.604   5.089   9.092  0.00  0.00    +0.000 A 
ENDBRANCH  15  21
ENDBRANCH  13  15
ENDBRANCH   1  13
TORSDOF 4
ENDMDL
MODEL 6
REMARK VINA RESULT:    -6.199      3.904      5.510
REMARK INTER + INTRA:          -8.194
REMARK INTER:                  -7.670
REMARK INTRA:                  -0.524
REMARK UNBOUND:                -0.545
REMARK  Name = 
REMARK  6 active torsions:
REMARK  status: ('A' for Active; 'I' for Inactive)
REMARK    1  A    between atoms: C_1  and  C_2
REMARK    2  A    between atoms: C_5  and  C_6
REMARK    3  A    between atoms: C_6  and  C_7
REMARK    4  A    between atoms: C_6  and  N_8
REMARK    5  A    between atoms: N_8  and  C_9
REMARK    6  A    between atoms: C_12  and  C_13
REMARK                            x       y       z     vdW  Elec       q    Type
REMARK                         _______ _______ _______ _____ _____    ______ ____
ROOT
ATOM      1  C   UNL     1      45.937   5.044  13.423  0.00  0.00    +0.000 A 
ATOM      2  N   UNL     1      45.835   3.699  13.249  0.00  0.00    +0.000 NA
ATOM      3  C   UNL     1      45.331   3.213  12.081  0.00  0.00    +0.000 A 
ATOM      4  C   UNL     1      44.903   4.007  11.037  0.00  0.00    +0.000 A 
ATOM      5  C   UNL     1      44.990   5.383  11.222  0.00  0.00    +0.000 A 
ATOM      6  C   UNL     1      45.502   5.915  12.414  0.00  0.00    +0.000 A 
ATOM      7 CL   UNL     1      45.588   7.637  12.473  0.00  0.00    +0.000 Cl
ENDROOT
BRANCH   4   8
ATOM      8  C   UNL     1      44.393   3.489   9.745  0.00  0.00    +0.000 C 
ATOM      9  N   UNL     1      44.117   4.365   8.736  0.00  0.00    +0.000 N 
ATOM     10  O   UNL     1      44.230   2.287   9.571  0.00  0.00    +0.000 OA
ATOM     11  H   UNL     1      44.308   5.356   8.743  0.00  0.00    +0.000 HD
ATOM     12  H   UNL     1      43.804   3.961   7.862  0.00  0.00    +0.000 HD
ENDBRANCH   4   8
BRANCH   1  13
ATOM     13  N   UNL     1      46.572   5.350  14.595  0.00  0.00    +0.000 N 
ATOM     14  H   UNL     1      45.958   5.948  15.141  0.00  0.00    +0.000 HD
BRANCH  13  15
ATOM     15  C   UNL     1      47.990   5.570  14.837  0.00  0.00    +0.000 C 
ATOM     16  C   UNL     1      48.383   7.003  14.481  0.00  0.00    +0.000 C 
BRANCH  15  21
ATOM     17  C   UNL     1      48.698   4.380  20.515  0.00  0.00    +0.000 C 
ATOM     18  C   UNL     1      48.632   4.638  19.039  0.00  0.00    +0.000 A 
ATOM     19  C   UNL     1      48.063   3.699  18.174  0.00  0.00    +0.000 A 
ATOM     20  C   UNL     1      47.896   3.996  16.817  0.00  0.00    +0.000 A 
ATOM     21  C   UNL     1      48.291   5.237  16.294  0.00  0.00    +0.000 A 
ATOM     22  C   UNL     1      48.905   6.155  17.161  0.00  0.00    +0.000 A 
ATOM     23  C   UNL     1      49.069   5.860  18.518  0.00  0.00    +0.000 A 
ENDBRANCH  15  21
ENDBRANCH  13  15
ENDBRANCH   1  13
TORSDOF 4
ENDMDL
MODEL 7
REMARK VINA RESULT:    -5.996      5.048      6.961
REMARK INTER + INTRA:          -7.943
REMARK INTER:                  -7.355
REMARK INTRA:                  -0.588
REMARK UNBOUND:                -0.545
REMARK  Name = 
REMARK  6 active torsions:
REMARK  status: ('A' for Active; 'I' for Inactive)
REMARK    1  A    between atoms: C_1  and  C_2
REMARK    2  A    between atoms: C_5  and  C_6
REMARK    3  A    between atoms: C_6  and  C_7
REMARK    4  A    between atoms: C_6  and  N_8
REMARK    5  A    between atoms: N_8  and  C_9
REMARK    6  A    between atoms: C_12  and  C_13
REMARK                            x       y       z     vdW  Elec       q    Type
REMARK                         _______ _______ _______ _____ _____    ______ ____
ROOT
ATOM      1  C   UNL     1      46.936   4.422  14.480  0.00  0.00    +0.000 A 
ATOM      2  N   UNL     1      45.875   3.829  13.869  0.00  0.00    +0.000 NA
ATOM      3  C   UNL     1      45.218   4.495  12.879  0.00  0.00    +0.000 A 
ATOM      4  C   UNL     1      45.558   5.758  12.442  0.00  0.00    +0.000 A 
ATOM      5  C   UNL     1      46.631   6.373  13.081  0.00  0.00    +0.000 A 
ATOM      6  C   UNL     1      47.327   5.716  14.105  0.00  0.00    +0.000 A 
ATOM      7 CL   UNL     1      48.661   6.589  14.765  0.00  0.00    +0.000 Cl
ENDROOT
BRANCH   4   8
ATOM      8  C   UNL     1      44.877   6.474  11.337  0.00  0.00    +0.000 C 
ATOM      9  N   UNL     1      44.182   5.758  10.405  0.00  0.00    +0.000 N 
ATOM     10  O   UNL     1      44.921   7.695  11.258  0.00  0.00    +0.000 OA
ATOM     11  H   UNL     1      44.004   4.765  10.434  0.00  0.00    +0.000 HD
ATOM     12  H   UNL     1      43.706   6.292   9.690  0.00  0.00    +0.000 HD
ENDBRANCH   4   8
BRANCH   1  13
ATOM     13  N   UNL     1      47.547   3.571  15.359  0.00  0.00    +0.000 N 
ATOM     14  H   UNL     1      47.304   2.619  15.097  0.00  0.00    +0.000 HD
BRANCH  13  15
ATOM     15  C   UNL     1      47.806   3.752  16.778  0.00  0.00    +0.000 C 
ATOM     16  C   UNL     1      46.868   2.883  17.615  0.00  0.00    +0.000 C 
BRANCH  15  21
ATOM     17  C   UNL     1      53.300   2.379  18.224  0.00  0.00    +0.000 C 
ATOM     18  C   UNL     1      51.932   2.752  17.736  0.00  0.00    +0.000 A 
ATOM     19  C   UNL     1      51.041   1.772  17.289  0.00  0.00    +0.000 A 
ATOM     20  C   UNL     1      49.728   2.112  16.948  0.00  0.00    +0.000 A 
ATOM     21  C   UNL     1      49.273   3.436  17.048  0.00  0.00    +0.000 A 
ATOM     22  C   UNL     1      50.190   4.422  17.451  0.00  0.00    +0.000 A 
ATOM     23  C   UNL     1      51.502   4.081  17.796  0.00  0.00    +0.000 A 
ENDBRANCH  15  21
ENDBRANCH  13  15
ENDBRANCH   1  13
TORSDOF 4
ENDMDL
MODEL 8
REMARK VINA RESULT:    -5.848      3.493      5.001
REMARK INTER + INTRA:          -7.760
REMARK INTER:                  -7.277
REMARK INTRA:                  -0.483
REMARK UNBOUND:                -0.545
REMARK  Name = 
REMARK  6 active torsions:
REMARK  status: ('A' for Active; 'I' for Inactive)
REMARK    1  A    between atoms: C_1  and  C_2
REMARK    2  A    between atoms: C_5  and  C_6
REMARK    3  A    between atoms: C_6  and  C_7
REMARK    4  A    between atoms: C_6  and  N_8
REMARK    5  A    between atoms: N_8  and  C_9
REMARK    6  A    between atoms: C_12  and  C_13
REMARK                            x       y       z     vdW  Elec       q    Type
REMARK                         _______ _______ _______ _____ _____    ______ ____
ROOT
ATOM      1  C   UNL     1      46.569   5.912  12.368  0.00  0.00    +0.000 A 
ATOM      2  N   UNL     1      46.053   6.029  11.115  0.00  0.00    +0.000 NA
ATOM      3  C   UNL     1      45.260   5.037  10.625  0.00  0.00    +0.000 A 
ATOM      4  C   UNL     1      44.936   3.892  11.324  0.00  0.00    +0.000 A 
ATOM      5  C   UNL     1      45.479   3.764  12.599  0.00  0.00    +0.000 A 
ATOM      6  C   UNL     1      46.302   4.766  13.131  0.00  0.00    +0.000 A 
ATOM      7 CL   UNL     1      46.860   4.482  14.739  0.00  0.00    +0.000 Cl
ENDROOT
BRANCH   4   8
ATOM      8  C   UNL     1      44.039   2.826  10.817  0.00  0.00    +0.000 C 
ATOM      9  N   UNL     1      44.438   2.066   9.756  0.00  0.00    +0.000 N 
ATOM     10  O   UNL     1      42.954   2.615  11.345  0.00  0.00    +0.000 OA
ATOM     11  H   UNL     1      45.346   2.093   9.316  0.00  0.00    +0.000 HD
ATOM     12  H   UNL     1      43.807   1.328   9.469  0.00  0.00    +0.000 HD
ENDBRANCH   4   8
BRANCH   1  13
ATOM     13  N   UNL     1      47.237   7.046  12.741  0.00  0.00    +0.000 N 
ATOM     14  H   UNL     1      47.228   7.098  13.756  0.00  0.00    +0.000 HD
BRANCH  13  15
ATOM     15  C   UNL     1      47.286   8.339  12.078  0.00  0.00    +0.000 C 
ATOM     16  C   UNL     1      46.636   9.417  12.945  0.00  0.00    +0.000 C 
BRANCH  15  21
ATOM     17  C   UNL     1      52.735   9.605  10.386  0.00  0.00    +0.000 C 
ATOM     18  C   UNL     1      51.375   9.298  10.939  0.00  0.00    +0.000 A 
ATOM     19  C   UNL     1      50.408  10.301  11.056  0.00  0.00    +0.000 A 
ATOM     20  C   UNL     1      49.106   9.986  11.459  0.00  0.00    +0.000 A 
ATOM     21  C   UNL     1      48.739   8.663  11.753  0.00  0.00    +0.000 A 
ATOM     22  C   UNL     1      49.730   7.670  11.679  0.00  0.00    +0.000 A 
ATOM     23  C   UNL     1      51.031   7.984  11.272  0.00  0.00    +0.000 A 
ENDBRANCH  15  21
ENDBRANCH  13  15
ENDBRANCH   1  13
TORSDOF 4
ENDMDL
MODEL 9
REMARK VINA RESULT:    -5.644      3.439      5.244
REMARK INTER + INTRA:          -7.509
REMARK INTER:                  -6.915
REMARK INTRA:                  -0.593
REMARK UNBOUND:                -0.545
REMARK  Name = 
REMARK  6 active torsions:
REMARK  status: ('A' for Active; 'I' for Inactive)
REMARK    1  A    between atoms: C_1  and  C_2
REMARK    2  A    between atoms: C_5  and  C_6
REMARK    3  A    between atoms: C_6  and  C_7
REMARK    4  A    between atoms: C_6  and  N_8
REMARK    5  A    between atoms: N_8  and  C_9
REMARK    6  A    between atoms: C_12  and  C_13
REMARK                            x       y       z     vdW  Elec       q    Type
REMARK                         _______ _______ _______ _____ _____    ______ ____
ROOT
ATOM      1  C   UNL     1      46.682   5.974  12.578  0.00  0.00    +0.000 A 
ATOM      2  N   UNL     1      46.220   6.248  11.329  0.00  0.00    +0.000 NA
ATOM      3  C   UNL     1      45.369   5.374  10.726  0.00  0.00    +0.000 A 
ATOM      4  C   UNL     1      44.932   4.199  11.303  0.00  0.00    +0.000 A 
ATOM      5  C   UNL     1      45.420   3.909  12.574  0.00  0.00    +0.000 A 
ATOM      6  C   UNL     1      46.299   4.787  13.221  0.00  0.00    +0.000 A 
ATOM      7 CL   UNL     1      46.778   4.311  14.809  0.00  0.00    +0.000 Cl
ENDROOT
BRANCH   4   8
ATOM      8  C   UNL     1      43.972   3.262  10.673  0.00  0.00    +0.000 C 
ATOM      9  N   UNL     1      44.142   2.910   9.365  0.00  0.00    +0.000 N 
ATOM     10  O   UNL     1      43.039   2.794  11.314  0.00  0.00    +0.000 OA
ATOM     11  H   UNL     1      44.927   3.160   8.782  0.00  0.00    +0.000 HD
ATOM     12  H   UNL     1      43.482   2.240   8.990  0.00  0.00    +0.000 HD
ENDBRANCH   4   8
BRANCH   1  13
ATOM     13  N   UNL     1      47.423   7.010  13.076  0.00  0.00    +0.000 N 
ATOM     14  H   UNL     1      47.214   7.840  12.528  0.00  0.00    +0.000 HD
BRANCH  13  15
ATOM     15  C   UNL     1      48.765   6.988  13.638  0.00  0.00    +0.000 C 
ATOM     16  C   UNL     1      49.739   7.751  12.742  0.00  0.00    +0.000 C 
BRANCH  15  21
ATOM     17  C   UNL     1      48.162   8.957  19.107  0.00  0.00    +0.000 C 
ATOM     18  C   UNL     1      48.432   8.502  17.705  0.00  0.00    +0.000 A 
ATOM     19  C   UNL     1      48.939   7.224  17.453  0.00  0.00    +0.000 A 
ATOM     20  C   UNL     1      49.076   6.762  16.140  0.00  0.00    +0.000 A 
ATOM     21  C   UNL     1      48.710   7.564  15.048  0.00  0.00    +0.000 A 
ATOM     22  C   UNL     1      48.248   8.865  15.308  0.00  0.00    +0.000 A 
ATOM     23  C   UNL     1      48.107   9.325  16.622  0.00  0.00    +0.000 A 
ENDBRANCH  15  21
ENDBRANCH  13  15
ENDBRANCH   1  13
TORSDOF 4
ENDMDL
