MODEL 1
REMARK VINA RESULT:    -6.187      0.000      0.000
REMARK INTER + INTRA:          -8.631
REMARK INTER:                  -7.996
REMARK INTRA:                  -0.636
REMARK UNBOUND:                -0.636
REMARK  Name = 
REMARK  8 active torsions:
REMARK  status: ('A' for Active; 'I' for Inactive)
REMARK    1  A    between atoms: C_1  and  C_2
REMARK    2  A    between atoms: C_2  and  C_3
REMARK    3  A    between atoms: C_2  and  C_4
REMARK    4  A    between atoms: C_2  and  C_5
REMARK    5  A    between atoms: C_9  and  C_10
REMARK    6  A    between atoms: N_16  and  C_17
REMARK    7  A    between atoms: C_17  and  C_18
REMARK    8  A    between atoms: C_22  and  C_23
REMARK                            x       y       z     vdW  Elec       q    Type
REMARK                         _______ _______ _______ _____ _____    ______ ____
ROOT
ATOM      1  C   UNL     1      45.384   4.694  12.503  0.00  0.00    +0.000 A 
ATOM      2  N   UNL     1      45.378   4.010  13.642  0.00  0.00    +0.000 NA
ATOM      3  C   UNL     1      46.395   4.498  14.406  0.00  0.00    +0.000 A 
ATOM      4  C   UNL     1      46.854   4.112  15.669  0.00  0.00    +0.000 A 
ATOM      5  C   UNL     1      47.961   4.797  16.184  0.00  0.00    +0.000 A 
ATOM      6  C   UNL     1      48.517   5.830  15.423  0.00  0.00    +0.000 A 
ATOM      7  N   UNL     1      48.093   6.246  14.195  0.00  0.00    +0.000 NA
ATOM      8  C   UNL     1      47.042   5.532  13.749  0.00  0.00    +0.000 A 
ATOM      9  N   UNL     1      46.410   5.630  12.526  0.00  0.00    +0.000 N 
ENDROOT
BRANCH   5  10
ATOM     10  C   UNL     1      48.590   4.475  17.490  0.00  0.00    +0.000 C 
ATOM     11  N   UNL     1      47.798   4.030  18.512  0.00  0.00    +0.000 N 
ATOM     12  O   UNL     1      49.797   4.594  17.657  0.00  0.00    +0.000 OA
ATOM     13  H   UNL     1      46.802   3.879  18.462  0.00  0.00    +0.000 HD
ATOM     14  H   UNL     1      48.263   3.798  19.380  0.00  0.00    +0.000 HD
ENDBRANCH   5  10
BRANCH   1  16
ATOM     15  C   UNL     1      43.794   3.006  11.575  0.00  0.00    +0.000 C 
ATOM     16  C   UNL     1      44.372   4.433  11.388  0.00  0.00    +0.000 C 
ATOM     17  C   UNL     1      45.008   4.465   9.991  0.00  0.00    +0.000 C 
ATOM     18  C   UNL     1      43.190   5.414  11.454  0.00  0.00    +0.000 C 
ENDBRANCH   1  16
BRANCH   9  19
ATOM     19  C   UNL     1      46.808   6.601  11.519  0.00  0.00    +0.000 C 
BRANCH  19  20
ATOM     20  C   UNL     1      46.181   7.968  11.681  0.00  0.00    +0.000 A 
ATOM     21  C   UNL     1      46.972   9.038  12.139  0.00  0.00    +0.000 A 
ATOM     22  C   UNL     1      46.461  10.336  12.198  0.00  0.00    +0.000 A 
ATOM     23  C   UNL     1      45.154  10.589  11.791  0.00  0.00    +0.000 A 
ATOM     24  C   UNL     1      44.346   9.540  11.349  0.00  0.00    +0.000 A 
ATOM     25  C   UNL     1      44.858   8.240  11.296  0.00  0.00    +0.000 A 
BRANCH  24  26
ATOM     26  C   UNL     1      43.003   9.793  10.933  0.00  0.00    +0.000 C 
ATOM     27  N   UNL     1      41.909  10.004  10.598  0.00  0.00    +0.000 NA
ENDBRANCH  24  26
ENDBRANCH  19  20
ENDBRANCH   9  19
TORSDOF 5
ENDMDL
MODEL 2
REMARK VINA RESULT:    -6.042      3.339      6.094
REMARK INTER + INTRA:          -8.444
REMARK INTER:                  -7.408
REMARK INTRA:                  -1.037
REMARK UNBOUND:                -0.636
REMARK  Name = 
REMARK  8 active torsions:
REMARK  status: ('A' for Active; 'I' for Inactive)
REMARK    1  A    between atoms: C_1  and  C_2
REMARK    2  A    between atoms: C_2  and  C_3
REMARK    3  A    between atoms: C_2  and  C_4
REMARK    4  A    between atoms: C_2  and  C_5
REMARK    5  A    between atoms: C_9  and  C_10
REMARK    6  A    between atoms: N_16  and  C_17
REMARK    7  A    between atoms: C_17  and  C_18
REMARK    8  A    between atoms: C_22  and  C_23
REMARK                            x       y       z     vdW  Elec       q    Type
REMARK                         _______ _______ _______ _____ _____    ______ ____
ROOT
ATOM      1  C   UNL     1      48.267   6.752  14.628  0.00  0.00    +0.000 A 
ATOM      2  N   UNL     1      47.858   5.491  14.696  0.00  0.00    +0.000 NA
ATOM      3  C   UNL     1      47.024   5.285  13.637  0.00  0.00    +0.000 A 
ATOM      4  C   UNL     1      46.292   4.155  13.258  0.00  0.00    +0.000 A 
ATOM      5  C   UNL     1      45.487   4.268  12.119  0.00  0.00    +0.000 A 
ATOM      6  C   UNL     1      45.485   5.480  11.423  0.00  0.00    +0.000 A 
ATOM      7  N   UNL     1      46.192   6.600  11.750  0.00  0.00    +0.000 NA
ATOM      8  C   UNL     1      46.927   6.431  12.867  0.00  0.00    +0.000 A 
ATOM      9  N   UNL     1      47.698   7.370  13.522  0.00  0.00    +0.000 N 
ENDROOT
BRANCH   5  10
ATOM     10  C   UNL     1      44.620   3.172  11.616  0.00  0.00    +0.000 C 
ATOM     11  N   UNL     1      43.826   2.499  12.502  0.00  0.00    +0.000 N 
ATOM     12  O   UNL     1      44.602   2.875  10.428  0.00  0.00    +0.000 OA
ATOM     13  H   UNL     1      43.755   2.687  13.490  0.00  0.00    +0.000 HD
ATOM     14  H   UNL     1      43.231   1.775  12.120  0.00  0.00    +0.000 HD
ENDBRANCH   5  10
BRANCH   1  16
ATOM     15  C   UNL     1      49.249   6.440  16.904  0.00  0.00    +0.000 C 
ATOM     16  C   UNL     1      49.230   7.355  15.652  0.00  0.00    +0.000 C 
ATOM     17  C   UNL     1      48.788   8.743  16.135  0.00  0.00    +0.000 C 
ATOM     18  C   UNL     1      50.667   7.416  15.110  0.00  0.00    +0.000 C 
ENDBRANCH   1  16
BRANCH   9  19
ATOM     19  C   UNL     1      47.847   8.732  13.036  0.00  0.00    +0.000 C 
BRANCH  19  20
ATOM     20  C   UNL     1      49.201   9.043  12.437  0.00  0.00    +0.000 A 
ATOM     21  C   UNL     1      49.853  10.239  12.789  0.00  0.00    +0.000 A 
ATOM     22  C   UNL     1      51.146  10.511  12.344  0.00  0.00    +0.000 A 
ATOM     23  C   UNL     1      51.817   9.587  11.545  0.00  0.00    +0.000 A 
ATOM     24  C   UNL     1      51.184   8.401  11.170  0.00  0.00    +0.000 A 
ATOM     25  C   UNL     1      49.885   8.134  11.613  0.00  0.00    +0.000 A 
BRANCH  24  26
ATOM     26  C   UNL     1      51.866   7.452  10.349  0.00  0.00    +0.000 C 
ATOM     27  N   UNL     1      52.425   6.682   9.679  0.00  0.00    +0.000 NA
ENDBRANCH  24  26
ENDBRANCH  19  20
ENDBRANCH   9  19
TORSDOF 5
ENDMDL
MODEL 3
REMARK VINA RESULT:    -6.017      1.973      4.481
REMARK INTER + INTRA:          -8.412
REMARK INTER:                  -7.900
REMARK INTRA:                  -0.512
REMARK UNBOUND:                -0.636
REMARK  Name = 
REMARK  8 active torsions:
REMARK  status: ('A' for Active; 'I' for Inactive)
REMARK    1  A    between atoms: C_1  and  C_2
REMARK    2  A    between atoms: C_2  and  C_3
REMARK    3  A    between atoms: C_2  and  C_4
REMARK    4  A    between atoms: C_2  and  C_5
REMARK    5  A    between atoms: C_9  and  C_10
REMARK    6  A    between atoms: N_16  and  C_17
REMARK    7  A    between atoms: C_17  and  C_18
REMARK    8  A    between atoms: C_22  and  C_23
REMARK                            x       y       z     vdW  Elec       q    Type
REMARK                         _______ _______ _______ _____ _____    ______ ____
ROOT
ATOM      1  C   UNL     1      48.232   8.018  13.551  0.00  0.00    +0.000 A 
ATOM      2  N   UNL     1      48.576   7.889  14.828  0.00  0.00    +0.000 NA
ATOM      3  C   UNL     1      48.304   6.601  15.186  0.00  0.00    +0.000 A 
ATOM      4  C   UNL     1      48.437   5.949  16.415  0.00  0.00    +0.000 A 
ATOM      5  C   UNL     1      48.035   4.610  16.475  0.00  0.00    +0.000 A 
ATOM      6  C   UNL     1      47.555   4.008  15.308  0.00  0.00    +0.000 A 
ATOM      7  N   UNL     1      47.421   4.602  14.088  0.00  0.00    +0.000 NA
ATOM      8  C   UNL     1      47.804   5.894  14.106  0.00  0.00    +0.000 A 
ATOM      9  N   UNL     1      47.733   6.811  13.077  0.00  0.00    +0.000 N 
ENDROOT
BRANCH   5  10
ATOM     10  C   UNL     1      48.075   3.796  17.716  0.00  0.00    +0.000 C 
ATOM     11  N   UNL     1      47.084   2.880  17.937  0.00  0.00    +0.000 N 
ATOM     12  O   UNL     1      48.980   3.928  18.529  0.00  0.00    +0.000 OA
ATOM     13  H   UNL     1      46.314   2.684  17.317  0.00  0.00    +0.000 HD
ATOM     14  H   UNL     1      47.157   2.327  18.782  0.00  0.00    +0.000 HD
ENDBRANCH   5  10
BRANCH   1  16
ATOM     15  C   UNL     1      49.020  10.380  13.750  0.00  0.00    +0.000 C 
ATOM     16  C   UNL     1      48.401   9.333  12.789  0.00  0.00    +0.000 C 
ATOM     17  C   UNL     1      47.063   9.916  12.312  0.00  0.00    +0.000 C 
ATOM     18  C   UNL     1      49.364   9.179  11.601  0.00  0.00    +0.000 C 
ENDBRANCH   1  16
BRANCH   9  19
ATOM     19  C   UNL     1      47.237   6.464  11.755  0.00  0.00    +0.000 C 
BRANCH  19  20
ATOM     20  C   UNL     1      45.753   6.174  11.696  0.00  0.00    +0.000 A 
ATOM     21  C   UNL     1      44.849   7.240  11.533  0.00  0.00    +0.000 A 
ATOM     22  C   UNL     1      43.484   7.004  11.366  0.00  0.00    +0.000 A 
ATOM     23  C   UNL     1      42.999   5.699  11.347  0.00  0.00    +0.000 A 
ATOM     24  C   UNL     1      43.876   4.627  11.523  0.00  0.00    +0.000 A 
ATOM     25  C   UNL     1      45.242   4.866  11.697  0.00  0.00    +0.000 A 
BRANCH  24  26
ATOM     26  C   UNL     1      43.383   3.286  11.508  0.00  0.00    +0.000 C 
ATOM     27  N   UNL     1      42.983   2.194  11.491  0.00  0.00    +0.000 NA
ENDBRANCH  24  26
ENDBRANCH  19  20
ENDBRANCH   9  19
TORSDOF 5
ENDMDL
MODEL 4
REMARK VINA RESULT:    -5.678      3.235      6.424
REMARK INTER + INTRA:          -7.973
REMARK INTER:                  -7.481
REMARK INTRA:                  -0.492
REMARK UNBOUND:                -0.636
REMARK  Name = 
REMARK  8 active torsions:
REMARK  status: ('A' for Active; 'I' for Inactive)
REMARK    1  A    between atoms: C_1  and  C_2
REMARK    2  A    between atoms: C_2  and  C_3
REMARK    3  A    between atoms: C_2  and  C_4
REMARK    4  A    between atoms: C_2  and  C_5
REMARK    5  A    between atoms: C_9  and  C_10
REMARK    6  A    between atoms: N_16  and  C_17
REMARK    7  A    between atoms: C_17  and  C_18
REMARK    8  A    between atoms: C_22  and  C_23
REMARK                            x       y       z     vdW  Elec       q    Type
REMARK                         _______ _______ _______ _____ _____    ______ ____
ROOT
ATOM      1  C   UNL     1      47.726   4.707  16.054  0.00  0.00    +0.000 A 
ATOM      2  N   UNL     1      46.730   4.169  15.359  0.00  0.00    +0.000 NA
ATOM      3  C   UNL     1      46.661   4.842  14.175  0.00  0.00    +0.000 A 
ATOM      4  C   UNL     1      45.776   4.710  13.101  0.00  0.00    +0.000 A 
ATOM      5  C   UNL     1      45.944   5.587  12.023  0.00  0.00    +0.000 A 
ATOM      6  C   UNL     1      46.990   6.512  12.076  0.00  0.00    +0.000 A 
ATOM      7  N   UNL     1      47.882   6.666  13.097  0.00  0.00    +0.000 NA
ATOM      8  C   UNL     1      47.650   5.809  14.109  0.00  0.00    +0.000 A 
ATOM      9  N   UNL     1      48.305   5.736  15.322  0.00  0.00    +0.000 N 
ENDROOT
BRANCH   5  10
ATOM     10  C   UNL     1      45.060   5.599  10.830  0.00  0.00    +0.000 C 
ATOM     11  N   UNL     1      45.629   5.603   9.587  0.00  0.00    +0.000 N 
ATOM     12  O   UNL     1      43.841   5.594  10.947  0.00  0.00    +0.000 OA
ATOM     13  H   UNL     1      46.617   5.584   9.391  0.00  0.00    +0.000 HD
ATOM     14  H   UNL     1      44.995   5.587   8.797  0.00  0.00    +0.000 HD
ENDBRANCH   5  10
BRANCH   1  16
ATOM     15  C   UNL     1      47.445   5.119  18.502  0.00  0.00    +0.000 C 
ATOM     16  C   UNL     1      48.116   4.205  17.445  0.00  0.00    +0.000 C 
ATOM     17  C   UNL     1      49.628   4.281  17.700  0.00  0.00    +0.000 C 
ATOM     18  C   UNL     1      47.609   2.775  17.693  0.00  0.00    +0.000 C 
ENDBRANCH   1  16
BRANCH   9  19
ATOM     19  C   UNL     1      49.416   6.609  15.662  0.00  0.00    +0.000 C 
BRANCH  19  20
ATOM     20  C   UNL     1      49.015   7.915  16.313  0.00  0.00    +0.000 A 
ATOM     21  C   UNL     1      49.060   9.103  15.559  0.00  0.00    +0.000 A 
ATOM     22  C   UNL     1      48.597  10.308  16.089  0.00  0.00    +0.000 A 
ATOM     23  C   UNL     1      48.071  10.346  17.378  0.00  0.00    +0.000 A 
ATOM     24  C   UNL     1      48.031   9.183  18.150  0.00  0.00    +0.000 A 
ATOM     25  C   UNL     1      48.501   7.978  17.618  0.00  0.00    +0.000 A 
BRANCH  24  26
ATOM     26  C   UNL     1      47.495   9.217  19.473  0.00  0.00    +0.000 C 
ATOM     27  N   UNL     1      47.054   9.245  20.549  0.00  0.00    +0.000 NA
ENDBRANCH  24  26
ENDBRANCH  19  20
ENDBRANCH   9  19
TORSDOF 5
ENDMDL
MODEL 5
REMARK VINA RESULT:    -5.570      2.442      3.854
REMARK INTER + INTRA:          -7.834
REMARK INTER:                  -7.343
REMARK INTRA:                  -0.491
REMARK UNBOUND:                -0.636
REMARK  Name = 
REMARK  8 active torsions:
REMARK  status: ('A' for Active; 'I' for Inactive)
REMARK    1  A    between atoms: C_1  and  C_2
REMARK    2  A    between atoms: C_2  and  C_3
REMARK    3  A    between atoms: C_2  and  C_4
REMARK    4  A    between atoms: C_2  and  C_5
REMARK    5  A    between atoms: C_9  and  C_10
REMARK    6  A    between atoms: N_16  and  C_17
REMARK    7  A    between atoms: C_17  and  C_18
REMARK    8  A    between atoms: C_22  and  C_23
REMARK                            x       y       z     vdW  Elec       q    Type
REMARK                         _______ _______ _______ _____ _____    ______ ____
ROOT
ATOM      1  C   UNL     1      46.120   5.146  13.042  0.00  0.00    +0.000 A 
ATOM      2  N   UNL     1      46.220   4.015  13.733  0.00  0.00    +0.000 NA
ATOM      3  C   UNL     1      47.050   4.264  14.786  0.00  0.00    +0.000 A 
ATOM      4  C   UNL     1      47.523   3.419  15.794  0.00  0.00    +0.000 A 
ATOM      5  C   UNL     1      48.404   3.971  16.730  0.00  0.00    +0.000 A 
ATOM      6  C   UNL     1      48.733   5.325  16.615  0.00  0.00    +0.000 A 
ATOM      7  N   UNL     1      48.285   6.186  15.657  0.00  0.00    +0.000 NA
ATOM      8  C   UNL     1      47.461   5.586  14.777  0.00  0.00    +0.000 A 
ATOM      9  N   UNL     1      46.888   6.133  13.647  0.00  0.00    +0.000 N 
ENDROOT
BRANCH   5  10
ATOM     10  C   UNL     1      49.024   3.192  17.832  0.00  0.00    +0.000 C 
ATOM     11  N   UNL     1      48.460   3.246  19.077  0.00  0.00    +0.000 N 
ATOM     12  O   UNL     1      50.017   2.502  17.638  0.00  0.00    +0.000 OA
ATOM     13  H   UNL     1      47.633   3.765  19.327  0.00  0.00    +0.000 HD
ATOM     14  H   UNL     1      48.895   2.685  19.797  0.00  0.00    +0.000 HD
ENDBRANCH   5  10
BRANCH   1  16
ATOM     15  C   UNL     1      44.869   3.831  11.326  0.00  0.00    +0.000 C 
ATOM     16  C   UNL     1      45.259   5.260  11.784  0.00  0.00    +0.000 C 
ATOM     17  C   UNL     1      46.009   5.903  10.609  0.00  0.00    +0.000 C 
ATOM     18  C   UNL     1      43.953   6.022  12.059  0.00  0.00    +0.000 C 
ENDBRANCH   1  16
BRANCH   9  19
ATOM     19  C   UNL     1      47.091   7.520  13.263  0.00  0.00    +0.000 C 
BRANCH  19  20
ATOM     20  C   UNL     1      48.521   7.876  12.918  0.00  0.00    +0.000 A 
ATOM     21  C   UNL     1      49.091   7.367  11.736  0.00  0.00    +0.000 A 
ATOM     22  C   UNL     1      50.367   7.757  11.328  0.00  0.00    +0.000 A 
ATOM     23  C   UNL     1      51.093   8.671  12.089  0.00  0.00    +0.000 A 
ATOM     24  C   UNL     1      50.553   9.176  13.273  0.00  0.00    +0.000 A 
ATOM     25  C   UNL     1      49.276   8.779  13.682  0.00  0.00    +0.000 A 
BRANCH  24  26
ATOM     26  C   UNL     1      51.294  10.112  14.058  0.00  0.00    +0.000 C 
ATOM     27  N   UNL     1      51.897  10.870  14.702  0.00  0.00    +0.000 NA
ENDBRANCH  24  26
ENDBRANCH  19  20
ENDBRANCH   9  19
TORSDOF 5
ENDMDL
MODEL 6
REMARK VINA RESULT:    -5.524      1.932      4.736
REMARK INTER + INTRA:          -7.774
REMARK INTER:                  -8.086
REMARK INTRA:                   0.312
REMARK UNBOUND:                -0.636
REMARK  Name = 
REMARK  8 active torsions:
REMARK  status: ('A' for Active; 'I' for Inactive)
REMARK    1  A    between atoms: C_1  and  C_2
REMARK    2  A    between atoms: C_2  and  C_3
REMARK    3  A    between atoms: C_2  and  C_4
REMARK    4  A    between atoms: C_2  and  C_5
REMARK    5  A    between atoms: C_9  and  C_10
REMARK    6  A    between atoms: N_16  and  C_17
REMARK    7  A    between atoms: C_17  and  C_18
REMARK    8  A    between atoms: C_22  and  C_23
REMARK                            x       y       z     vdW  Elec       q    Type
REMARK                         _______ _______ _______ _____ _____    ______ ____
ROOT
ATOM      1  C   UNL     1      47.645   8.094  13.169  0.00  0.00    +0.000 A 
ATOM      2  N   UNL     1      48.480   7.536  14.039  0.00  0.00    +0.000 NA
ATOM      3  C   UNL     1      47.927   6.347  14.415  0.00  0.00    +0.000 A 
ATOM      4  C   UNL     1      48.364   5.387  15.332  0.00  0.00    +0.000 A 
ATOM      5  C   UNL     1      47.545   4.269  15.527  0.00  0.00    +0.000 A 
ATOM      6  C   UNL     1      46.366   4.171  14.782  0.00  0.00    +0.000 A 
ATOM      7  N   UNL     1      45.909   5.077  13.870  0.00  0.00    +0.000 NA
ATOM      8  C   UNL     1      46.732   6.136  13.748  0.00  0.00    +0.000 A 
ATOM      9  N   UNL     1      46.545   7.267  12.979  0.00  0.00    +0.000 N 
ENDROOT
BRANCH   5  10
ATOM     10  C   UNL     1      47.852   3.186  16.496  0.00  0.00    +0.000 C 
ATOM     11  N   UNL     1      47.007   2.986  17.552  0.00  0.00    +0.000 N 
ATOM     12  O   UNL     1      48.837   2.472  16.354  0.00  0.00    +0.000 OA
ATOM     13  H   UNL     1      46.163   3.505  17.737  0.00  0.00    +0.000 HD
ATOM     14  H   UNL     1      47.235   2.225  18.178  0.00  0.00    +0.000 HD
ENDBRANCH   5  10
BRANCH   1  16
ATOM     15  C   UNL     1      48.599  10.369  13.568  0.00  0.00    +0.000 C 
ATOM     16  C   UNL     1      47.933   9.446  12.515  0.00  0.00    +0.000 C 
ATOM     17  C   UNL     1      46.657  10.163  12.052  0.00  0.00    +0.000 C 
ATOM     18  C   UNL     1      48.917   9.309  11.342  0.00  0.00    +0.000 C 
ENDBRANCH   1  16
BRANCH   9  19
ATOM     19  C   UNL     1      45.381   7.449  12.128  0.00  0.00    +0.000 C 
BRANCH  19  20
ATOM     20  C   UNL     1      45.023   6.244  11.284  0.00  0.00    +0.000 A 
ATOM     21  C   UNL     1      43.842   5.534  11.564  0.00  0.00    +0.000 A 
ATOM     22  C   UNL     1      43.422   4.485  10.744  0.00  0.00    +0.000 A 
ATOM     23  C   UNL     1      44.171   4.135   9.623  0.00  0.00    +0.000 A 
ATOM     24  C   UNL     1      45.356   4.816   9.336  0.00  0.00    +0.000 A 
ATOM     25  C   UNL     1      45.776   5.863  10.162  0.00  0.00    +0.000 A 
BRANCH  24  26
ATOM     26  C   UNL     1      46.129   4.460   8.189  0.00  0.00    +0.000 C 
ATOM     27  N   UNL     1      46.759   4.164   7.257  0.00  0.00    +0.000 NA
ENDBRANCH  24  26
ENDBRANCH  19  20
ENDBRANCH   9  19
TORSDOF 5
ENDMDL
MODEL 7
REMARK VINA RESULT:    -5.523      3.011      6.730
REMARK INTER + INTRA:          -7.773
REMARK INTER:                  -7.110
REMARK INTRA:                  -0.664
REMARK UNBOUND:                -0.636
REMARK  Name = 
REMARK  8 active torsions:
REMARK  status: ('A' for Active; 'I' for Inactive)
REMARK    1  A    between atoms: C_1  and  C_2
REMARK    2  A    between atoms: C_2  and  C_3
REMARK    3  A    between atoms: C_2  and  C_4
REMARK    4  A    between atoms: C_2  and  C_5
REMARK    5  A    between atoms: C_9  and  C_10
REMARK    6  A    between atoms: N_16  and  C_17
REMARK    7  A    between atoms: C_17  and  C_18
REMARK    8  A    between atoms: C_22  and  C_23
REMARK                            x       y       z     vdW  Elec       q    Type
REMARK                         _______ _______ _______ _____ _____    ______ ____
ROOT
ATOM      1  C   UNL     1      48.442   8.303  12.805  0.00  0.00    +0.000 A 
ATOM      2  N   UNL     1      47.396   8.029  12.034  0.00  0.00    +0.000 NA
ATOM      3  C   UNL     1      46.919   6.814  12.428  0.00  0.00    +0.000 A 
ATOM      4  C   UNL     1      45.865   6.043  11.929  0.00  0.00    +0.000 A 
ATOM      5  C   UNL     1      45.639   4.801  12.535  0.00  0.00    +0.000 A 
ATOM      6  C   UNL     1      46.456   4.426  13.606  0.00  0.00    +0.000 A 
ATOM      7  N   UNL     1      47.484   5.152  14.131  0.00  0.00    +0.000 NA
ATOM      8  C   UNL     1      47.661   6.322  13.488  0.00  0.00    +0.000 A 
ATOM      9  N   UNL     1      48.648   7.263  13.702  0.00  0.00    +0.000 N 
ENDROOT
BRANCH   5  10
ATOM     10  C   UNL     1      44.587   3.852  12.092  0.00  0.00    +0.000 C 
ATOM     11  N   UNL     1      44.690   2.537  12.452  0.00  0.00    +0.000 N 
ATOM     12  O   UNL     1      43.633   4.231  11.423  0.00  0.00    +0.000 OA
ATOM     13  H   UNL     1      45.422   2.137  13.018  0.00  0.00    +0.000 HD
ATOM     14  H   UNL     1      43.943   1.924  12.152  0.00  0.00    +0.000 HD
ENDBRANCH   5  10
BRANCH   1  16
ATOM     15  C   UNL     1      48.830  10.288  11.338  0.00  0.00    +0.000 C 
ATOM     16  C   UNL     1      49.242   9.599  12.665  0.00  0.00    +0.000 C 
ATOM     17  C   UNL     1      50.755   9.354  12.575  0.00  0.00    +0.000 C 
ATOM     18  C   UNL     1      48.932  10.582  13.804  0.00  0.00    +0.000 C 
ENDBRANCH   1  16
BRANCH   9  19
ATOM     19  C   UNL     1      49.660   7.111  14.735  0.00  0.00    +0.000 C 
BRANCH  19  20
ATOM     20  C   UNL     1      49.150   7.298  16.148  0.00  0.00    +0.000 A 
ATOM     21  C   UNL     1      48.548   8.518  16.507  0.00  0.00    +0.000 A 
ATOM     22  C   UNL     1      47.970   8.690  17.766  0.00  0.00    +0.000 A 
ATOM     23  C   UNL     1      47.974   7.643  18.684  0.00  0.00    +0.000 A 
ATOM     24  C   UNL     1      48.581   6.430  18.355  0.00  0.00    +0.000 A 
ATOM     25  C   UNL     1      49.165   6.261  17.095  0.00  0.00    +0.000 A 
BRANCH  24  26
ATOM     26  C   UNL     1      48.591   5.354  19.294  0.00  0.00    +0.000 C 
ATOM     27  N   UNL     1      48.596   4.475  20.056  0.00  0.00    +0.000 NA
ENDBRANCH  24  26
ENDBRANCH  19  20
ENDBRANCH   9  19
TORSDOF 5
ENDMDL
MODEL 8
REMARK VINA RESULT:    -5.473      3.332      7.455
REMARK INTER + INTRA:          -7.708
REMARK INTER:                  -7.242
REMARK INTRA:                  -0.466
REMARK UNBOUND:                -0.636
REMARK  Name = 
REMARK  8 active torsions:
REMARK  status: ('A' for Active; 'I' for Inactive)
REMARK    1  A    between atoms: C_1  and  C_2
REMARK    2  A    between atoms: C_2  and  C_3
REMARK    3  A    between atoms: C_2  and  C_4
REMARK    4  A    between atoms: C_2  and  C_5
REMARK    5  A    between atoms: C_9  and  C_10
REMARK    6  A    between atoms: N_16  and  C_17
REMARK    7  A    between atoms: C_17  and  C_18
REMARK    8  A    between atoms: C_22  and  C_23
REMARK                            x       y       z     vdW  Elec       q    Type
REMARK                         _______ _______ _______ _____ _____    ______ ____
ROOT
ATOM      1  C   UNL     1      47.955   4.582  16.163  0.00  0.00    +0.000 A 
ATOM      2  N   UNL     1      47.210   3.988  15.238  0.00  0.00    +0.000 NA
ATOM      3  C   UNL     1      47.028   4.891  14.233  0.00  0.00    +0.000 A 
ATOM      4  C   UNL     1      46.296   4.799  13.045  0.00  0.00    +0.000 A 
ATOM      5  C   UNL     1      46.274   5.929  12.219  0.00  0.00    +0.000 A 
ATOM      6  C   UNL     1      46.998   7.057  12.615  0.00  0.00    +0.000 A 
ATOM      7  N   UNL     1      47.734   7.184  13.757  0.00  0.00    +0.000 NA
ATOM      8  C   UNL     1      47.694   6.071  14.515  0.00  0.00    +0.000 A 
ATOM      9  N   UNL     1      48.257   5.877  15.761  0.00  0.00    +0.000 N 
ENDROOT
BRANCH   5  10
ATOM     10  C   UNL     1      45.508   6.001  10.948  0.00  0.00    +0.000 C 
ATOM     11  N   UNL     1      44.268   6.577  10.956  0.00  0.00    +0.000 N 
ATOM     12  O   UNL     1      45.975   5.564   9.904  0.00  0.00    +0.000 OA
ATOM     13  H   UNL     1      43.813   6.984  11.758  0.00  0.00    +0.000 HD
ATOM     14  H   UNL     1      43.786   6.629  10.068  0.00  0.00    +0.000 HD
ENDBRANCH   5  10
BRANCH   1  16
ATOM     15  C   UNL     1      48.318   4.893  18.616  0.00  0.00    +0.000 C 
ATOM     16  C   UNL     1      48.378   3.872  17.450  0.00  0.00    +0.000 C 
ATOM     17  C   UNL     1      49.824   3.360  17.395  0.00  0.00    +0.000 C 
ATOM     18  C   UNL     1      47.422   2.722  17.803  0.00  0.00    +0.000 C 
ENDBRANCH   1  16
BRANCH   9  19
ATOM     19  C   UNL     1      49.039   6.902  16.432  0.00  0.00    +0.000 C 
BRANCH  19  20
ATOM     20  C   UNL     1      50.506   6.917  16.062  0.00  0.00    +0.000 A 
ATOM     21  C   UNL     1      50.957   7.807  15.069  0.00  0.00    +0.000 A 
ATOM     22  C   UNL     1      52.316   7.928  14.775  0.00  0.00    +0.000 A 
ATOM     23  C   UNL     1      53.250   7.170  15.477  0.00  0.00    +0.000 A 
ATOM     24  C   UNL     1      52.825   6.270  16.456  0.00  0.00    +0.000 A 
ATOM     25  C   UNL     1      51.462   6.146  16.743  0.00  0.00    +0.000 A 
BRANCH  24  26
ATOM     26  C   UNL     1      53.779   5.489  17.176  0.00  0.00    +0.000 C 
ATOM     27  N   UNL     1      54.559   4.857  17.764  0.00  0.00    +0.000 NA
ENDBRANCH  24  26
ENDBRANCH  19  20
ENDBRANCH   9  19
TORSDOF 5
ENDMDL
MODEL 9
REMARK VINA RESULT:    -5.306      1.653      2.424
REMARK INTER + INTRA:          -7.492
REMARK INTER:                  -6.845
REMARK INTRA:                  -0.647
REMARK UNBOUND:                -0.636
REMARK  Name = 
REMARK  8 active torsions:
REMARK  status: ('A' for Active; 'I' for Inactive)
REMARK    1  A    between atoms: C_1  and  C_2
REMARK    2  A    between atoms: C_2  and  C_3
REMARK    3  A    between atoms: C_2  and  C_4
REMARK    4  A    between atoms: C_2  and  C_5
REMARK    5  A    between atoms: C_9  and  C_10
REMARK    6  A    between atoms: N_16  and  C_17
REMARK    7  A    between atoms: C_17  and  C_18
REMARK    8  A    between atoms: C_22  and  C_23
REMARK                            x       y       z     vdW  Elec       q    Type
REMARK                         _______ _______ _______ _____ _____    ______ ____
ROOT
ATOM      1  C   UNL     1      45.571   4.608  12.832  0.00  0.00    +0.000 A 
ATOM      2  N   UNL     1      45.536   4.072  14.047  0.00  0.00    +0.000 NA
ATOM      3  C   UNL     1      46.591   4.588  14.740  0.00  0.00    +0.000 A 
ATOM      4  C   UNL     1      47.041   4.334  16.039  0.00  0.00    +0.000 A 
ATOM      5  C   UNL     1      48.194   5.008  16.459  0.00  0.00    +0.000 A 
ATOM      6  C   UNL     1      48.802   5.901  15.573  0.00  0.00    +0.000 A 
ATOM      7  N   UNL     1      48.390   6.187  14.304  0.00  0.00    +0.000 NA
ATOM      8  C   UNL     1      47.291   5.489  13.956  0.00  0.00    +0.000 A 
ATOM      9  N   UNL     1      46.653   5.473  12.733  0.00  0.00    +0.000 N 
ENDROOT
BRANCH   5  10
ATOM     10  C   UNL     1      48.817   4.813  17.793  0.00  0.00    +0.000 C 
ATOM     11  N   UNL     1      48.250   3.924  18.663  0.00  0.00    +0.000 N 
ATOM     12  O   UNL     1      49.828   5.425  18.114  0.00  0.00    +0.000 OA
ATOM     13  H   UNL     1      47.435   3.359  18.481  0.00  0.00    +0.000 HD
ATOM     14  H   UNL     1      48.715   3.800  19.553  0.00  0.00    +0.000 HD
ENDBRANCH   5  10
BRANCH   1  16
ATOM     15  C   UNL     1      43.714   3.044  12.241  0.00  0.00    +0.000 C 
ATOM     16  C   UNL     1      44.531   4.272  11.762  0.00  0.00    +0.000 C 
ATOM     17  C   UNL     1      45.167   3.876  10.422  0.00  0.00    +0.000 C 
ATOM     18  C   UNL     1      43.538   5.427  11.556  0.00  0.00    +0.000 C 
ENDBRANCH   1  16
BRANCH   9  19
ATOM     19  C   UNL     1      47.096   6.284  11.611  0.00  0.00    +0.000 C 
BRANCH  19  20
ATOM     20  C   UNL     1      46.972   7.777  11.824  0.00  0.00    +0.000 A 
ATOM     21  C   UNL     1      45.709   8.329  12.110  0.00  0.00    +0.000 A 
ATOM     22  C   UNL     1      45.570   9.683  12.419  0.00  0.00    +0.000 A 
ATOM     23  C   UNL     1      46.692  10.507  12.458  0.00  0.00    +0.000 A 
ATOM     24  C   UNL     1      47.952   9.984  12.162  0.00  0.00    +0.000 A 
ATOM     25  C   UNL     1      48.088   8.629  11.847  0.00  0.00    +0.000 A 
BRANCH  24  26
ATOM     26  C   UNL     1      49.105  10.826  12.199  0.00  0.00    +0.000 C 
ATOM     27  N   UNL     1      50.041  11.516  12.226  0.00  0.00    +0.000 NA
ENDBRANCH  24  26
ENDBRANCH  19  20
ENDBRANCH   9  19
TORSDOF 5
ENDMDL
