MODEL 1
REMARK VINA RESULT:    -8.061      0.000      0.000
REMARK INTER + INTRA:         -12.476
REMARK INTER:                 -11.360
REMARK INTRA:                  -1.115
REMARK UNBOUND:                -1.115
REMARK  Name = 
REMARK  8 active torsions:
REMARK  status: ('A' for Active; 'I' for Inactive)
REMARK    1  A    between atoms: C_1  and  C_2
REMARK    2  A    between atoms: C_2  and  O_3
REMARK    3  A    between atoms: O_3  and  C_4
REMARK    4  A    between atoms: C_8  and  C_9
REMARK    5  A    between atoms: C_9  and  C_10
REMARK    6  A    between atoms: C_13  and  C_14
REMARK    7  A    between atoms: C_14  and  N_15
REMARK    8  A    between atoms: C_16  and  C_18
REMARK                            x       y       z     vdW  Elec       q    Type
REMARK                         _______ _______ _______ _____ _____    ______ ____
ROOT
ATOM      1  C   UNL     1      44.794   6.326  11.284  0.00  0.00    +0.000 A 
ATOM      2  C   UNL     1      46.031   5.757  11.621  0.00  0.00    +0.000 A 
ATOM      3  C   UNL     1      46.938   6.456  12.423  0.00  0.00    +0.000 A 
ATOM      4  C   UNL     1      46.626   7.734  12.899  0.00  0.00    +0.000 A 
ATOM      5  C   UNL     1      45.423   8.332  12.501  0.00  0.00    +0.000 A 
ATOM      6  C   UNL     1      44.509   7.628  11.712  0.00  0.00    +0.000 A 
ENDROOT
BRANCH   1   7
ATOM      7  C   UNL     1      43.769   5.530  10.510  0.00  0.00    +0.000 C 
BRANCH   7  12
ATOM      8  C   UNL     1      45.725   3.668   8.000  0.00  0.00    +0.000 A 
ATOM      9  C   UNL     1      45.571   2.336   8.334  0.00  0.00    +0.000 A 
ATOM     10  C   UNL     1      44.723   2.020   9.388  0.00  0.00    +0.000 A 
ATOM     11  C   UNL     1      44.098   3.049  10.091  0.00  0.00    +0.000 A 
ATOM     12  C   UNL     1      44.338   4.371   9.718  0.00  0.00    +0.000 A 
ATOM     13  N   UNL     1      45.142   4.686   8.673  0.00  0.00    +0.000 NA
BRANCH   8  14
ATOM     14  O   UNL     1      46.569   3.956   6.947  0.00  0.00    +0.000 OA
BRANCH  14  16
ATOM     15  C   UNL     1      47.493   2.547   5.249  0.00  0.00    +0.000 C 
ATOM     16  C   UNL     1      47.509   2.902   6.722  0.00  0.00    +0.000 C 
ENDBRANCH  14  16
ENDBRANCH   8  14
ENDBRANCH   7  12
ENDBRANCH   1   7
BRANCH   4  17
ATOM     17  C   UNL     1      47.571   8.463  13.818  0.00  0.00    +0.000 C 
BRANCH  17  18
ATOM     18  N   UNL     1      47.876   7.683  14.987  0.00  0.00    +0.000 N 
ATOM     19  C   UNL     1      49.071   7.021  15.101  0.00  0.00    +0.000 C 
ATOM     20  O   UNL     1      49.944   7.103  14.241  0.00  0.00    +0.000 OA
ATOM     21  H   UNL     1      47.094   7.413  15.576  0.00  0.00    +0.000 HD
BRANCH  19  22
ATOM     22  C   UNL     1      49.282   6.258  16.336  0.00  0.00    +0.000 A 
ATOM     23  C   UNL     1      50.283   6.643  17.218  0.00  0.00    +0.000 A 
ATOM     24  S   UNL     1      50.344   5.699  18.637  0.00  0.00    +0.000 S 
ATOM     25  C   UNL     1      49.075   4.704  18.094  0.00  0.00    +0.000 A 
ATOM     26  N   UNL     1      48.636   3.659  18.846  0.00  0.00    +0.000 NA
ATOM     27  C   UNL     1      47.693   2.967  18.299  0.00  0.00    +0.000 A 
ATOM     28  N   UNL     1      47.145   3.227  17.071  0.00  0.00    +0.000 N 
ATOM     29  C   UNL     1      47.538   4.287  16.288  0.00  0.00    +0.000 A 
ATOM     30  O   UNL     1      47.000   4.516  15.208  0.00  0.00    +0.000 OA
ATOM     31  C   UNL     1      48.602   5.094  16.855  0.00  0.00    +0.000 A 
ATOM     32  H   UNL     1      46.405   2.649  16.701  0.00  0.00    +0.000 HD
ENDBRANCH  19  22
ENDBRANCH  17  18
ENDBRANCH   4  17
TORSDOF 7
ENDMDL
MODEL 2
REMARK VINA RESULT:    -7.552      1.866      2.204
REMARK INTER + INTRA:         -11.758
REMARK INTER:                 -10.639
REMARK INTRA:                  -1.119
REMARK UNBOUND:                -1.115
REMARK  Name = 
REMARK  8 active torsions:
REMARK  status: ('A' for Active; 'I' for Inactive)
REMARK    1  A    between atoms: C_1  and  C_2
REMARK    2  A    between atoms: C_2  and  O_3
REMARK    3  A    between atoms: O_3  and  C_4
REMARK    4  A    between atoms: C_8  and  C_9
REMARK    5  A    between atoms: C_9  and  C_10
REMARK    6  A    between atoms: C_13  and  C_14
REMARK    7  A    between atoms: C_14  and  N_15
REMARK    8  A    between atoms: C_16  and  C_18
REMARK                            x       y       z     vdW  Elec       q    Type
REMARK                         _______ _______ _______ _____ _____    ______ ____
ROOT
ATOM      1  C   UNL     1      45.065   6.266  11.522  0.00  0.00    +0.000 A 
ATOM      2  C   UNL     1      46.119   5.513  12.058  0.00  0.00    +0.000 A 
ATOM      3  C   UNL     1      47.086   6.118  12.864  0.00  0.00    +0.000 A 
ATOM      4  C   UNL     1      47.017   7.487  13.149  0.00  0.00    +0.000 A 
ATOM      5  C   UNL     1      46.007   8.253  12.553  0.00  0.00    +0.000 A 
ATOM      6  C   UNL     1      45.031   7.646  11.758  0.00  0.00    +0.000 A 
ENDROOT
BRANCH   1   7
ATOM      7  C   UNL     1      43.960   5.595  10.741  0.00  0.00    +0.000 C 
BRANCH   7  12
ATOM      8  C   UNL     1      45.666   3.702   8.077  0.00  0.00    +0.000 A 
ATOM      9  C   UNL     1      45.440   2.372   8.373  0.00  0.00    +0.000 A 
ATOM     10  C   UNL     1      44.624   2.074   9.457  0.00  0.00    +0.000 A 
ATOM     11  C   UNL     1      44.103   3.114  10.224  0.00  0.00    +0.000 A 
ATOM     12  C   UNL     1      44.412   4.430   9.883  0.00  0.00    +0.000 A 
ATOM     13  N   UNL     1      45.184   4.730   8.811  0.00  0.00    +0.000 NA
BRANCH   8  14
ATOM     14  O   UNL     1      46.477   3.973   6.993  0.00  0.00    +0.000 OA
BRANCH  14  16
ATOM     15  C   UNL     1      47.514   2.632   5.304  0.00  0.00    +0.000 C 
ATOM     16  C   UNL     1      47.444   2.941   6.787  0.00  0.00    +0.000 C 
ENDBRANCH  14  16
ENDBRANCH   8  14
ENDBRANCH   7  12
ENDBRANCH   1   7
BRANCH   4  17
ATOM     17  C   UNL     1      48.018   8.130  14.072  0.00  0.00    +0.000 C 
BRANCH  17  18
ATOM     18  N   UNL     1      47.981   7.540  15.383  0.00  0.00    +0.000 N 
ATOM     19  C   UNL     1      49.056   6.844  15.872  0.00  0.00    +0.000 C 
ATOM     20  O   UNL     1      50.104   6.736  15.241  0.00  0.00    +0.000 OA
ATOM     21  H   UNL     1      47.067   7.414  15.805  0.00  0.00    +0.000 HD
BRANCH  19  22
ATOM     22  C   UNL     1      48.915   6.286  17.223  0.00  0.00    +0.000 A 
ATOM     23  C   UNL     1      49.286   4.970  17.464  0.00  0.00    +0.000 A 
ATOM     24  S   UNL     1      49.129   4.505  19.097  0.00  0.00    +0.000 S 
ATOM     25  C   UNL     1      48.501   6.027  19.527  0.00  0.00    +0.000 A 
ATOM     26  N   UNL     1      48.132   6.293  20.808  0.00  0.00    +0.000 NA
ATOM     27  C   UNL     1      47.639   7.473  20.986  0.00  0.00    +0.000 A 
ATOM     28  N   UNL     1      47.485   8.413  20.002  0.00  0.00    +0.000 N 
ATOM     29  C   UNL     1      47.870   8.198  18.699  0.00  0.00    +0.000 A 
ATOM     30  O   UNL     1      47.754   9.075  17.848  0.00  0.00    +0.000 OA
ATOM     31  C   UNL     1      48.425   6.882  18.443  0.00  0.00    +0.000 A 
ATOM     32  H   UNL     1      47.097   9.321  20.208  0.00  0.00    +0.000 HD
ENDBRANCH  19  22
ENDBRANCH  17  18
ENDBRANCH   4  17
TORSDOF 7
ENDMDL
MODEL 3
REMARK VINA RESULT:    -7.246      2.361      2.712
REMARK INTER + INTRA:         -11.326
REMARK INTER:                 -10.294
REMARK INTRA:                  -1.032
REMARK UNBOUND:                -1.115
REMARK  Name = 
REMARK  8 active torsions:
REMARK  status: ('A' for Active; 'I' for Inactive)
REMARK    1  A    between atoms: C_1  and  C_2
REMARK    2  A    between atoms: C_2  and  O_3
REMARK    3  A    between atoms: O_3  and  C_4
REMARK    4  A    between atoms: C_8  and  C_9
REMARK    5  A    between atoms: C_9  and  C_10
REMARK    6  A    between atoms: C_13  and  C_14
REMARK    7  A    between atoms: C_14  and  N_15
REMARK    8  A    between atoms: C_16  and  C_18
REMARK                            x       y       z     vdW  Elec       q    Type
REMARK                         _______ _______ _______ _____ _____    ______ ____
ROOT
ATOM      1  C   UNL     1      44.856   6.196  11.584  0.00  0.00    +0.000 A 
ATOM      2  C   UNL     1      44.740   7.563  11.870  0.00  0.00    +0.000 A 
ATOM      3  C   UNL     1      45.743   8.227  12.581  0.00  0.00    +0.000 A 
ATOM      4  C   UNL     1      46.878   7.535  13.021  0.00  0.00    +0.000 A 
ATOM      5  C   UNL     1      46.958   6.154  12.800  0.00  0.00    +0.000 A 
ATOM      6  C   UNL     1      45.963   5.492  12.076  0.00  0.00    +0.000 A 
ENDROOT
BRANCH   1   7
ATOM      7  C   UNL     1      43.827   5.502  10.722  0.00  0.00    +0.000 C 
BRANCH   7  12
ATOM      8  C   UNL     1      45.752   3.745   8.114  0.00  0.00    +0.000 A 
ATOM      9  C   UNL     1      45.574   2.399   8.374  0.00  0.00    +0.000 A 
ATOM     10  C   UNL     1      44.720   2.042   9.410  0.00  0.00    +0.000 A 
ATOM     11  C   UNL     1      44.113   3.041  10.167  0.00  0.00    +0.000 A 
ATOM     12  C   UNL     1      44.376   4.377   9.867  0.00  0.00    +0.000 A 
ATOM     13  N   UNL     1      45.186   4.735   8.841  0.00  0.00    +0.000 NA
BRANCH   8  14
ATOM     14  O   UNL     1      46.602   4.075   7.078  0.00  0.00    +0.000 OA
BRANCH  14  16
ATOM     15  C   UNL     1      47.297   2.703   5.245  0.00  0.00    +0.000 C 
ATOM     16  C   UNL     1      47.454   2.982   6.727  0.00  0.00    +0.000 C 
ENDBRANCH  14  16
ENDBRANCH   8  14
ENDBRANCH   7  12
ENDBRANCH   1   7
BRANCH   4  17
ATOM     17  C   UNL     1      47.992   8.260  13.729  0.00  0.00    +0.000 C 
BRANCH  17  18
ATOM     18  N   UNL     1      47.724   8.394  15.135  0.00  0.00    +0.000 N 
ATOM     19  C   UNL     1      48.452   9.257  15.912  0.00  0.00    +0.000 C 
ATOM     20  O   UNL     1      49.323   9.982  15.438  0.00  0.00    +0.000 OA
ATOM     21  H   UNL     1      47.192   7.649  15.575  0.00  0.00    +0.000 HD
BRANCH  19  22
ATOM     22  C   UNL     1      48.094   9.320  17.334  0.00  0.00    +0.000 A 
ATOM     23  C   UNL     1      47.767  10.543  17.906  0.00  0.00    +0.000 A 
ATOM     24  S   UNL     1      47.302  10.428  19.543  0.00  0.00    +0.000 S 
ATOM     25  C   UNL     1      47.582   8.749  19.561  0.00  0.00    +0.000 A 
ATOM     26  N   UNL     1      47.391   8.022  20.693  0.00  0.00    +0.000 NA
ATOM     27  C   UNL     1      47.673   6.768  20.576  0.00  0.00    +0.000 A 
ATOM     28  N   UNL     1      48.126   6.173  19.428  0.00  0.00    +0.000 N 
ATOM     29  C   UNL     1      48.308   6.863  18.253  0.00  0.00    +0.000 A 
ATOM     30  O   UNL     1      48.677   6.293  17.230  0.00  0.00    +0.000 OA
ATOM     31  C   UNL     1      48.010   8.280  18.332  0.00  0.00    +0.000 A 
ATOM     32  H   UNL     1      48.324   5.184  19.400  0.00  0.00    +0.000 HD
ENDBRANCH  19  22
ENDBRANCH  17  18
ENDBRANCH   4  17
TORSDOF 7
ENDMDL
MODEL 4
REMARK VINA RESULT:    -7.052      1.486      2.025
REMARK INTER + INTRA:         -11.053
REMARK INTER:                  -9.687
REMARK INTRA:                  -1.367
REMARK UNBOUND:                -1.115
REMARK  Name = 
REMARK  8 active torsions:
REMARK  status: ('A' for Active; 'I' for Inactive)
REMARK    1  A    between atoms: C_1  and  C_2
REMARK    2  A    between atoms: C_2  and  O_3
REMARK    3  A    between atoms: O_3  and  C_4
REMARK    4  A    between atoms: C_8  and  C_9
REMARK    5  A    between atoms: C_9  and  C_10
REMARK    6  A    between atoms: C_13  and  C_14
REMARK    7  A    between atoms: C_14  and  N_15
REMARK    8  A    between atoms: C_16  and  C_18
REMARK                            x       y       z     vdW  Elec       q    Type
REMARK                         _______ _______ _______ _____ _____    ______ ____
ROOT
ATOM      1  C   UNL     1      45.485   7.387  11.876  0.00  0.00    +0.000 A 
ATOM      2  C   UNL     1      46.641   6.613  11.697  0.00  0.00    +0.000 A 
ATOM      3  C   UNL     1      47.838   6.969  12.323  0.00  0.00    +0.000 A 
ATOM      4  C   UNL     1      47.902   8.107  13.136  0.00  0.00    +0.000 A 
ATOM      5  C   UNL     1      46.768   8.921  13.254  0.00  0.00    +0.000 A 
ATOM      6  C   UNL     1      45.566   8.557  12.641  0.00  0.00    +0.000 A 
ENDROOT
BRANCH   1   7
ATOM      7  C   UNL     1      44.166   6.944  11.289  0.00  0.00    +0.000 C 
BRANCH   7  12
ATOM      8  C   UNL     1      44.147   3.414  10.225  0.00  0.00    +0.000 A 
ATOM      9  C   UNL     1      43.732   2.701  11.335  0.00  0.00    +0.000 A 
ATOM     10  C   UNL     1      43.365   3.414  12.469  0.00  0.00    +0.000 A 
ATOM     11  C   UNL     1      43.468   4.804  12.463  0.00  0.00    +0.000 A 
ATOM     12  C   UNL     1      43.935   5.446  11.317  0.00  0.00    +0.000 A 
ATOM     13  N   UNL     1      44.268   4.760  10.196  0.00  0.00    +0.000 NA
BRANCH   8  14
ATOM     14  O   UNL     1      44.501   2.684   9.109  0.00  0.00    +0.000 OA
BRANCH  14  16
ATOM     15  C   UNL     1      46.150   3.046   7.414  0.00  0.00    +0.000 C 
ATOM     16  C   UNL     1      44.844   3.533   8.011  0.00  0.00    +0.000 C 
ENDBRANCH  14  16
ENDBRANCH   8  14
ENDBRANCH   7  12
ENDBRANCH   1   7
BRANCH   4  17
ATOM     17  C   UNL     1      49.171   8.457  13.866  0.00  0.00    +0.000 C 
BRANCH  17  18
ATOM     18  N   UNL     1      49.337   7.659  15.051  0.00  0.00    +0.000 N 
ATOM     19  C   UNL     1      48.847   8.082  16.260  0.00  0.00    +0.000 C 
ATOM     20  O   UNL     1      48.210   9.125  16.375  0.00  0.00    +0.000 OA
ATOM     21  H   UNL     1      50.049   6.936  15.023  0.00  0.00    +0.000 HD
BRANCH  19  22
ATOM     22  C   UNL     1      49.067   7.188  17.403  0.00  0.00    +0.000 A 
ATOM     23  C   UNL     1      49.644   7.688  18.563  0.00  0.00    +0.000 A 
ATOM     24  S   UNL     1      49.758   6.540  19.819  0.00  0.00    +0.000 S 
ATOM     25  C   UNL     1      49.098   5.318  18.835  0.00  0.00    +0.000 A 
ATOM     26  N   UNL     1      48.938   4.053  19.305  0.00  0.00    +0.000 NA
ATOM     27  C   UNL     1      48.460   3.219  18.443  0.00  0.00    +0.000 A 
ATOM     28  N   UNL     1      48.123   3.536  17.154  0.00  0.00    +0.000 N 
ATOM     29  C   UNL     1      48.242   4.807  16.643  0.00  0.00    +0.000 A 
ATOM     30  O   UNL     1      47.895   5.068  15.495  0.00  0.00    +0.000 OA
ATOM     31  C   UNL     1      48.782   5.783  17.571  0.00  0.00    +0.000 A 
ATOM     32  H   UNL     1      47.749   2.837  16.529  0.00  0.00    +0.000 HD
ENDBRANCH  19  22
ENDBRANCH  17  18
ENDBRANCH   4  17
TORSDOF 7
ENDMDL
MODEL 5
REMARK VINA RESULT:    -6.987      4.739      9.801
REMARK INTER + INTRA:         -10.962
REMARK INTER:                 -10.011
REMARK INTRA:                  -0.952
REMARK UNBOUND:                -1.115
REMARK  Name = 
REMARK  8 active torsions:
REMARK  status: ('A' for Active; 'I' for Inactive)
REMARK    1  A    between atoms: C_1  and  C_2
REMARK    2  A    between atoms: C_2  and  O_3
REMARK    3  A    between atoms: O_3  and  C_4
REMARK    4  A    between atoms: C_8  and  C_9
REMARK    5  A    between atoms: C_9  and  C_10
REMARK    6  A    between atoms: C_13  and  C_14
REMARK    7  A    between atoms: C_14  and  N_15
REMARK    8  A    between atoms: C_16  and  C_18
REMARK                            x       y       z     vdW  Elec       q    Type
REMARK                         _______ _______ _______ _____ _____    ______ ____
ROOT
ATOM      1  C   UNL     1      51.646   3.441  17.992  0.00  0.00    +0.000 A 
ATOM      2  C   UNL     1      50.823   4.568  18.130  0.00  0.00    +0.000 A 
ATOM      3  C   UNL     1      49.478   4.515  17.756  0.00  0.00    +0.000 A 
ATOM      4  C   UNL     1      48.933   3.335  17.235  0.00  0.00    +0.000 A 
ATOM      5  C   UNL     1      49.773   2.234  17.028  0.00  0.00    +0.000 A 
ATOM      6  C   UNL     1      51.114   2.281  17.416  0.00  0.00    +0.000 A 
ENDROOT
BRANCH   1   7
ATOM      7  C   UNL     1      53.070   3.464  18.497  0.00  0.00    +0.000 C 
BRANCH   7  12
ATOM      8  C   UNL     1      54.480   0.071  18.806  0.00  0.00    +0.000 A 
ATOM      9  C   UNL     1      55.137  -0.160  17.612  0.00  0.00    +0.000 A 
ATOM     10  C   UNL     1      55.189   0.873  16.685  0.00  0.00    +0.000 A 
ATOM     11  C   UNL     1      54.548   2.078  16.970  0.00  0.00    +0.000 A 
ATOM     12  C   UNL     1      53.871   2.217  18.180  0.00  0.00    +0.000 A 
ATOM     13  N   UNL     1      53.839   1.224  19.102  0.00  0.00    +0.000 NA
BRANCH   8  14
ATOM     14  O   UNL     1      54.446  -0.968  19.713  0.00  0.00    +0.000 OA
BRANCH  14  16
ATOM     15  C   UNL     1      52.937  -2.822  19.609  0.00  0.00    +0.000 C 
ATOM     16  C   UNL     1      54.220  -2.223  19.067  0.00  0.00    +0.000 C 
ENDBRANCH  14  16
ENDBRANCH   8  14
ENDBRANCH   7  12
ENDBRANCH   1   7
BRANCH   4  17
ATOM     17  C   UNL     1      47.469   3.252  16.893  0.00  0.00    +0.000 C 
BRANCH  17  18
ATOM     18  N   UNL     1      47.076   4.307  15.998  0.00  0.00    +0.000 N 
ATOM     19  C   UNL     1      47.082   4.117  14.640  0.00  0.00    +0.000 C 
ATOM     20  O   UNL     1      47.372   3.036  14.136  0.00  0.00    +0.000 OA
ATOM     21  H   UNL     1      47.070   5.250  16.373  0.00  0.00    +0.000 HD
BRANCH  19  22
ATOM     22  C   UNL     1      46.659   5.257  13.818  0.00  0.00    +0.000 A 
ATOM     23  C   UNL     1      47.479   6.374  13.721  0.00  0.00    +0.000 A 
ATOM     24  S   UNL     1      46.876   7.574  12.669  0.00  0.00    +0.000 S 
ATOM     25  C   UNL     1      45.469   6.670  12.356  0.00  0.00    +0.000 A 
ATOM     26  N   UNL     1      44.501   7.148  11.530  0.00  0.00    +0.000 NA
ATOM     27  C   UNL     1      43.474   6.376  11.409  0.00  0.00    +0.000 A 
ATOM     28  N   UNL     1      43.327   5.166  12.035  0.00  0.00    +0.000 N 
ATOM     29  C   UNL     1      44.290   4.631  12.858  0.00  0.00    +0.000 A 
ATOM     30  O   UNL     1      44.145   3.527  13.374  0.00  0.00    +0.000 OA
ATOM     31  C   UNL     1      45.465   5.464  13.033  0.00  0.00    +0.000 A 
ATOM     32  H   UNL     1      42.499   4.607  11.895  0.00  0.00    +0.000 HD
ENDBRANCH  19  22
ENDBRANCH  17  18
ENDBRANCH   4  17
TORSDOF 7
ENDMDL
MODEL 6
REMARK VINA RESULT:    -6.893      2.496      3.575
REMARK INTER + INTRA:         -10.829
REMARK INTER:                  -9.798
REMARK INTRA:                  -1.031
REMARK UNBOUND:                -1.115
REMARK  Name = 
REMARK  8 active torsions:
REMARK  status: ('A' for Active; 'I' for Inactive)
REMARK    1  A    between atoms: C_1  and  C_2
REMARK    2  A    between atoms: C_2  and  O_3
REMARK    3  A    between atoms: O_3  and  C_4
REMARK    4  A    between atoms: C_8  and  C_9
REMARK    5  A    between atoms: C_9  and  C_10
REMARK    6  A    between atoms: C_13  and  C_14
REMARK    7  A    between atoms: C_14  and  N_15
REMARK    8  A    between atoms: C_16  and  C_18
REMARK                            x       y       z     vdW  Elec       q    Type
REMARK                         _______ _______ _______ _____ _____    ______ ____
ROOT
ATOM      1  C   UNL     1      47.171   6.943  12.843  0.00  0.00    +0.000 A 
ATOM      2  C   UNL     1      47.348   8.284  13.213  0.00  0.00    +0.000 A 
ATOM      3  C   UNL     1      48.022   8.612  14.391  0.00  0.00    +0.000 A 
ATOM      4  C   UNL     1      48.530   7.607  15.222  0.00  0.00    +0.000 A 
ATOM      5  C   UNL     1      48.288   6.267  14.891  0.00  0.00    +0.000 A 
ATOM      6  C   UNL     1      47.627   5.938  13.705  0.00  0.00    +0.000 A 
ENDROOT
BRANCH   1   7
ATOM      7  C   UNL     1      46.539   6.589  11.517  0.00  0.00    +0.000 C 
BRANCH   7  12
ATOM      8  C   UNL     1      44.040   3.985  10.764  0.00  0.00    +0.000 A 
ATOM      9  C   UNL     1      43.154   4.013  11.825  0.00  0.00    +0.000 A 
ATOM     10  C   UNL     1      43.337   4.983  12.802  0.00  0.00    +0.000 A 
ATOM     11  C   UNL     1      44.418   5.857  12.702  0.00  0.00    +0.000 A 
ATOM     12  C   UNL     1      45.291   5.736  11.621  0.00  0.00    +0.000 A 
ATOM     13  N   UNL     1      45.104   4.812  10.649  0.00  0.00    +0.000 NA
BRANCH   8  14
ATOM     14  O   UNL     1      43.835   3.016   9.803  0.00  0.00    +0.000 OA
BRANCH  14  16
ATOM     15  C   UNL     1      45.579   1.786   8.722  0.00  0.00    +0.000 C 
ATOM     16  C   UNL     1      44.812   3.093   8.762  0.00  0.00    +0.000 C 
ENDBRANCH  14  16
ENDBRANCH   8  14
ENDBRANCH   7  12
ENDBRANCH   1   7
BRANCH   4  17
ATOM     17  C   UNL     1      49.316   7.956  16.458  0.00  0.00    +0.000 C 
BRANCH  17  18
ATOM     18  N   UNL     1      50.302   6.953  16.757  0.00  0.00    +0.000 N 
ATOM     19  C   UNL     1      50.149   6.112  17.829  0.00  0.00    +0.000 C 
ATOM     20  O   UNL     1      49.151   6.145  18.544  0.00  0.00    +0.000 OA
ATOM     21  H   UNL     1      51.219   7.071  16.339  0.00  0.00    +0.000 HD
BRANCH  19  22
ATOM     22  C   UNL     1      51.211   5.123  18.042  0.00  0.00    +0.000 A 
ATOM     23  C   UNL     1      52.432   5.529  18.567  0.00  0.00    +0.000 A 
ATOM     24  S   UNL     1      53.526   4.246  18.821  0.00  0.00    +0.000 S 
ATOM     25  C   UNL     1      52.431   3.113  18.180  0.00  0.00    +0.000 A 
ATOM     26  N   UNL     1      52.762   1.797  18.087  0.00  0.00    +0.000 NA
ATOM     27  C   UNL     1      51.853   1.055  17.549  0.00  0.00    +0.000 A 
ATOM     28  N   UNL     1      50.640   1.507  17.100  0.00  0.00    +0.000 N 
ATOM     29  C   UNL     1      50.251   2.822  17.199  0.00  0.00    +0.000 A 
ATOM     30  O   UNL     1      49.142   3.189  16.822  0.00  0.00    +0.000 OA
ATOM     31  C   UNL     1      51.242   3.702  17.790  0.00  0.00    +0.000 A 
ATOM     32  H   UNL     1      49.969   0.872  16.694  0.00  0.00    +0.000 HD
ENDBRANCH  19  22
ENDBRANCH  17  18
ENDBRANCH   4  17
TORSDOF 7
ENDMDL
MODEL 7
REMARK VINA RESULT:    -6.870      4.414      9.631
REMARK INTER + INTRA:         -10.797
REMARK INTER:                  -9.876
REMARK INTRA:                  -0.921
REMARK UNBOUND:                -1.115
REMARK  Name = 
REMARK  8 active torsions:
REMARK  status: ('A' for Active; 'I' for Inactive)
REMARK    1  A    between atoms: C_1  and  C_2
REMARK    2  A    between atoms: C_2  and  O_3
REMARK    3  A    between atoms: O_3  and  C_4
REMARK    4  A    between atoms: C_8  and  C_9
REMARK    5  A    between atoms: C_9  and  C_10
REMARK    6  A    between atoms: C_13  and  C_14
REMARK    7  A    between atoms: C_14  and  N_15
REMARK    8  A    between atoms: C_16  and  C_18
REMARK                            x       y       z     vdW  Elec       q    Type
REMARK                         _______ _______ _______ _____ _____    ______ ____
ROOT
ATOM      1  C   UNL     1      51.015   2.394  17.421  0.00  0.00    +0.000 A 
ATOM      2  C   UNL     1      49.613   2.376  17.397  0.00  0.00    +0.000 A 
ATOM      3  C   UNL     1      48.890   3.568  17.308  0.00  0.00    +0.000 A 
ATOM      4  C   UNL     1      49.555   4.798  17.243  0.00  0.00    +0.000 A 
ATOM      5  C   UNL     1      50.952   4.820  17.343  0.00  0.00    +0.000 A 
ATOM      6  C   UNL     1      51.677   3.628  17.417  0.00  0.00    +0.000 A 
ENDROOT
BRANCH   1   7
ATOM      7  C   UNL     1      51.799   1.103  17.407  0.00  0.00    +0.000 C 
BRANCH   7  12
ATOM      8  C   UNL     1      54.680   1.903  19.564  0.00  0.00    +0.000 A 
ATOM      9  C   UNL     1      55.775   1.341  18.933  0.00  0.00    +0.000 A 
ATOM     10  C   UNL     1      55.576   0.734  17.700  0.00  0.00    +0.000 A 
ATOM     11  C   UNL     1      54.290   0.675  17.168  0.00  0.00    +0.000 A 
ATOM     12  C   UNL     1      53.231   1.230  17.886  0.00  0.00    +0.000 A 
ATOM     13  N   UNL     1      53.420   1.849  19.077  0.00  0.00    +0.000 NA
BRANCH   8  14
ATOM     14  O   UNL     1      54.903   2.505  20.785  0.00  0.00    +0.000 OA
BRANCH  14  16
ATOM     15  C   UNL     1      54.603   4.781  20.110  0.00  0.00    +0.000 C 
ATOM     16  C   UNL     1      54.068   3.651  20.968  0.00  0.00    +0.000 C 
ENDBRANCH  14  16
ENDBRANCH   8  14
ENDBRANCH   7  12
ENDBRANCH   1   7
BRANCH   4  17
ATOM     17  C   UNL     1      48.782   6.081  17.080  0.00  0.00    +0.000 C 
BRANCH  17  18
ATOM     18  N   UNL     1      47.863   6.005  15.976  0.00  0.00    +0.000 N 
ATOM     19  C   UNL     1      48.261   6.327  14.704  0.00  0.00    +0.000 C 
ATOM     20  O   UNL     1      49.420   6.643  14.446  0.00  0.00    +0.000 OA
ATOM     21  H   UNL     1      46.874   5.985  16.203  0.00  0.00    +0.000 HD
BRANCH  19  22
ATOM     22  C   UNL     1      47.245   6.212  13.652  0.00  0.00    +0.000 A 
ATOM     23  C   UNL     1      46.808   7.354  12.993  0.00  0.00    +0.000 A 
ATOM     24  S   UNL     1      45.684   7.036  11.750  0.00  0.00    +0.000 S 
ATOM     25  C   UNL     1      45.697   5.369  12.090  0.00  0.00    +0.000 A 
ATOM     26  N   UNL     1      44.918   4.507  11.384  0.00  0.00    +0.000 NA
ATOM     27  C   UNL     1      44.999   3.277  11.770  0.00  0.00    +0.000 A 
ATOM     28  N   UNL     1      45.790   2.830  12.794  0.00  0.00    +0.000 N 
ATOM     29  C   UNL     1      46.614   3.661  13.517  0.00  0.00    +0.000 A 
ATOM     30  O   UNL     1      47.341   3.223  14.405  0.00  0.00    +0.000 OA
ATOM     31  C   UNL     1      46.556   5.057  13.128  0.00  0.00    +0.000 A 
ATOM     32  H   UNL     1      45.812   1.853  13.044  0.00  0.00    +0.000 HD
ENDBRANCH  19  22
ENDBRANCH  17  18
ENDBRANCH   4  17
TORSDOF 7
ENDMDL
MODEL 8
REMARK VINA RESULT:    -6.853      2.881      8.577
REMARK INTER + INTRA:         -10.773
REMARK INTER:                  -9.390
REMARK INTRA:                  -1.383
REMARK UNBOUND:                -1.115
REMARK  Name = 
REMARK  8 active torsions:
REMARK  status: ('A' for Active; 'I' for Inactive)
REMARK    1  A    between atoms: C_1  and  C_2
REMARK    2  A    between atoms: C_2  and  O_3
REMARK    3  A    between atoms: O_3  and  C_4
REMARK    4  A    between atoms: C_8  and  C_9
REMARK    5  A    between atoms: C_9  and  C_10
REMARK    6  A    between atoms: C_13  and  C_14
REMARK    7  A    between atoms: C_14  and  N_15
REMARK    8  A    between atoms: C_16  and  C_18
REMARK                            x       y       z     vdW  Elec       q    Type
REMARK                         _______ _______ _______ _____ _____    ______ ____
ROOT
ATOM      1  C   UNL     1      49.442   8.258  15.840  0.00  0.00    +0.000 A 
ATOM      2  C   UNL     1      48.247   8.902  15.487  0.00  0.00    +0.000 A 
ATOM      3  C   UNL     1      47.746   8.806  14.187  0.00  0.00    +0.000 A 
ATOM      4  C   UNL     1      48.431   8.067  13.215  0.00  0.00    +0.000 A 
ATOM      5  C   UNL     1      49.662   7.487  13.548  0.00  0.00    +0.000 A 
ATOM      6  C   UNL     1      50.157   7.569  14.852  0.00  0.00    +0.000 A 
ENDROOT
BRANCH   1   7
ATOM      7  C   UNL     1      49.927   8.269  17.271  0.00  0.00    +0.000 C 
BRANCH   7  12
ATOM      8  C   UNL     1      48.567   5.355  19.073  0.00  0.00    +0.000 A 
ATOM      9  C   UNL     1      47.749   5.883  20.054  0.00  0.00    +0.000 A 
ATOM     10  C   UNL     1      47.570   7.260  20.084  0.00  0.00    +0.000 A 
ATOM     11  C   UNL     1      48.247   8.055  19.161  0.00  0.00    +0.000 A 
ATOM     12  C   UNL     1      49.087   7.448  18.228  0.00  0.00    +0.000 A 
ATOM     13  N   UNL     1      49.245   6.103  18.174  0.00  0.00    +0.000 NA
BRANCH   8  14
ATOM     14  O   UNL     1      48.725   3.984  19.061  0.00  0.00    +0.000 OA
BRANCH  14  16
ATOM     15  C   UNL     1      47.205   3.411  17.306  0.00  0.00    +0.000 C 
ATOM     16  C   UNL     1      48.658   3.458  17.734  0.00  0.00    +0.000 C 
ENDBRANCH  14  16
ENDBRANCH   8  14
ENDBRANCH   7  12
ENDBRANCH   1   7
BRANCH   4  17
ATOM     17  C   UNL     1      47.861   7.905  11.831  0.00  0.00    +0.000 C 
BRANCH  17  18
ATOM     18  N   UNL     1      47.127   6.675  11.703  0.00  0.00    +0.000 N 
ATOM     19  C   UNL     1      45.759   6.657  11.800  0.00  0.00    +0.000 C 
ATOM     20  O   UNL     1      45.105   7.685  11.949  0.00  0.00    +0.000 OA
ATOM     21  H   UNL     1      47.650   5.813  11.822  0.00  0.00    +0.000 HD
BRANCH  19  22
ATOM     22  C   UNL     1      45.110   5.350  11.651  0.00  0.00    +0.000 A 
ATOM     23  C   UNL     1      44.454   4.782  12.736  0.00  0.00    +0.000 A 
ATOM     24  S   UNL     1      43.690   3.301  12.373  0.00  0.00    +0.000 S 
ATOM     25  C   UNL     1      44.263   3.336  10.771  0.00  0.00    +0.000 A 
ATOM     26  N   UNL     1      43.979   2.326   9.906  0.00  0.00    +0.000 NA
ATOM     27  C   UNL     1      44.505   2.463   8.735  0.00  0.00    +0.000 A 
ATOM     28  N   UNL     1      45.286   3.520   8.348  0.00  0.00    +0.000 N 
ATOM     29  C   UNL     1      45.577   4.576   9.179  0.00  0.00    +0.000 A 
ATOM     30  O   UNL     1      46.248   5.528   8.790  0.00  0.00    +0.000 OA
ATOM     31  C   UNL     1      45.014   4.468  10.512  0.00  0.00    +0.000 A 
ATOM     32  H   UNL     1      45.664   3.571   7.413  0.00  0.00    +0.000 HD
ENDBRANCH  19  22
ENDBRANCH  17  18
ENDBRANCH   4  17
TORSDOF 7
ENDMDL
MODEL 9
REMARK VINA RESULT:    -6.589      3.746      8.809
REMARK INTER + INTRA:         -10.401
REMARK INTER:                  -9.257
REMARK INTRA:                  -1.144
REMARK UNBOUND:                -1.115
REMARK  Name = 
REMARK  8 active torsions:
REMARK  status: ('A' for Active; 'I' for Inactive)
REMARK    1  A    between atoms: C_1  and  C_2
REMARK    2  A    between atoms: C_2  and  O_3
REMARK    3  A    between atoms: O_3  and  C_4
REMARK    4  A    between atoms: C_8  and  C_9
REMARK    5  A    between atoms: C_9  and  C_10
REMARK    6  A    between atoms: C_13  and  C_14
REMARK    7  A    between atoms: C_14  and  N_15
REMARK    8  A    between atoms: C_16  and  C_18
REMARK                            x       y       z     vdW  Elec       q    Type
REMARK                         _______ _______ _______ _____ _____    ______ ____
ROOT
ATOM      1  C   UNL     1      51.165   4.709  18.069  0.00  0.00    +0.000 A 
ATOM      2  C   UNL     1      50.954   3.358  17.762  0.00  0.00    +0.000 A 
ATOM      3  C   UNL     1      49.710   2.922  17.297  0.00  0.00    +0.000 A 
ATOM      4  C   UNL     1      48.657   3.828  17.132  0.00  0.00    +0.000 A 
ATOM      5  C   UNL     1      48.846   5.164  17.511  0.00  0.00    +0.000 A 
ATOM      6  C   UNL     1      50.093   5.604  17.962  0.00  0.00    +0.000 A 
ENDROOT
BRANCH   1   7
ATOM      7  C   UNL     1      52.537   5.201  18.467  0.00  0.00    +0.000 C 
BRANCH   7  12
ATOM      8  C   UNL     1      54.267   6.429  15.452  0.00  0.00    +0.000 A 
ATOM      9  C   UNL     1      55.393   5.636  15.330  0.00  0.00    +0.000 A 
ATOM     10  C   UNL     1      55.560   4.595  16.235  0.00  0.00    +0.000 A 
ATOM     11  C   UNL     1      54.619   4.415  17.247  0.00  0.00    +0.000 A 
ATOM     12  C   UNL     1      53.532   5.285  17.327  0.00  0.00    +0.000 A 
ATOM     13  N   UNL     1      53.347   6.285  16.432  0.00  0.00    +0.000 NA
BRANCH   8  14
ATOM     14  O   UNL     1      54.121   7.454  14.539  0.00  0.00    +0.000 OA
BRANCH  14  16
ATOM     15  C   UNL     1      52.100   8.513  13.821  0.00  0.00    +0.000 C 
ATOM     16  C   UNL     1      53.110   8.379  14.944  0.00  0.00    +0.000 C 
ENDBRANCH  14  16
ENDBRANCH   8  14
ENDBRANCH   7  12
ENDBRANCH   1   7
BRANCH   4  17
ATOM     17  C   UNL     1      47.336   3.376  16.568  0.00  0.00    +0.000 C 
BRANCH  17  18
ATOM     18  N   UNL     1      46.775   4.361  15.684  0.00  0.00    +0.000 N 
ATOM     19  C   UNL     1      46.754   4.160  14.327  0.00  0.00    +0.000 C 
ATOM     20  O   UNL     1      47.163   3.121  13.817  0.00  0.00    +0.000 OA
ATOM     21  H   UNL     1      46.660   5.299  16.054  0.00  0.00    +0.000 HD
BRANCH  19  22
ATOM     22  C   UNL     1      46.155   5.227  13.517  0.00  0.00    +0.000 A 
ATOM     23  C   UNL     1      46.852   6.412  13.319  0.00  0.00    +0.000 A 
ATOM     24  S   UNL     1      46.050   7.513  12.294  0.00  0.00    +0.000 S 
ATOM     25  C   UNL     1      44.714   6.472  12.131  0.00  0.00    +0.000 A 
ATOM     26  N   UNL     1      43.637   6.830  11.382  0.00  0.00    +0.000 NA
ATOM     27  C   UNL     1      42.681   5.962  11.373  0.00  0.00    +0.000 A 
ATOM     28  N   UNL     1      42.705   4.766  12.041  0.00  0.00    +0.000 N 
ATOM     29  C   UNL     1      43.782   4.351  12.788  0.00  0.00    +0.000 A 
ATOM     30  O   UNL     1      43.788   3.256  13.344  0.00  0.00    +0.000 OA
ATOM     31  C   UNL     1      44.883   5.295  12.836  0.00  0.00    +0.000 A 
ATOM     32  H   UNL     1      41.925   4.128  11.990  0.00  0.00    +0.000 HD
ENDBRANCH  19  22
ENDBRANCH  17  18
ENDBRANCH   4  17
TORSDOF 7
ENDMDL
