MODEL 1
REMARK VINA RESULT:    -7.806      0.000      0.000
REMARK INTER + INTRA:         -13.004
REMARK INTER:                 -12.141
REMARK INTRA:                  -0.863
REMARK UNBOUND:                -0.863
REMARK  Name = 
REMARK  10 active torsions:
REMARK  status: ('A' for Active; 'I' for Inactive)
REMARK    1  A    between atoms: N_1  and  C_2
REMARK    2  A    between atoms: C_2  and  C_3
REMARK    3  A    between atoms: C_3  and  N_4
REMARK    4  A    between atoms: C_3  and  C_20
REMARK    5  A    between atoms: N_4  and  C_5
REMARK    6  A    between atoms: C_5  and  C_6
REMARK    7  A    between atoms: C_9  and  C_10
REMARK    8  A    between atoms: C_10  and  N_11
REMARK    9  A    between atoms: N_11  and  C_12
REMARK   10  A    between atoms: C_12  and  C_13
REMARK                            x       y       z     vdW  Elec       q    Type
REMARK                         _______ _______ _______ _____ _____    ______ ____
ROOT
ATOM      1  N   UNL     1      48.521   4.754  15.901  0.00  0.00    +0.000 NA
ATOM      2  H   UNL     1      49.472   4.519  15.610  0.00  0.00    +0.000 HD
ENDROOT
BRANCH   1   3
ATOM      3  C   UNL     1      48.545   5.109  17.336  0.00  0.00    +0.000 C 
BRANCH   3   4
ATOM      4  C   UNL     1      49.927   4.747  17.871  0.00  0.00    +0.000 A 
ATOM      5  C   UNL     1      50.770   5.614  18.553  0.00  0.00    +0.000 A 
ATOM      6  S   UNL     1      52.277   4.923  18.953  0.00  0.00    +0.000 S 
ATOM      7  C   UNL     1      51.862   3.446  18.217  0.00  0.00    +0.000 A 
ATOM      8  N   UNL     1      52.738   2.404  18.187  0.00  0.00    +0.000 NA
ATOM      9  C   UNL     1      52.293   1.357  17.578  0.00  0.00    +0.000 A 
ATOM     10  N   UNL     1      51.049   1.251  17.004  0.00  0.00    +0.000 N 
ATOM     11  C   UNL     1      50.121   2.267  17.023  0.00  0.00    +0.000 A 
ATOM     12  O   UNL     1      49.004   2.121  16.536  0.00  0.00    +0.000 OA
ATOM     13  C   UNL     1      50.585   3.473  17.688  0.00  0.00    +0.000 A 
ATOM     14  H   UNL     1      50.762   0.394  16.555  0.00  0.00    +0.000 HD
ENDBRANCH   3   4
BRANCH   3  15
ATOM     15  C   UNL     1      47.432   4.376  18.155  0.00  0.00    +0.000 C 
BRANCH  15  16
ATOM     16  N   UNL     1      46.621   3.413  17.396  0.00  0.00    +0.000 NA
ATOM     17  H   UNL     1      46.099   3.911  16.678  0.00  0.00    +0.000 HD
ATOM     18  H   UNL     1      45.935   2.987  18.022  0.00  0.00    +0.000 HD
ENDBRANCH  15  16
ENDBRANCH   3  15
ENDBRANCH   1   3
BRANCH   1  19
ATOM     19  C   UNL     1      48.041   5.833  15.040  0.00  0.00    +0.000 C 
BRANCH  19  20
ATOM     20  C   UNL     1      47.156   5.307  13.933  0.00  0.00    +0.000 A 
ATOM     21  C   UNL     1      46.811   3.949  13.874  0.00  0.00    +0.000 A 
ATOM     22  C   UNL     1      45.959   3.473  12.873  0.00  0.00    +0.000 A 
ATOM     23  C   UNL     1      45.417   4.347  11.921  0.00  0.00    +0.000 A 
ATOM     24  C   UNL     1      45.758   5.704  11.984  0.00  0.00    +0.000 A 
ATOM     25  C   UNL     1      46.619   6.179  12.978  0.00  0.00    +0.000 A 
BRANCH  23  26
ATOM     26  C   UNL     1      44.495   3.835  10.837  0.00  0.00    +0.000 C 
BRANCH  26  27
ATOM     27  N   UNL     1      44.915   2.522  10.358  0.00  0.00    +0.000 NA
ATOM     28  H   UNL     1      44.452   1.797  10.910  0.00  0.00    +0.000 HD
BRANCH  27  29
ATOM     29  C   UNL     1      44.536   2.325   8.959  0.00  0.00    +0.000 C 
BRANCH  29  30
ATOM     30  C   UNL     1      45.786   2.202   8.150  0.00  0.00    +0.000 A 
ATOM     31  C   UNL     1      46.458   3.184   7.447  0.00  0.00    +0.000 A 
ATOM     32  N   UNL     1      47.543   2.561   6.903  0.00  0.00    +0.000 N 
ATOM     33  C   UNL     1      47.499   1.248   7.277  0.00  0.00    +0.000 A 
ATOM     34  N   UNL     1      46.450   0.997   8.027  0.00  0.00    +0.000 NA
ATOM     35  H   UNL     1      48.261   2.990   6.331  0.00  0.00    +0.000 HD
ENDBRANCH  29  30
ENDBRANCH  27  29
ENDBRANCH  26  27
ENDBRANCH  23  26
ENDBRANCH  19  20
ENDBRANCH   1  19
TORSDOF 10
ENDMDL
MODEL 2
REMARK VINA RESULT:    -7.370      2.125      3.026
REMARK INTER + INTRA:         -12.325
REMARK INTER:                 -11.216
REMARK INTRA:                  -1.109
REMARK UNBOUND:                -0.863
REMARK  Name = 
REMARK  10 active torsions:
REMARK  status: ('A' for Active; 'I' for Inactive)
REMARK    1  A    between atoms: N_1  and  C_2
REMARK    2  A    between atoms: C_2  and  C_3
REMARK    3  A    between atoms: C_3  and  N_4
REMARK    4  A    between atoms: C_3  and  C_20
REMARK    5  A    between atoms: N_4  and  C_5
REMARK    6  A    between atoms: C_5  and  C_6
REMARK    7  A    between atoms: C_9  and  C_10
REMARK    8  A    between atoms: C_10  and  N_11
REMARK    9  A    between atoms: N_11  and  C_12
REMARK   10  A    between atoms: C_12  and  C_13
REMARK                            x       y       z     vdW  Elec       q    Type
REMARK                         _______ _______ _______ _____ _____    ______ ____
ROOT
ATOM      1  N   UNL     1      48.065   6.105  14.787  0.00  0.00    +0.000 NA
ATOM      2  H   UNL     1      48.143   5.091  14.691  0.00  0.00    +0.000 HD
ENDROOT
BRANCH   1   3
ATOM      3  C   UNL     1      49.318   6.616  15.383  0.00  0.00    +0.000 C 
BRANCH   3   4
ATOM      4  C   UNL     1      49.035   6.906  16.855  0.00  0.00    +0.000 A 
ATOM      5  C   UNL     1      48.873   8.173  17.400  0.00  0.00    +0.000 A 
ATOM      6  S   UNL     1      48.643   8.160  19.090  0.00  0.00    +0.000 S 
ATOM      7  C   UNL     1      48.766   6.464  19.154  0.00  0.00    +0.000 A 
ATOM      8  N   UNL     1      48.675   5.796  20.337  0.00  0.00    +0.000 NA
ATOM      9  C   UNL     1      48.807   4.517  20.232  0.00  0.00    +0.000 A 
ATOM     10  N   UNL     1      49.012   3.841  19.054  0.00  0.00    +0.000 N 
ATOM     11  C   UNL     1      49.093   4.467  17.831  0.00  0.00    +0.000 A 
ATOM     12  O   UNL     1      49.234   3.826  16.794  0.00  0.00    +0.000 OA
ATOM     13  C   UNL     1      48.962   5.913  17.902  0.00  0.00    +0.000 A 
ATOM     14  H   UNL     1      49.093   2.836  19.045  0.00  0.00    +0.000 HD
ENDBRANCH   3   4
BRANCH   3  15
ATOM     15  C   UNL     1      49.845   7.902  14.664  0.00  0.00    +0.000 C 
BRANCH  15  16
ATOM     16  N   UNL     1      51.210   7.810  14.128  0.00  0.00    +0.000 NA
ATOM     17  H   UNL     1      51.819   8.430  14.660  0.00  0.00    +0.000 HD
ATOM     18  H   UNL     1      51.213   8.144  13.162  0.00  0.00    +0.000 HD
ENDBRANCH  15  16
ENDBRANCH   3  15
ENDBRANCH   1   3
BRANCH   1  19
ATOM     19  C   UNL     1      47.778   6.662  13.467  0.00  0.00    +0.000 C 
BRANCH  19  20
ATOM     20  C   UNL     1      46.805   5.796  12.699  0.00  0.00    +0.000 A 
ATOM     21  C   UNL     1      46.310   4.607  13.255  0.00  0.00    +0.000 A 
ATOM     22  C   UNL     1      45.378   3.830  12.560  0.00  0.00    +0.000 A 
ATOM     23  C   UNL     1      44.906   4.234  11.304  0.00  0.00    +0.000 A 
ATOM     24  C   UNL     1      45.398   5.424  10.752  0.00  0.00    +0.000 A 
ATOM     25  C   UNL     1      46.338   6.195  11.441  0.00  0.00    +0.000 A 
BRANCH  23  26
ATOM     26  C   UNL     1      43.898   3.394  10.550  0.00  0.00    +0.000 C 
BRANCH  26  27
ATOM     27  N   UNL     1      44.272   3.247   9.147  0.00  0.00    +0.000 NA
ATOM     28  H   UNL     1      44.848   4.042   8.865  0.00  0.00    +0.000 HD
BRANCH  27  29
ATOM     29  C   UNL     1      45.058   2.031   8.936  0.00  0.00    +0.000 C 
BRANCH  29  30
ATOM     30  C   UNL     1      46.170   2.352   7.991  0.00  0.00    +0.000 A 
ATOM     31  C   UNL     1      46.520   3.577   7.457  0.00  0.00    +0.000 A 
ATOM     32  N   UNL     1      47.611   3.332   6.675  0.00  0.00    +0.000 N 
ATOM     33  C   UNL     1      47.883   1.996   6.749  0.00  0.00    +0.000 A 
ATOM     34  N   UNL     1      47.030   1.375   7.532  0.00  0.00    +0.000 NA
ATOM     35  H   UNL     1      48.136   4.014   6.140  0.00  0.00    +0.000 HD
ENDBRANCH  29  30
ENDBRANCH  27  29
ENDBRANCH  26  27
ENDBRANCH  23  26
ENDBRANCH  19  20
ENDBRANCH   1  19
TORSDOF 10
ENDMDL
MODEL 3
REMARK VINA RESULT:    -6.936      1.780      2.706
REMARK INTER + INTRA:         -11.651
REMARK INTER:                 -10.617
REMARK INTRA:                  -1.033
REMARK UNBOUND:                -0.863
REMARK  Name = 
REMARK  10 active torsions:
REMARK  status: ('A' for Active; 'I' for Inactive)
REMARK    1  A    between atoms: N_1  and  C_2
REMARK    2  A    between atoms: C_2  and  C_3
REMARK    3  A    between atoms: C_3  and  N_4
REMARK    4  A    between atoms: C_3  and  C_20
REMARK    5  A    between atoms: N_4  and  C_5
REMARK    6  A    between atoms: C_5  and  C_6
REMARK    7  A    between atoms: C_9  and  C_10
REMARK    8  A    between atoms: C_10  and  N_11
REMARK    9  A    between atoms: N_11  and  C_12
REMARK   10  A    between atoms: C_12  and  C_13
REMARK                            x       y       z     vdW  Elec       q    Type
REMARK                         _______ _______ _______ _____ _____    ______ ____
ROOT
ATOM      1  N   UNL     1      49.343   5.530  16.089  0.00  0.00    +0.000 NA
ATOM      2  H   UNL     1      50.111   4.950  15.746  0.00  0.00    +0.000 HD
ENDROOT
BRANCH   1   3
ATOM      3  C   UNL     1      49.569   5.807  17.523  0.00  0.00    +0.000 C 
BRANCH   3   4
ATOM      4  C   UNL     1      50.817   5.037  17.944  0.00  0.00    +0.000 A 
ATOM      5  C   UNL     1      51.937   5.600  18.542  0.00  0.00    +0.000 A 
ATOM      6  S   UNL     1      53.193   4.480  18.821  0.00  0.00    +0.000 S 
ATOM      7  C   UNL     1      52.291   3.208  18.140  0.00  0.00    +0.000 A 
ATOM      8  N   UNL     1      52.805   1.951  18.047  0.00  0.00    +0.000 NA
ATOM      9  C   UNL     1      52.016   1.096  17.491  0.00  0.00    +0.000 A 
ATOM     10  N   UNL     1      50.754   1.378  17.026  0.00  0.00    +0.000 N 
ATOM     11  C   UNL     1      50.182   2.627  17.111  0.00  0.00    +0.000 A 
ATOM     12  O   UNL     1      49.036   2.832  16.722  0.00  0.00    +0.000 OA
ATOM     13  C   UNL     1      51.042   3.627  17.721  0.00  0.00    +0.000 A 
ATOM     14  H   UNL     1      50.185   0.655  16.612  0.00  0.00    +0.000 HD
ENDBRANCH   3   4
BRANCH   3  15
ATOM     15  C   UNL     1      48.348   5.399  18.414  0.00  0.00    +0.000 C 
BRANCH  15  16
ATOM     16  N   UNL     1      47.129   5.030  17.681  0.00  0.00    +0.000 NA
ATOM     17  H   UNL     1      46.316   5.274  18.244  0.00  0.00    +0.000 HD
ATOM     18  H   UNL     1      47.110   4.016  17.553  0.00  0.00    +0.000 HD
ENDBRANCH  15  16
ENDBRANCH   3  15
ENDBRANCH   1   3
BRANCH   1  19
ATOM     19  C   UNL     1      49.285   6.735  15.263  0.00  0.00    +0.000 C 
BRANCH  19  20
ATOM     20  C   UNL     1      48.044   6.759  14.402  0.00  0.00    +0.000 A 
ATOM     21  C   UNL     1      47.537   7.969  13.906  0.00  0.00    +0.000 A 
ATOM     22  C   UNL     1      46.413   7.984  13.074  0.00  0.00    +0.000 A 
ATOM     23  C   UNL     1      45.783   6.788  12.703  0.00  0.00    +0.000 A 
ATOM     24  C   UNL     1      46.293   5.580  13.195  0.00  0.00    +0.000 A 
ATOM     25  C   UNL     1      47.410   5.565  14.035  0.00  0.00    +0.000 A 
BRANCH  23  26
ATOM     26  C   UNL     1      44.567   6.802  11.804  0.00  0.00    +0.000 C 
BRANCH  26  27
ATOM     27  N   UNL     1      43.449   6.086  12.410  0.00  0.00    +0.000 NA
ATOM     28  H   UNL     1      42.830   6.755  12.872  0.00  0.00    +0.000 HD
BRANCH  27  29
ATOM     29  C   UNL     1      42.664   5.380  11.399  0.00  0.00    +0.000 C 
BRANCH  29  30
ATOM     30  C   UNL     1      43.484   4.242  10.882  0.00  0.00    +0.000 A 
ATOM     31  C   UNL     1      43.878   3.094  11.543  0.00  0.00    +0.000 A 
ATOM     32  N   UNL     1      44.587   2.374  10.626  0.00  0.00    +0.000 N 
ATOM     33  C   UNL     1      44.608   3.091   9.462  0.00  0.00    +0.000 A 
ATOM     34  N   UNL     1      43.955   4.224   9.584  0.00  0.00    +0.000 NA
ATOM     35  H   UNL     1      45.015   1.468  10.770  0.00  0.00    +0.000 HD
ENDBRANCH  29  30
ENDBRANCH  27  29
ENDBRANCH  26  27
ENDBRANCH  23  26
ENDBRANCH  19  20
ENDBRANCH   1  19
TORSDOF 10
ENDMDL
MODEL 4
REMARK VINA RESULT:    -6.858      2.051      2.566
REMARK INTER + INTRA:         -11.530
REMARK INTER:                 -10.423
REMARK INTRA:                  -1.107
REMARK UNBOUND:                -0.863
REMARK  Name = 
REMARK  10 active torsions:
REMARK  status: ('A' for Active; 'I' for Inactive)
REMARK    1  A    between atoms: N_1  and  C_2
REMARK    2  A    between atoms: C_2  and  C_3
REMARK    3  A    between atoms: C_3  and  N_4
REMARK    4  A    between atoms: C_3  and  C_20
REMARK    5  A    between atoms: N_4  and  C_5
REMARK    6  A    between atoms: C_5  and  C_6
REMARK    7  A    between atoms: C_9  and  C_10
REMARK    8  A    between atoms: C_10  and  N_11
REMARK    9  A    between atoms: N_11  and  C_12
REMARK   10  A    between atoms: C_12  and  C_13
REMARK                            x       y       z     vdW  Elec       q    Type
REMARK                         _______ _______ _______ _____ _____    ______ ____
ROOT
ATOM      1  N   UNL     1      48.473   7.310  16.266  0.00  0.00    +0.000 NA
ATOM      2  H   UNL     1      47.521   6.955  16.168  0.00  0.00    +0.000 HD
ENDROOT
BRANCH   1   3
ATOM      3  C   UNL     1      49.077   6.707  17.473  0.00  0.00    +0.000 C 
BRANCH   3   4
ATOM      4  C   UNL     1      48.845   5.201  17.392  0.00  0.00    +0.000 A 
ATOM      5  C   UNL     1      47.599   4.587  17.369  0.00  0.00    +0.000 A 
ATOM      6  S   UNL     1      47.682   2.883  17.351  0.00  0.00    +0.000 S 
ATOM      7  C   UNL     1      49.383   2.906  17.388  0.00  0.00    +0.000 A 
ATOM      8  N   UNL     1      50.103   1.750  17.409  0.00  0.00    +0.000 NA
ATOM      9  C   UNL     1      51.380   1.924  17.457  0.00  0.00    +0.000 A 
ATOM     10  N   UNL     1      52.007   3.146  17.477  0.00  0.00    +0.000 N 
ATOM     11  C   UNL     1      51.327   4.342  17.438  0.00  0.00    +0.000 A 
ATOM     12  O   UNL     1      51.924   5.415  17.414  0.00  0.00    +0.000 OA
ATOM     13  C   UNL     1      49.882   4.195  17.397  0.00  0.00    +0.000 A 
ATOM     14  H   UNL     1      53.014   3.207  17.501  0.00  0.00    +0.000 HD
ENDBRANCH   3   4
BRANCH   3  15
ATOM     15  C   UNL     1      48.475   7.283  18.798  0.00  0.00    +0.000 C 
BRANCH  15  16
ATOM     16  N   UNL     1      47.172   7.947  18.662  0.00  0.00    +0.000 NA
ATOM     17  H   UNL     1      46.922   8.375  19.552  0.00  0.00    +0.000 HD
ATOM     18  H   UNL     1      46.458   7.245  18.457  0.00  0.00    +0.000 HD
ENDBRANCH  15  16
ENDBRANCH   3  15
ENDBRANCH   1   3
BRANCH   1  19
ATOM     19  C   UNL     1      49.198   7.002  15.035  0.00  0.00    +0.000 C 
BRANCH  19  20
ATOM     20  C   UNL     1      48.252   6.677  13.901  0.00  0.00    +0.000 A 
ATOM     21  C   UNL     1      47.346   5.612  14.005  0.00  0.00    +0.000 A 
ATOM     22  C   UNL     1      46.444   5.340  12.972  0.00  0.00    +0.000 A 
ATOM     23  C   UNL     1      46.413   6.140  11.822  0.00  0.00    +0.000 A 
ATOM     24  C   UNL     1      47.315   7.207  11.721  0.00  0.00    +0.000 A 
ATOM     25  C   UNL     1      48.225   7.472  12.748  0.00  0.00    +0.000 A 
BRANCH  23  26
ATOM     26  C   UNL     1      45.438   5.848  10.703  0.00  0.00    +0.000 C 
BRANCH  26  27
ATOM     27  N   UNL     1      45.032   4.446  10.703  0.00  0.00    +0.000 NA
ATOM     28  H   UNL     1      44.368   4.287  11.462  0.00  0.00    +0.000 HD
BRANCH  27  29
ATOM     29  C   UNL     1      44.370   4.089   9.449  0.00  0.00    +0.000 C 
BRANCH  29  30
ATOM     30  C   UNL     1      45.373   3.425   8.563  0.00  0.00    +0.000 A 
ATOM     31  C   UNL     1      45.782   2.106   8.561  0.00  0.00    +0.000 A 
ATOM     32  N   UNL     1      46.693   2.010   7.550  0.00  0.00    +0.000 N 
ATOM     33  C   UNL     1      46.814   3.246   6.982  0.00  0.00    +0.000 A 
ATOM     34  N   UNL     1      46.034   4.124   7.572  0.00  0.00    +0.000 NA
ATOM     35  H   UNL     1      47.188   1.175   7.260  0.00  0.00    +0.000 HD
ENDBRANCH  29  30
ENDBRANCH  27  29
ENDBRANCH  26  27
ENDBRANCH  23  26
ENDBRANCH  19  20
ENDBRANCH   1  19
TORSDOF 10
ENDMDL
MODEL 5
REMARK VINA RESULT:    -6.430      3.600      8.558
REMARK INTER + INTRA:         -10.864
REMARK INTER:                  -9.443
REMARK INTRA:                  -1.420
REMARK UNBOUND:                -0.863
REMARK  Name = 
REMARK  10 active torsions:
REMARK  status: ('A' for Active; 'I' for Inactive)
REMARK    1  A    between atoms: N_1  and  C_2
REMARK    2  A    between atoms: C_2  and  C_3
REMARK    3  A    between atoms: C_3  and  N_4
REMARK    4  A    between atoms: C_3  and  C_20
REMARK    5  A    between atoms: N_4  and  C_5
REMARK    6  A    between atoms: C_5  and  C_6
REMARK    7  A    between atoms: C_9  and  C_10
REMARK    8  A    between atoms: C_10  and  N_11
REMARK    9  A    between atoms: N_11  and  C_12
REMARK   10  A    between atoms: C_12  and  C_13
REMARK                            x       y       z     vdW  Elec       q    Type
REMARK                         _______ _______ _______ _____ _____    ______ ____
ROOT
ATOM      1  N   UNL     1      47.704   7.091  11.561  0.00  0.00    +0.000 NA
ATOM      2  H   UNL     1      48.204   6.282  11.932  0.00  0.00    +0.000 HD
ENDROOT
BRANCH   1   3
ATOM      3  C   UNL     1      46.268   6.938  11.872  0.00  0.00    +0.000 C 
BRANCH   3   4
ATOM      4  C   UNL     1      45.735   5.796  11.012  0.00  0.00    +0.000 A 
ATOM      5  C   UNL     1      45.921   5.678   9.640  0.00  0.00    +0.000 A 
ATOM      6  S   UNL     1      45.136   4.324   8.962  0.00  0.00    +0.000 S 
ATOM      7  C   UNL     1      44.510   3.856  10.473  0.00  0.00    +0.000 A 
ATOM      8  N   UNL     1      43.713   2.758  10.596  0.00  0.00    +0.000 NA
ATOM      9  C   UNL     1      43.297   2.539  11.797  0.00  0.00    +0.000 A 
ATOM     10  N   UNL     1      43.610   3.309  12.890  0.00  0.00    +0.000 N 
ATOM     11  C   UNL     1      44.424   4.416  12.824  0.00  0.00    +0.000 A 
ATOM     12  O   UNL     1      44.716   5.056  13.830  0.00  0.00    +0.000 OA
ATOM     13  C   UNL     1      44.907   4.710  11.485  0.00  0.00    +0.000 A 
ATOM     14  H   UNL     1      43.258   3.070  13.805  0.00  0.00    +0.000 HD
ENDBRANCH   3   4
BRANCH   3  15
ATOM     15  C   UNL     1      45.452   8.247  11.609  0.00  0.00    +0.000 C 
BRANCH  15  16
ATOM     16  N   UNL     1      44.840   8.858  12.797  0.00  0.00    +0.000 NA
ATOM     17  H   UNL     1      43.917   9.212  12.551  0.00  0.00    +0.000 HD
ATOM     18  H   UNL     1      45.401   9.662  13.086  0.00  0.00    +0.000 HD
ENDBRANCH  15  16
ENDBRANCH   3  15
ENDBRANCH   1   3
BRANCH   1  19
ATOM     19  C   UNL     1      48.302   8.294  12.139  0.00  0.00    +0.000 C 
BRANCH  19  20
ATOM     20  C   UNL     1      48.500   8.153  13.631  0.00  0.00    +0.000 A 
ATOM     21  C   UNL     1      48.034   9.140  14.512  0.00  0.00    +0.000 A 
ATOM     22  C   UNL     1      48.181   8.987  15.894  0.00  0.00    +0.000 A 
ATOM     23  C   UNL     1      48.778   7.836  16.426  0.00  0.00    +0.000 A 
ATOM     24  C   UNL     1      49.238   6.849  15.545  0.00  0.00    +0.000 A 
ATOM     25  C   UNL     1      49.101   7.006  14.163  0.00  0.00    +0.000 A 
BRANCH  23  26
ATOM     26  C   UNL     1      48.939   7.668  17.921  0.00  0.00    +0.000 C 
BRANCH  26  27
ATOM     27  N   UNL     1      47.835   6.903  18.492  0.00  0.00    +0.000 NA
ATOM     28  H   UNL     1      47.219   6.587  17.742  0.00  0.00    +0.000 HD
BRANCH  27  29
ATOM     29  C   UNL     1      48.325   5.718  19.197  0.00  0.00    +0.000 C 
BRANCH  29  30
ATOM     30  C   UNL     1      48.300   4.566  18.245  0.00  0.00    +0.000 A 
ATOM     31  C   UNL     1      49.195   3.520  18.136  0.00  0.00    +0.000 A 
ATOM     32  N   UNL     1      48.711   2.731  17.134  0.00  0.00    +0.000 N 
ATOM     33  C   UNL     1      47.564   3.311  16.668  0.00  0.00    +0.000 A 
ATOM     34  N   UNL     1      47.290   4.421  17.315  0.00  0.00    +0.000 NA
ATOM     35  H   UNL     1      49.117   1.867  16.795  0.00  0.00    +0.000 HD
ENDBRANCH  29  30
ENDBRANCH  27  29
ENDBRANCH  26  27
ENDBRANCH  23  26
ENDBRANCH  19  20
ENDBRANCH   1  19
TORSDOF 10
ENDMDL
MODEL 6
REMARK VINA RESULT:    -6.333      2.818      4.061
REMARK INTER + INTRA:         -10.713
REMARK INTER:                  -9.647
REMARK INTRA:                  -1.065
REMARK UNBOUND:                -0.863
REMARK  Name = 
REMARK  10 active torsions:
REMARK  status: ('A' for Active; 'I' for Inactive)
REMARK    1  A    between atoms: N_1  and  C_2
REMARK    2  A    between atoms: C_2  and  C_3
REMARK    3  A    between atoms: C_3  and  N_4
REMARK    4  A    between atoms: C_3  and  C_20
REMARK    5  A    between atoms: N_4  and  C_5
REMARK    6  A    between atoms: C_5  and  C_6
REMARK    7  A    between atoms: C_9  and  C_10
REMARK    8  A    between atoms: C_10  and  N_11
REMARK    9  A    between atoms: N_11  and  C_12
REMARK   10  A    between atoms: C_12  and  C_13
REMARK                            x       y       z     vdW  Elec       q    Type
REMARK                         _______ _______ _______ _____ _____    ______ ____
ROOT
ATOM      1  N   UNL     1      48.519   8.110  13.897  0.00  0.00    +0.000 NA
ATOM      2  H   UNL     1      47.608   8.212  14.347  0.00  0.00    +0.000 HD
ENDROOT
BRANCH   1   3
ATOM      3  C   UNL     1      49.487   7.624  14.903  0.00  0.00    +0.000 C 
BRANCH   3   4
ATOM      4  C   UNL     1      48.897   7.916  16.279  0.00  0.00    +0.000 A 
ATOM      5  C   UNL     1      48.644   9.185  16.785  0.00  0.00    +0.000 A 
ATOM      6  S   UNL     1      48.052   9.173  18.385  0.00  0.00    +0.000 S 
ATOM      7  C   UNL     1      48.127   7.474  18.462  0.00  0.00    +0.000 A 
ATOM      8  N   UNL     1      47.769   6.805  19.593  0.00  0.00    +0.000 NA
ATOM      9  C   UNL     1      47.896   5.524  19.511  0.00  0.00    +0.000 A 
ATOM     10  N   UNL     1      48.340   4.847  18.401  0.00  0.00    +0.000 N 
ATOM     11  C   UNL     1      48.696   5.475  17.229  0.00  0.00    +0.000 A 
ATOM     12  O   UNL     1      49.047   4.833  16.243  0.00  0.00    +0.000 OA
ATOM     13  C   UNL     1      48.580   6.922  17.279  0.00  0.00    +0.000 A 
ATOM     14  H   UNL     1      48.402   3.840  18.403  0.00  0.00    +0.000 HD
ENDBRANCH   3   4
BRANCH   3  15
ATOM     15  C   UNL     1      50.893   8.296  14.757  0.00  0.00    +0.000 C 
BRANCH  15  16
ATOM     16  N   UNL     1      51.102   9.058  13.518  0.00  0.00    +0.000 NA
ATOM     17  H   UNL     1      51.821   9.761  13.677  0.00  0.00    +0.000 HD
ATOM     18  H   UNL     1      50.242   9.557  13.283  0.00  0.00    +0.000 HD
ENDBRANCH  15  16
ENDBRANCH   3  15
ENDBRANCH   1   3
BRANCH   1  19
ATOM     19  C   UNL     1      48.360   7.209  12.757  0.00  0.00    +0.000 C 
BRANCH  19  20
ATOM     20  C   UNL     1      47.000   6.549  12.757  0.00  0.00    +0.000 A 
ATOM     21  C   UNL     1      46.782   5.357  13.463  0.00  0.00    +0.000 A 
ATOM     22  C   UNL     1      45.512   4.771  13.496  0.00  0.00    +0.000 A 
ATOM     23  C   UNL     1      44.430   5.374  12.841  0.00  0.00    +0.000 A 
ATOM     24  C   UNL     1      44.649   6.566  12.140  0.00  0.00    +0.000 A 
ATOM     25  C   UNL     1      45.920   7.147  12.097  0.00  0.00    +0.000 A 
BRANCH  23  26
ATOM     26  C   UNL     1      43.056   4.741  12.875  0.00  0.00    +0.000 C 
BRANCH  26  27
ATOM     27  N   UNL     1      42.699   4.175  11.579  0.00  0.00    +0.000 NA
ATOM     28  H   UNL     1      42.949   4.836  10.840  0.00  0.00    +0.000 HD
BRANCH  27  29
ATOM     29  C   UNL     1      43.428   2.931  11.328  0.00  0.00    +0.000 C 
BRANCH  29  30
ATOM     30  C   UNL     1      44.166   3.075  10.037  0.00  0.00    +0.000 A 
ATOM     31  C   UNL     1      44.777   2.093   9.281  0.00  0.00    +0.000 A 
ATOM     32  N   UNL     1      45.287   2.740   8.192  0.00  0.00    +0.000 N 
ATOM     33  C   UNL     1      44.984   4.066   8.318  0.00  0.00    +0.000 A 
ATOM     34  N   UNL     1      44.311   4.302   9.422  0.00  0.00    +0.000 NA
ATOM     35  H   UNL     1      45.792   2.319   7.422  0.00  0.00    +0.000 HD
ENDBRANCH  29  30
ENDBRANCH  27  29
ENDBRANCH  26  27
ENDBRANCH  23  26
ENDBRANCH  19  20
ENDBRANCH   1  19
TORSDOF 10
ENDMDL
MODEL 7
REMARK VINA RESULT:    -6.297      3.470      8.822
REMARK INTER + INTRA:         -10.658
REMARK INTER:                  -9.747
REMARK INTRA:                  -0.910
REMARK UNBOUND:                -0.863
REMARK  Name = 
REMARK  10 active torsions:
REMARK  status: ('A' for Active; 'I' for Inactive)
REMARK    1  A    between atoms: N_1  and  C_2
REMARK    2  A    between atoms: C_2  and  C_3
REMARK    3  A    between atoms: C_3  and  N_4
REMARK    4  A    between atoms: C_3  and  C_20
REMARK    5  A    between atoms: N_4  and  C_5
REMARK    6  A    between atoms: C_5  and  C_6
REMARK    7  A    between atoms: C_9  and  C_10
REMARK    8  A    between atoms: C_10  and  N_11
REMARK    9  A    between atoms: N_11  and  C_12
REMARK   10  A    between atoms: C_12  and  C_13
REMARK                            x       y       z     vdW  Elec       q    Type
REMARK                         _______ _______ _______ _____ _____    ______ ____
ROOT
ATOM      1  N   UNL     1      46.711   6.403  11.690  0.00  0.00    +0.000 NA
ATOM      2  H   UNL     1      47.121   5.634  12.222  0.00  0.00    +0.000 HD
ENDROOT
BRANCH   1   3
ATOM      3  C   UNL     1      45.272   6.484  12.018  0.00  0.00    +0.000 C 
BRANCH   3   4
ATOM      4  C   UNL     1      44.664   5.113  11.737  0.00  0.00    +0.000 A 
ATOM      5  C   UNL     1      43.950   4.355  12.656  0.00  0.00    +0.000 A 
ATOM      6  S   UNL     1      43.467   2.834  12.052  0.00  0.00    +0.000 S 
ATOM      7  C   UNL     1      44.206   3.129  10.548  0.00  0.00    +0.000 A 
ATOM      8  N   UNL     1      44.181   2.198   9.556  0.00  0.00    +0.000 NA
ATOM      9  C   UNL     1      44.799   2.553   8.481  0.00  0.00    +0.000 A 
ATOM     10  N   UNL     1      45.434   3.758   8.302  0.00  0.00    +0.000 N 
ATOM     11  C   UNL     1      45.473   4.740   9.265  0.00  0.00    +0.000 A 
ATOM     12  O   UNL     1      46.014   5.821   9.053  0.00  0.00    +0.000 OA
ATOM     13  C   UNL     1      44.799   4.377  10.500  0.00  0.00    +0.000 A 
ATOM     14  H   UNL     1      45.887   3.974   7.427  0.00  0.00    +0.000 HD
ENDBRANCH   3   4
BRANCH   3  15
ATOM     15  C   UNL     1      44.529   7.590  11.196  0.00  0.00    +0.000 C 
BRANCH  15  16
ATOM     16  N   UNL     1      43.065   7.476  11.167  0.00  0.00    +0.000 NA
ATOM     17  H   UNL     1      42.696   8.114  10.464  0.00  0.00    +0.000 HD
ATOM     18  H   UNL     1      42.688   7.775  12.068  0.00  0.00    +0.000 HD
ENDBRANCH  15  16
ENDBRANCH   3  15
ENDBRANCH   1   3
BRANCH   1  19
ATOM     19  C   UNL     1      47.452   7.620  12.012  0.00  0.00    +0.000 C 
BRANCH  19  20
ATOM     20  C   UNL     1      47.853   7.657  13.469  0.00  0.00    +0.000 A 
ATOM     21  C   UNL     1      48.281   6.494  14.125  0.00  0.00    +0.000 A 
ATOM     22  C   UNL     1      48.691   6.539  15.461  0.00  0.00    +0.000 A 
ATOM     23  C   UNL     1      48.701   7.751  16.165  0.00  0.00    +0.000 A 
ATOM     24  C   UNL     1      48.278   8.913  15.507  0.00  0.00    +0.000 A 
ATOM     25  C   UNL     1      47.857   8.867  14.175  0.00  0.00    +0.000 A 
BRANCH  23  26
ATOM     26  C   UNL     1      49.143   7.803  17.610  0.00  0.00    +0.000 C 
BRANCH  26  27
ATOM     27  N   UNL     1      48.193   7.121  18.482  0.00  0.00    +0.000 NA
ATOM     28  H   UNL     1      47.398   6.796  17.928  0.00  0.00    +0.000 HD
BRANCH  27  29
ATOM     29  C   UNL     1      48.803   5.952  19.115  0.00  0.00    +0.000 C 
BRANCH  29  30
ATOM     30  C   UNL     1      48.391   4.737  18.348  0.00  0.00    +0.000 A 
ATOM     31  C   UNL     1      49.171   3.677  17.929  0.00  0.00    +0.000 A 
ATOM     32  N   UNL     1      48.315   2.827  17.292  0.00  0.00    +0.000 N 
ATOM     33  C   UNL     1      47.068   3.383  17.337  0.00  0.00    +0.000 A 
ATOM     34  N   UNL     1      47.080   4.538  17.964  0.00  0.00    +0.000 NA
ATOM     35  H   UNL     1      48.552   1.937  16.869  0.00  0.00    +0.000 HD
ENDBRANCH  29  30
ENDBRANCH  27  29
ENDBRANCH  26  27
ENDBRANCH  23  26
ENDBRANCH  19  20
ENDBRANCH   1  19
TORSDOF 10
ENDMDL
MODEL 8
REMARK VINA RESULT:    -6.211      4.274      5.083
REMARK INTER + INTRA:         -10.523
REMARK INTER:                  -9.686
REMARK INTRA:                  -0.837
REMARK UNBOUND:                -0.863
REMARK  Name = 
REMARK  10 active torsions:
REMARK  status: ('A' for Active; 'I' for Inactive)
REMARK    1  A    between atoms: N_1  and  C_2
REMARK    2  A    between atoms: C_2  and  C_3
REMARK    3  A    between atoms: C_3  and  N_4
REMARK    4  A    between atoms: C_3  and  C_20
REMARK    5  A    between atoms: N_4  and  C_5
REMARK    6  A    between atoms: C_5  and  C_6
REMARK    7  A    between atoms: C_9  and  C_10
REMARK    8  A    between atoms: C_10  and  N_11
REMARK    9  A    between atoms: N_11  and  C_12
REMARK   10  A    between atoms: C_12  and  C_13
REMARK                            x       y       z     vdW  Elec       q    Type
REMARK                         _______ _______ _______ _____ _____    ______ ____
ROOT
ATOM      1  N   UNL     1      47.557   7.939  14.093  0.00  0.00    +0.000 NA
ATOM      2  H   UNL     1      47.779   8.293  15.025  0.00  0.00    +0.000 HD
ENDROOT
BRANCH   1   3
ATOM      3  C   UNL     1      48.312   8.729  13.098  0.00  0.00    +0.000 C 
BRANCH   3   4
ATOM      4  C   UNL     1      49.708   8.964  13.670  0.00  0.00    +0.000 A 
ATOM      5  C   UNL     1      49.979   9.606  14.871  0.00  0.00    +0.000 A 
ATOM      6  S   UNL     1      51.647   9.773  15.190  0.00  0.00    +0.000 S 
ATOM      7  C   UNL     1      52.064   9.007  13.729  0.00  0.00    +0.000 A 
ATOM      8  N   UNL     1      53.366   8.840  13.368  0.00  0.00    +0.000 NA
ATOM      9  C   UNL     1      53.528   8.262  12.227  0.00  0.00    +0.000 A 
ATOM     10  N   UNL     1      52.510   7.826  11.414  0.00  0.00    +0.000 N 
ATOM     11  C   UNL     1      51.179   7.955  11.740  0.00  0.00    +0.000 A 
ATOM     12  O   UNL     1      50.297   7.515  11.009  0.00  0.00    +0.000 OA
ATOM     13  C   UNL     1      50.947   8.613  13.015  0.00  0.00    +0.000 A 
ATOM     14  H   UNL     1      52.711   7.369  10.538  0.00  0.00    +0.000 HD
ENDBRANCH   3   4
BRANCH   3  15
ATOM     15  C   UNL     1      47.622  10.093  12.764  0.00  0.00    +0.000 C 
BRANCH  15  16
ATOM     16  N   UNL     1      46.162  10.039  12.605  0.00  0.00    +0.000 NA
ATOM     17  H   UNL     1      45.940   9.878  11.624  0.00  0.00    +0.000 HD
ATOM     18  H   UNL     1      45.764  10.946  12.857  0.00  0.00    +0.000 HD
ENDBRANCH  15  16
ENDBRANCH   3  15
ENDBRANCH   1   3
BRANCH   1  19
ATOM     19  C   UNL     1      47.872   6.512  14.066  0.00  0.00    +0.000 C 
BRANCH  19  20
ATOM     20  C   UNL     1      46.904   5.746  13.193  0.00  0.00    +0.000 A 
ATOM     21  C   UNL     1      46.430   6.297  11.994  0.00  0.00    +0.000 A 
ATOM     22  C   UNL     1      45.568   5.570  11.167  0.00  0.00    +0.000 A 
ATOM     23  C   UNL     1      45.177   4.268  11.511  0.00  0.00    +0.000 A 
ATOM     24  C   UNL     1      45.655   3.717  12.707  0.00  0.00    +0.000 A 
ATOM     25  C   UNL     1      46.508   4.449  13.539  0.00  0.00    +0.000 A 
BRANCH  23  26
ATOM     26  C   UNL     1      44.245   3.480  10.619  0.00  0.00    +0.000 C 
BRANCH  26  27
ATOM     27  N   UNL     1      44.910   2.311  10.054  0.00  0.00    +0.000 NA
ATOM     28  H   UNL     1      44.549   1.466  10.501  0.00  0.00    +0.000 HD
BRANCH  27  29
ATOM     29  C   UNL     1      44.652   2.200   8.618  0.00  0.00    +0.000 C 
BRANCH  29  30
ATOM     30  C   UNL     1      45.935   2.441   7.893  0.00  0.00    +0.000 A 
ATOM     31  C   UNL     1      46.454   3.636   7.433  0.00  0.00    +0.000 A 
ATOM     32  N   UNL     1      47.652   3.316   6.863  0.00  0.00    +0.000 N 
ATOM     33  C   UNL     1      47.821   1.966   6.984  0.00  0.00    +0.000 A 
ATOM     34  N   UNL     1      46.802   1.407   7.597  0.00  0.00    +0.000 NA
ATOM     35  H   UNL     1      48.307   3.958   6.433  0.00  0.00    +0.000 HD
ENDBRANCH  29  30
ENDBRANCH  27  29
ENDBRANCH  26  27
ENDBRANCH  23  26
ENDBRANCH  19  20
ENDBRANCH   1  19
TORSDOF 10
ENDMDL
MODEL 9
REMARK VINA RESULT:    -6.207      2.691      3.787
REMARK INTER + INTRA:         -10.517
REMARK INTER:                  -9.244
REMARK INTRA:                  -1.273
REMARK UNBOUND:                -0.863
REMARK  Name = 
REMARK  10 active torsions:
REMARK  status: ('A' for Active; 'I' for Inactive)
REMARK    1  A    between atoms: N_1  and  C_2
REMARK    2  A    between atoms: C_2  and  C_3
REMARK    3  A    between atoms: C_3  and  N_4
REMARK    4  A    between atoms: C_3  and  C_20
REMARK    5  A    between atoms: N_4  and  C_5
REMARK    6  A    between atoms: C_5  and  C_6
REMARK    7  A    between atoms: C_9  and  C_10
REMARK    8  A    between atoms: C_10  and  N_11
REMARK    9  A    between atoms: N_11  and  C_12
REMARK   10  A    between atoms: C_12  and  C_13
REMARK                            x       y       z     vdW  Elec       q    Type
REMARK                         _______ _______ _______ _____ _____    ______ ____
ROOT
ATOM      1  N   UNL     1      48.348   6.913  18.256  0.00  0.00    +0.000 NA
ATOM      2  H   UNL     1      47.957   6.160  17.688  0.00  0.00    +0.000 HD
ENDROOT
BRANCH   1   3
ATOM      3  C   UNL     1      49.213   6.316  19.295  0.00  0.00    +0.000 C 
BRANCH   3   4
ATOM      4  C   UNL     1      49.898   5.103  18.674  0.00  0.00    +0.000 A 
ATOM      5  C   UNL     1      51.262   4.844  18.727  0.00  0.00    +0.000 A 
ATOM      6  S   UNL     1      51.721   3.442  17.870  0.00  0.00    +0.000 S 
ATOM      7  C   UNL     1      50.117   3.140  17.387  0.00  0.00    +0.000 A 
ATOM      8  N   UNL     1      49.808   2.075  16.597  0.00  0.00    +0.000 NA
ATOM      9  C   UNL     1      48.558   1.986  16.295  0.00  0.00    +0.000 A 
ATOM     10  N   UNL     1      47.583   2.858  16.717  0.00  0.00    +0.000 N 
ATOM     11  C   UNL     1      47.839   3.938  17.530  0.00  0.00    +0.000 A 
ATOM     12  O   UNL     1      46.936   4.671  17.922  0.00  0.00    +0.000 OA
ATOM     13  C   UNL     1      49.241   4.086  17.886  0.00  0.00    +0.000 A 
ATOM     14  H   UNL     1      46.620   2.719  16.452  0.00  0.00    +0.000 HD
ENDBRANCH   3   4
BRANCH   3  15
ATOM     15  C   UNL     1      48.415   5.898  20.575  0.00  0.00    +0.000 C 
BRANCH  15  16
ATOM     16  N   UNL     1      46.952   5.904  20.435  0.00  0.00    +0.000 NA
ATOM     17  H   UNL     1      46.691   5.312  19.648  0.00  0.00    +0.000 HD
ATOM     18  H   UNL     1      46.641   6.852  20.212  0.00  0.00    +0.000 HD
ENDBRANCH  15  16
ENDBRANCH   3  15
ENDBRANCH   1   3
BRANCH   1  19
ATOM     19  C   UNL     1      49.056   7.829  17.363  0.00  0.00    +0.000 C 
BRANCH  19  20
ATOM     20  C   UNL     1      48.554   7.716  15.941  0.00  0.00    +0.000 A 
ATOM     21  C   UNL     1      48.580   6.486  15.268  0.00  0.00    +0.000 A 
ATOM     22  C   UNL     1      48.077   6.375  13.968  0.00  0.00    +0.000 A 
ATOM     23  C   UNL     1      47.519   7.486  13.320  0.00  0.00    +0.000 A 
ATOM     24  C   UNL     1      47.490   8.713  13.996  0.00  0.00    +0.000 A 
ATOM     25  C   UNL     1      48.003   8.827  15.291  0.00  0.00    +0.000 A 
BRANCH  23  26
ATOM     26  C   UNL     1      46.974   7.369  11.914  0.00  0.00    +0.000 C 
BRANCH  26  27
ATOM     27  N   UNL     1      45.688   6.680  11.897  0.00  0.00    +0.000 NA
ATOM     28  H   UNL     1      44.947   7.353  11.691  0.00  0.00    +0.000 HD
BRANCH  27  29
ATOM     29  C   UNL     1      45.655   5.650  10.859  0.00  0.00    +0.000 C 
BRANCH  29  30
ATOM     30  C   UNL     1      44.909   4.472  11.393  0.00  0.00    +0.000 A 
ATOM     31  C   UNL     1      45.309   3.560  12.352  0.00  0.00    +0.000 A 
ATOM     32  N   UNL     1      44.260   2.699  12.493  0.00  0.00    +0.000 N 
ATOM     33  C   UNL     1      43.277   3.098  11.632  0.00  0.00    +0.000 A 
ATOM     34  N   UNL     1      43.637   4.162  10.951  0.00  0.00    +0.000 NA
ATOM     35  H   UNL     1      44.208   1.909  13.125  0.00  0.00    +0.000 HD
ENDBRANCH  29  30
ENDBRANCH  27  29
ENDBRANCH  26  27
ENDBRANCH  23  26
ENDBRANCH  19  20
ENDBRANCH   1  19
TORSDOF 10
ENDMDL
