MODEL 1
REMARK VINA RESULT:    -6.100      0.000      0.000
REMARK INTER + INTRA:          -7.037
REMARK INTER:                  -6.813
REMARK INTRA:                  -0.224
REMARK UNBOUND:                -0.224
REMARK  Name = 
REMARK  2 active torsions:
REMARK  status: ('A' for Active; 'I' for Inactive)
REMARK    1  A    between atoms: C_11  and  C_12
REMARK    2  A    between atoms: C_13  and  C_14
REMARK                            x       y       z     vdW  Elec       q    Type
REMARK                         _______ _______ _______ _____ _____    ______ ____
ROOT
ATOM      1  F   UNL     1      42.722   3.952  11.341  0.00  0.00    +0.000 F 
ATOM      2  C   UNL     1      43.962   3.786  10.808  0.00  0.00    +0.000 C 
ATOM      3  F   UNL     1      43.810   2.914   9.775  0.00  0.00    +0.000 F 
ATOM      4  C   UNL     1      44.875   3.167  11.853  0.00  0.00    +0.000 C 
ATOM      5  C   UNL     1      45.193   4.177  12.952  0.00  0.00    +0.000 C 
ATOM      6  N   UNL     1      45.686   5.379  12.290  0.00  0.00    +0.000 N 
ATOM      7  C   UNL     1      46.805   6.033  12.767  0.00  0.00    +0.000 A 
ATOM      8  C   UNL     1      47.558   6.834  11.901  0.00  0.00    +0.000 A 
ATOM      9  C   UNL     1      48.714   7.468  12.345  0.00  0.00    +0.000 A 
ATOM     10  C   UNL     1      49.107   7.291  13.658  0.00  0.00    +0.000 A 
ATOM     11  C   UNL     1      48.330   6.470  14.458  0.00  0.00    +0.000 A 
ATOM     12  N   UNL     1      47.208   5.837  14.041  0.00  0.00    +0.000 NA
ATOM     13  C   UNL     1      44.728   6.053  11.421  0.00  0.00    +0.000 C 
ATOM     14  C   UNL     1      44.445   5.117  10.262  0.00  0.00    +0.000 C 
ENDROOT
BRANCH  11  15
ATOM     15  C   UNL     1      48.715   6.222  15.810  0.00  0.00    +0.000 C 
ATOM     16  C   UNL     1      49.003   5.970  16.951  0.00  0.00    +0.000 C 
BRANCH  16  17
ATOM     17  C   UNL     1      49.315   5.666  18.313  0.00  0.00    +0.000 A 
ATOM     18  C   UNL     1      50.542   6.059  18.855  0.00  0.00    +0.000 A 
ATOM     19  C   UNL     1      50.862   5.731  20.174  0.00  0.00    +0.000 A 
ATOM     20  C   UNL     1      49.955   5.013  20.954  0.00  0.00    +0.000 A 
ATOM     21  C   UNL     1      48.722   4.634  20.419  0.00  0.00    +0.000 A 
ATOM     22  C   UNL     1      48.402   4.961  19.100  0.00  0.00    +0.000 A 
ENDBRANCH  16  17
ENDBRANCH  11  15
TORSDOF 2
ENDMDL
MODEL 2
REMARK VINA RESULT:    -5.942      4.487      8.850
REMARK INTER + INTRA:          -6.861
REMARK INTER:                  -6.635
REMARK INTRA:                  -0.226
REMARK UNBOUND:                -0.224
REMARK  Name = 
REMARK  2 active torsions:
REMARK  status: ('A' for Active; 'I' for Inactive)
REMARK    1  A    between atoms: C_11  and  C_12
REMARK    2  A    between atoms: C_13  and  C_14
REMARK                            x       y       z     vdW  Elec       q    Type
REMARK                         _______ _______ _______ _____ _____    ______ ____
ROOT
ATOM      1  F   UNL     1      52.873   8.515  17.823  0.00  0.00    +0.000 F 
ATOM      2  C   UNL     1      53.021   7.163  17.827  0.00  0.00    +0.000 C 
ATOM      3  F   UNL     1      54.347   6.934  18.020  0.00  0.00    +0.000 F 
ATOM      4  C   UNL     1      52.611   6.612  16.472  0.00  0.00    +0.000 C 
ATOM      5  C   UNL     1      51.099   6.712  16.288  0.00  0.00    +0.000 C 
ATOM      6  N   UNL     1      50.490   6.085  17.455  0.00  0.00    +0.000 N 
ATOM      7  C   UNL     1      49.431   5.211  17.308  0.00  0.00    +0.000 A 
ATOM      8  C   UNL     1      49.183   4.254  18.299  0.00  0.00    +0.000 A 
ATOM      9  C   UNL     1      48.150   3.333  18.154  0.00  0.00    +0.000 A 
ATOM     10  C   UNL     1      47.373   3.379  17.013  0.00  0.00    +0.000 A 
ATOM     11  C   UNL     1      47.682   4.337  16.061  0.00  0.00    +0.000 A 
ATOM     12  N   UNL     1      48.690   5.234  16.180  0.00  0.00    +0.000 NA
ATOM     13  C   UNL     1      50.761   6.739  18.730  0.00  0.00    +0.000 C 
ATOM     14  C   UNL     1      52.247   6.589  18.999  0.00  0.00    +0.000 C 
ENDROOT
BRANCH  11  15
ATOM     15  C   UNL     1      46.936   4.400  14.846  0.00  0.00    +0.000 C 
ATOM     16  C   UNL     1      46.342   4.415  13.800  0.00  0.00    +0.000 C 
BRANCH  16  17
ATOM     17  C   UNL     1      45.662   4.431  12.542  0.00  0.00    +0.000 A 
ATOM     18  C   UNL     1      44.842   3.360  12.174  0.00  0.00    +0.000 A 
ATOM     19  C   UNL     1      44.206   3.360  10.931  0.00  0.00    +0.000 A 
ATOM     20  C   UNL     1      44.386   4.430  10.056  0.00  0.00    +0.000 A 
ATOM     21  C   UNL     1      45.191   5.508  10.427  0.00  0.00    +0.000 A 
ATOM     22  C   UNL     1      45.828   5.509  11.670  0.00  0.00    +0.000 A 
ENDBRANCH  16  17
ENDBRANCH  11  15
TORSDOF 2
ENDMDL
MODEL 3
REMARK VINA RESULT:    -5.783      3.708      8.356
REMARK INTER + INTRA:          -6.684
REMARK INTER:                  -6.459
REMARK INTRA:                  -0.225
REMARK UNBOUND:                -0.224
REMARK  Name = 
REMARK  2 active torsions:
REMARK  status: ('A' for Active; 'I' for Inactive)
REMARK    1  A    between atoms: C_11  and  C_12
REMARK    2  A    between atoms: C_13  and  C_14
REMARK                            x       y       z     vdW  Elec       q    Type
REMARK                         _______ _______ _______ _____ _____    ______ ____
ROOT
ATOM      1  F   UNL     1      50.689   4.014  19.013  0.00  0.00    +0.000 F 
ATOM      2  C   UNL     1      49.750   4.986  19.172  0.00  0.00    +0.000 C 
ATOM      3  F   UNL     1      49.518   5.064  20.509  0.00  0.00    +0.000 F 
ATOM      4  C   UNL     1      48.472   4.564  18.466  0.00  0.00    +0.000 C 
ATOM      5  C   UNL     1      48.653   4.618  16.952  0.00  0.00    +0.000 C 
ATOM      6  N   UNL     1      49.162   5.947  16.635  0.00  0.00    +0.000 N 
ATOM      7  C   UNL     1      48.635   6.666  15.580  0.00  0.00    +0.000 A 
ATOM      8  C   UNL     1      48.735   8.061  15.577  0.00  0.00    +0.000 A 
ATOM      9  C   UNL     1      48.174   8.812  14.548  0.00  0.00    +0.000 A 
ATOM     10  C   UNL     1      47.513   8.153  13.528  0.00  0.00    +0.000 A 
ATOM     11  C   UNL     1      47.432   6.772  13.600  0.00  0.00    +0.000 A 
ATOM     12  N   UNL     1      47.963   6.027  14.598  0.00  0.00    +0.000 NA
ATOM     13  C   UNL     1      50.475   6.263  17.186  0.00  0.00    +0.000 C 
ATOM     14  C   UNL     1      50.325   6.307  18.695  0.00  0.00    +0.000 C 
ENDROOT
BRANCH  11  15
ATOM     15  C   UNL     1      46.726   6.047  12.593  0.00  0.00    +0.000 C 
ATOM     16  C   UNL     1      46.174   5.400  11.743  0.00  0.00    +0.000 C 
BRANCH  16  17
ATOM     17  C   UNL     1      45.545   4.627  10.717  0.00  0.00    +0.000 A 
ATOM     18  C   UNL     1      44.834   3.470  11.048  0.00  0.00    +0.000 A 
ATOM     19  C   UNL     1      44.249   2.696  10.044  0.00  0.00    +0.000 A 
ATOM     20  C   UNL     1      44.371   3.079   8.708  0.00  0.00    +0.000 A 
ATOM     21  C   UNL     1      45.067   4.243   8.377  0.00  0.00    +0.000 A 
ATOM     22  C   UNL     1      45.653   5.017   9.381  0.00  0.00    +0.000 A 
ENDBRANCH  16  17
ENDBRANCH  11  15
TORSDOF 2
ENDMDL
MODEL 4
REMARK VINA RESULT:    -5.761      4.427      8.764
REMARK INTER + INTRA:          -6.659
REMARK INTER:                  -6.435
REMARK INTRA:                  -0.224
REMARK UNBOUND:                -0.224
REMARK  Name = 
REMARK  2 active torsions:
REMARK  status: ('A' for Active; 'I' for Inactive)
REMARK    1  A    between atoms: C_11  and  C_12
REMARK    2  A    between atoms: C_13  and  C_14
REMARK                            x       y       z     vdW  Elec       q    Type
REMARK                         _______ _______ _______ _____ _____    ______ ____
ROOT
ATOM      1  F   UNL     1      47.736   8.886  21.055  0.00  0.00    +0.000 F 
ATOM      2  C   UNL     1      48.890   8.325  20.603  0.00  0.00    +0.000 C 
ATOM      3  F   UNL     1      49.898   9.067  21.134  0.00  0.00    +0.000 F 
ATOM      4  C   UNL     1      48.936   8.429  19.088  0.00  0.00    +0.000 C 
ATOM      5  C   UNL     1      47.918   7.485  18.455  0.00  0.00    +0.000 C 
ATOM      6  N   UNL     1      48.158   6.163  19.022  0.00  0.00    +0.000 N 
ATOM      7  C   UNL     1      48.185   5.047  18.210  0.00  0.00    +0.000 A 
ATOM      8  C   UNL     1      48.887   3.909  18.624  0.00  0.00    +0.000 A 
ATOM      9  C   UNL     1      48.967   2.787  17.805  0.00  0.00    +0.000 A 
ATOM     10  C   UNL     1      48.342   2.816  16.574  0.00  0.00    +0.000 A 
ATOM     11  C   UNL     1      47.681   3.979  16.214  0.00  0.00    +0.000 A 
ATOM     12  N   UNL     1      47.601   5.084  16.993  0.00  0.00    +0.000 NA
ATOM     13  C   UNL     1      47.938   6.050  20.459  0.00  0.00    +0.000 C 
ATOM     14  C   UNL     1      48.989   6.908  21.139  0.00  0.00    +0.000 C 
ENDROOT
BRANCH  11  15
ATOM     15  C   UNL     1      47.053   4.076  14.936  0.00  0.00    +0.000 C 
ATOM     16  C   UNL     1      46.517   4.213  13.868  0.00  0.00    +0.000 C 
BRANCH  16  17
ATOM     17  C   UNL     1      45.860   4.395  12.610  0.00  0.00    +0.000 A 
ATOM     18  C   UNL     1      46.009   5.594  11.908  0.00  0.00    +0.000 A 
ATOM     19  C   UNL     1      45.340   5.785  10.698  0.00  0.00    +0.000 A 
ATOM     20  C   UNL     1      44.524   4.776  10.186  0.00  0.00    +0.000 A 
ATOM     21  C   UNL     1      44.387   3.571  10.877  0.00  0.00    +0.000 A 
ATOM     22  C   UNL     1      45.055   3.380  12.088  0.00  0.00    +0.000 A 
ENDBRANCH  16  17
ENDBRANCH  11  15
TORSDOF 2
ENDMDL
MODEL 5
REMARK VINA RESULT:    -5.614      2.318      2.878
REMARK INTER + INTRA:          -6.495
REMARK INTER:                  -6.271
REMARK INTRA:                  -0.224
REMARK UNBOUND:                -0.224
REMARK  Name = 
REMARK  2 active torsions:
REMARK  status: ('A' for Active; 'I' for Inactive)
REMARK    1  A    between atoms: C_11  and  C_12
REMARK    2  A    between atoms: C_13  and  C_14
REMARK                            x       y       z     vdW  Elec       q    Type
REMARK                         _______ _______ _______ _____ _____    ______ ____
ROOT
ATOM      1  F   UNL     1      43.331   2.558  12.753  0.00  0.00    +0.000 F 
ATOM      2  C   UNL     1      43.823   3.279  11.710  0.00  0.00    +0.000 C 
ATOM      3  F   UNL     1      43.395   2.644  10.585  0.00  0.00    +0.000 F 
ATOM      4  C   UNL     1      45.341   3.249  11.754  0.00  0.00    +0.000 C 
ATOM      5  C   UNL     1      45.859   4.086  12.920  0.00  0.00    +0.000 C 
ATOM      6  N   UNL     1      45.239   5.401  12.804  0.00  0.00    +0.000 N 
ATOM      7  C   UNL     1      45.992   6.547  12.967  0.00  0.00    +0.000 A 
ATOM      8  C   UNL     1      45.562   7.744  12.382  0.00  0.00    +0.000 A 
ATOM      9  C   UNL     1      46.324   8.903  12.494  0.00  0.00    +0.000 A 
ATOM     10  C   UNL     1      47.515   8.851  13.193  0.00  0.00    +0.000 A 
ATOM     11  C   UNL     1      47.894   7.632  13.731  0.00  0.00    +0.000 A 
ATOM     12  N   UNL     1      47.170   6.492  13.623  0.00  0.00    +0.000 NA
ATOM     13  C   UNL     1      43.787   5.422  12.937  0.00  0.00    +0.000 C 
ATOM     14  C   UNL     1      43.220   4.671  11.747  0.00  0.00    +0.000 C 
ENDROOT
BRANCH  11  15
ATOM     15  C   UNL     1      49.134   7.515  14.427  0.00  0.00    +0.000 C 
ATOM     16  C   UNL     1      50.168   7.362  15.023  0.00  0.00    +0.000 C 
BRANCH  16  17
ATOM     17  C   UNL     1      51.382   7.162  15.752  0.00  0.00    +0.000 A 
ATOM     18  C   UNL     1      52.495   7.969  15.495  0.00  0.00    +0.000 A 
ATOM     19  C   UNL     1      53.691   7.752  16.181  0.00  0.00    +0.000 A 
ATOM     20  C   UNL     1      53.776   6.731  17.128  0.00  0.00    +0.000 A 
ATOM     21  C   UNL     1      52.661   5.935  17.399  0.00  0.00    +0.000 A 
ATOM     22  C   UNL     1      51.465   6.151  16.712  0.00  0.00    +0.000 A 
ENDBRANCH  16  17
ENDBRANCH  11  15
TORSDOF 2
ENDMDL
MODEL 6
REMARK VINA RESULT:    -5.525      3.039      6.490
REMARK INTER + INTRA:          -6.395
REMARK INTER:                  -6.163
REMARK INTRA:                  -0.232
REMARK UNBOUND:                -0.224
REMARK  Name = 
REMARK  2 active torsions:
REMARK  status: ('A' for Active; 'I' for Inactive)
REMARK    1  A    between atoms: C_11  and  C_12
REMARK    2  A    between atoms: C_13  and  C_14
REMARK                            x       y       z     vdW  Elec       q    Type
REMARK                         _______ _______ _______ _____ _____    ______ ____
ROOT
ATOM      1  F   UNL     1      43.243   4.076  10.647  0.00  0.00    +0.000 F 
ATOM      2  C   UNL     1      43.234   4.993  11.652  0.00  0.00    +0.000 C 
ATOM      3  F   UNL     1      41.924   5.271  11.890  0.00  0.00    +0.000 F 
ATOM      4  C   UNL     1      43.934   6.257  11.180  0.00  0.00    +0.000 C 
ATOM      5  C   UNL     1      45.437   6.020  11.053  0.00  0.00    +0.000 C 
ATOM      6  N   UNL     1      45.886   5.465  12.325  0.00  0.00    +0.000 N 
ATOM      7  C   UNL     1      47.036   5.935  12.927  0.00  0.00    +0.000 A 
ATOM      8  C   UNL     1      47.196   5.797  14.310  0.00  0.00    +0.000 A 
ATOM      9  C   UNL     1      48.325   6.301  14.949  0.00  0.00    +0.000 A 
ATOM     10  C   UNL     1      49.287   6.942  14.191  0.00  0.00    +0.000 A 
ATOM     11  C   UNL     1      49.059   7.063  12.830  0.00  0.00    +0.000 A 
ATOM     12  N   UNL     1      47.962   6.588  12.194  0.00  0.00    +0.000 NA
ATOM     13  C   UNL     1      45.325   4.164  12.672  0.00  0.00    +0.000 C 
ATOM     14  C   UNL     1      43.838   4.366  12.895  0.00  0.00    +0.000 C 
ENDROOT
BRANCH  11  15
ATOM     15  C   UNL     1      50.002   7.752  12.009  0.00  0.00    +0.000 C 
ATOM     16  C   UNL     1      50.807   8.284  11.290  0.00  0.00    +0.000 C 
BRANCH  16  17
ATOM     17  C   UNL     1      51.782   8.892  10.439  0.00  0.00    +0.000 A 
ATOM     18  C   UNL     1      51.776  10.276  10.242  0.00  0.00    +0.000 A 
ATOM     19  C   UNL     1      52.705  10.865   9.383  0.00  0.00    +0.000 A 
ATOM     20  C   UNL     1      53.644  10.073   8.723  0.00  0.00    +0.000 A 
ATOM     21  C   UNL     1      53.663   8.693   8.930  0.00  0.00    +0.000 A 
ATOM     22  C   UNL     1      52.733   8.103   9.788  0.00  0.00    +0.000 A 
ENDBRANCH  16  17
ENDBRANCH  11  15
TORSDOF 2
ENDMDL
MODEL 7
REMARK VINA RESULT:    -5.386      3.230      3.723
REMARK INTER + INTRA:          -6.240
REMARK INTER:                  -6.007
REMARK INTRA:                  -0.233
REMARK UNBOUND:                -0.224
REMARK  Name = 
REMARK  2 active torsions:
REMARK  status: ('A' for Active; 'I' for Inactive)
REMARK    1  A    between atoms: C_11  and  C_12
REMARK    2  A    between atoms: C_13  and  C_14
REMARK                            x       y       z     vdW  Elec       q    Type
REMARK                         _______ _______ _______ _____ _____    ______ ____
ROOT
ATOM      1  F   UNL     1      43.367   2.470  12.787  0.00  0.00    +0.000 F 
ATOM      2  C   UNL     1      43.858   3.094  11.682  0.00  0.00    +0.000 C 
ATOM      3  F   UNL     1      43.735   2.200  10.664  0.00  0.00    +0.000 F 
ATOM      4  C   UNL     1      45.330   3.405  11.898  0.00  0.00    +0.000 C 
ATOM      5  C   UNL     1      45.496   4.521  12.926  0.00  0.00    +0.000 C 
ATOM      6  N   UNL     1      44.655   5.628  12.487  0.00  0.00    +0.000 N 
ATOM      7  C   UNL     1      45.137   6.923  12.503  0.00  0.00    +0.000 A 
ATOM      8  C   UNL     1      44.574   7.879  11.651  0.00  0.00    +0.000 A 
ATOM      9  C   UNL     1      45.070   9.179  11.617  0.00  0.00    +0.000 A 
ATOM     10  C   UNL     1      46.130   9.508  12.439  0.00  0.00    +0.000 A 
ATOM     11  C   UNL     1      46.655   8.511  13.243  0.00  0.00    +0.000 A 
ATOM     12  N   UNL     1      46.193   7.239  13.283  0.00  0.00    +0.000 NA
ATOM     13  C   UNL     1      43.224   5.353  12.454  0.00  0.00    +0.000 C 
ATOM     14  C   UNL     1      42.997   4.306  11.379  0.00  0.00    +0.000 C 
ENDROOT
BRANCH  11  15
ATOM     15  C   UNL     1      47.777   8.789  14.081  0.00  0.00    +0.000 C 
ATOM     16  C   UNL     1      48.689   9.058  14.818  0.00  0.00    +0.000 C 
BRANCH  16  17
ATOM     17  C   UNL     1      49.765   9.407  15.693  0.00  0.00    +0.000 A 
ATOM     18  C   UNL     1      49.504   9.750  17.023  0.00  0.00    +0.000 A 
ATOM     19  C   UNL     1      50.551  10.125  17.868  0.00  0.00    +0.000 A 
ATOM     20  C   UNL     1      51.860  10.153  17.387  0.00  0.00    +0.000 A 
ATOM     21  C   UNL     1      52.125   9.794  16.064  0.00  0.00    +0.000 A 
ATOM     22  C   UNL     1      51.078   9.420  15.218  0.00  0.00    +0.000 A 
ENDBRANCH  16  17
ENDBRANCH  11  15
TORSDOF 2
ENDMDL
MODEL 8
REMARK VINA RESULT:    -5.308      4.296      6.545
REMARK INTER + INTRA:          -6.152
REMARK INTER:                  -5.925
REMARK INTRA:                  -0.228
REMARK UNBOUND:                -0.224
REMARK  Name = 
REMARK  2 active torsions:
REMARK  status: ('A' for Active; 'I' for Inactive)
REMARK    1  A    between atoms: C_11  and  C_12
REMARK    2  A    between atoms: C_13  and  C_14
REMARK                            x       y       z     vdW  Elec       q    Type
REMARK                         _______ _______ _______ _____ _____    ______ ____
ROOT
ATOM      1  F   UNL     1      43.750   3.392  11.862  0.00  0.00    +0.000 F 
ATOM      2  C   UNL     1      43.556   4.712  11.594  0.00  0.00    +0.000 C 
ATOM      3  F   UNL     1      42.283   4.815  11.129  0.00  0.00    +0.000 F 
ATOM      4  C   UNL     1      44.523   5.146  10.505  0.00  0.00    +0.000 C 
ATOM      5  C   UNL     1      45.950   5.192  11.043  0.00  0.00    +0.000 C 
ATOM      6  N   UNL     1      45.920   6.011  12.250  0.00  0.00    +0.000 N 
ATOM      7  C   UNL     1      46.886   6.974  12.466  0.00  0.00    +0.000 A 
ATOM      8  C   UNL     1      46.604   8.058  13.304  0.00  0.00    +0.000 A 
ATOM      9  C   UNL     1      47.544   9.065  13.505  0.00  0.00    +0.000 A 
ATOM     10  C   UNL     1      48.763   8.975  12.861  0.00  0.00    +0.000 A 
ATOM     11  C   UNL     1      48.973   7.887  12.029  0.00  0.00    +0.000 A 
ATOM     12  N   UNL     1      48.066   6.904  11.814  0.00  0.00    +0.000 NA
ATOM     13  C   UNL     1      45.118   5.481  13.346  0.00  0.00    +0.000 C 
ATOM     14  C   UNL     1      43.672   5.497  12.888  0.00  0.00    +0.000 C 
ENDROOT
BRANCH  11  15
ATOM     15  C   UNL     1      50.199   7.767  11.309  0.00  0.00    +0.000 C 
ATOM     16  C   UNL     1      51.205   7.638  10.662  0.00  0.00    +0.000 C 
BRANCH  16  17
ATOM     17  C   UNL     1      52.392   7.455   9.886  0.00  0.00    +0.000 A 
ATOM     18  C   UNL     1      53.078   6.238   9.929  0.00  0.00    +0.000 A 
ATOM     19  C   UNL     1      54.256   6.071   9.199  0.00  0.00    +0.000 A 
ATOM     20  C   UNL     1      54.749   7.120   8.422  0.00  0.00    +0.000 A 
ATOM     21  C   UNL     1      54.058   8.331   8.364  0.00  0.00    +0.000 A 
ATOM     22  C   UNL     1      52.879   8.498   9.095  0.00  0.00    +0.000 A 
ENDBRANCH  16  17
ENDBRANCH  11  15
TORSDOF 2
ENDMDL
MODEL 9
REMARK VINA RESULT:    -5.152      4.357      8.432
REMARK INTER + INTRA:          -5.978
REMARK INTER:                  -5.752
REMARK INTRA:                  -0.226
REMARK UNBOUND:                -0.224
REMARK  Name = 
REMARK  2 active torsions:
REMARK  status: ('A' for Active; 'I' for Inactive)
REMARK    1  A    between atoms: C_11  and  C_12
REMARK    2  A    between atoms: C_13  and  C_14
REMARK                            x       y       z     vdW  Elec       q    Type
REMARK                         _______ _______ _______ _____ _____    ______ ____
ROOT
ATOM      1  F   UNL     1      51.970   6.257  19.518  0.00  0.00    +0.000 F 
ATOM      2  C   UNL     1      51.647   7.485  19.031  0.00  0.00    +0.000 C 
ATOM      3  F   UNL     1      51.842   8.356  20.057  0.00  0.00    +0.000 F 
ATOM      4  C   UNL     1      50.180   7.496  18.638  0.00  0.00    +0.000 C 
ATOM      5  C   UNL     1      49.953   6.648  17.389  0.00  0.00    +0.000 C 
ATOM      6  N   UNL     1      50.899   7.118  16.383  0.00  0.00    +0.000 N 
ATOM      7  C   UNL     1      50.488   7.329  15.081  0.00  0.00    +0.000 A 
ATOM      8  C   UNL     1      51.199   8.219  14.269  0.00  0.00    +0.000 A 
ATOM      9  C   UNL     1      50.782   8.483  12.968  0.00  0.00    +0.000 A 
ATOM     10  C   UNL     1      49.651   7.848  12.491  0.00  0.00    +0.000 A 
ATOM     11  C   UNL     1      48.981   6.994  13.351  0.00  0.00    +0.000 A 
ATOM     12  N   UNL     1      49.366   6.734  14.623  0.00  0.00    +0.000 NA
ATOM     13  C   UNL     1      52.307   6.937  16.714  0.00  0.00    +0.000 C 
ATOM     14  C   UNL     1      52.603   7.831  17.903  0.00  0.00    +0.000 C 
ENDROOT
BRANCH  11  15
ATOM     15  C   UNL     1      47.784   6.345  12.921  0.00  0.00    +0.000 C 
ATOM     16  C   UNL     1      46.748   5.848  12.565  0.00  0.00    +0.000 C 
BRANCH  16  17
ATOM     17  C   UNL     1      45.502   5.273  12.162  0.00  0.00    +0.000 A 
ATOM     18  C   UNL     1      45.165   5.208  10.808  0.00  0.00    +0.000 A 
ATOM     19  C   UNL     1      43.933   4.678  10.417  0.00  0.00    +0.000 A 
ATOM     20  C   UNL     1      43.040   4.209  11.379  0.00  0.00    +0.000 A 
ATOM     21  C   UNL     1      43.382   4.256  12.731  0.00  0.00    +0.000 A 
ATOM     22  C   UNL     1      44.613   4.787  13.123  0.00  0.00    +0.000 A 
ENDBRANCH  16  17
ENDBRANCH  11  15
TORSDOF 2
ENDMDL
