MODEL 1
REMARK VINA RESULT:    -8.582      0.000      0.000
REMARK INTER + INTRA:         -11.891
REMARK INTER:                 -11.090
REMARK INTRA:                  -0.800
REMARK UNBOUND:                -0.800
REMARK  Name = 
REMARK  5 active torsions:
REMARK  status: ('A' for Active; 'I' for Inactive)
REMARK    1  A    between atoms: C_2  and  C_4
REMARK    2  A    between atoms: C_7  and  O_8
REMARK    3  A    between atoms: O_8  and  C_9
REMARK    4  A    between atoms: C_9  and  C_10
REMARK    5  A    between atoms: C_14  and  C_15
REMARK                            x       y       z     vdW  Elec       q    Type
REMARK                         _______ _______ _______ _____ _____    ______ ____
ROOT
ATOM      1  C   UNL     1      43.646   4.188  11.254  0.00  0.00    +0.000 C 
ENDROOT
BRANCH   1   2
ATOM      2  C   UNL     1      44.843   4.676  12.042  0.00  0.00    +0.000 A 
ATOM      3  C   UNL     1      45.569   3.822  12.876  0.00  0.00    +0.000 A 
ATOM      4  C   UNL     1      46.704   4.287  13.535  0.00  0.00    +0.000 A 
ATOM      5  C   UNL     1      47.140   5.601  13.342  0.00  0.00    +0.000 A 
ATOM      6  C   UNL     1      46.465   6.479  12.479  0.00  0.00    +0.000 A 
ATOM      7  C   UNL     1      45.303   5.991  11.849  0.00  0.00    +0.000 A 
BRANCH   6   8
ATOM      8  C   UNL     1      46.975   7.839  12.208  0.00  0.00    +0.000 A 
ATOM      9  C   UNL     1      48.328   8.100  11.948  0.00  0.00    +0.000 A 
ATOM     10  C   UNL     1      48.774   9.404  11.728  0.00  0.00    +0.000 A 
ATOM     11  C   UNL     1      47.847  10.431  11.764  0.00  0.00    +0.000 A 
ATOM     12  N   UNL     1      46.537  10.242  12.006  0.00  0.00    +0.000 NA
ATOM     13  C   UNL     1      46.140   8.962  12.226  0.00  0.00    +0.000 A 
ENDBRANCH   6   8
ENDBRANCH   1   2
BRANCH   1  14
ATOM     14  O   UNL     1      43.697   4.635   9.894  0.00  0.00    +0.000 OA
BRANCH  14  18
ATOM     15  C   UNL     1      46.396   2.433   7.697  0.00  0.00    +0.000 A 
ATOM     16  C   UNL     1      45.565   1.786   8.614  0.00  0.00    +0.000 A 
ATOM     17  C   UNL     1      44.656   2.542   9.359  0.00  0.00    +0.000 A 
ATOM     18  C   UNL     1      44.610   3.912   9.153  0.00  0.00    +0.000 A 
ATOM     19  N   UNL     1      45.405   4.561   8.274  0.00  0.00    +0.000 NA
ATOM     20  C   UNL     1      46.287   3.810   7.575  0.00  0.00    +0.000 A 
BRANCH  15  22
ATOM     21  N   UNL     1      48.473   2.466   6.439  0.00  0.00    +0.000 N 
ATOM     22  C   UNL     1      47.399   1.739   6.865  0.00  0.00    +0.000 C 
ATOM     23  O   UNL     1      47.297   0.548   6.606  0.00  0.00    +0.000 OA
ATOM     24  H   UNL     1      49.206   1.944   5.974  0.00  0.00    +0.000 HD
ATOM     25  H   UNL     1      48.724   3.358   6.845  0.00  0.00    +0.000 HD
ENDBRANCH  15  22
ENDBRANCH  14  18
ENDBRANCH   1  14
TORSDOF 5
ENDMDL
MODEL 2
REMARK VINA RESULT:    -8.366      2.030      3.443
REMARK INTER + INTRA:         -11.611
REMARK INTER:                 -10.810
REMARK INTRA:                  -0.801
REMARK UNBOUND:                -0.800
REMARK  Name = 
REMARK  5 active torsions:
REMARK  status: ('A' for Active; 'I' for Inactive)
REMARK    1  A    between atoms: C_2  and  C_4
REMARK    2  A    between atoms: C_7  and  O_8
REMARK    3  A    between atoms: O_8  and  C_9
REMARK    4  A    between atoms: C_9  and  C_10
REMARK    5  A    between atoms: C_14  and  C_15
REMARK                            x       y       z     vdW  Elec       q    Type
REMARK                         _______ _______ _______ _____ _____    ______ ____
ROOT
ATOM      1  C   UNL     1      43.915   4.382  11.337  0.00  0.00    +0.000 C 
ENDROOT
BRANCH   1   2
ATOM      2  C   UNL     1      44.997   5.276  11.904  0.00  0.00    +0.000 A 
ATOM      3  C   UNL     1      45.191   6.579  11.439  0.00  0.00    +0.000 A 
ATOM      4  C   UNL     1      46.152   7.396  12.028  0.00  0.00    +0.000 A 
ATOM      5  C   UNL     1      46.905   6.930  13.108  0.00  0.00    +0.000 A 
ATOM      6  C   UNL     1      46.712   5.642  13.636  0.00  0.00    +0.000 A 
ATOM      7  C   UNL     1      45.755   4.827  13.001  0.00  0.00    +0.000 A 
BRANCH   6   8
ATOM      8  C   UNL     1      47.447   5.180  14.832  0.00  0.00    +0.000 A 
ATOM      9  C   UNL     1      47.166   3.962  15.468  0.00  0.00    +0.000 A 
ATOM     10  C   UNL     1      47.863   3.578  16.614  0.00  0.00    +0.000 A 
ATOM     11  C   UNL     1      48.843   4.423  17.102  0.00  0.00    +0.000 A 
ATOM     12  N   UNL     1      49.158   5.603  16.534  0.00  0.00    +0.000 NA
ATOM     13  C   UNL     1      48.453   5.949  15.427  0.00  0.00    +0.000 A 
ENDBRANCH   6   8
ENDBRANCH   1   2
BRANCH   1  14
ATOM     14  O   UNL     1      43.746   4.593   9.931  0.00  0.00    +0.000 OA
BRANCH  14  18
ATOM     15  C   UNL     1      46.336   2.258   7.739  0.00  0.00    +0.000 A 
ATOM     16  C   UNL     1      45.573   1.674   8.754  0.00  0.00    +0.000 A 
ATOM     17  C   UNL     1      44.701   2.475   9.496  0.00  0.00    +0.000 A 
ATOM     18  C   UNL     1      44.621   3.825   9.190  0.00  0.00    +0.000 A 
ATOM     19  N   UNL     1      45.350   4.413   8.216  0.00  0.00    +0.000 NA
ATOM     20  C   UNL     1      46.198   3.620   7.520  0.00  0.00    +0.000 A 
BRANCH  15  22
ATOM     21  N   UNL     1      48.462   2.141   6.573  0.00  0.00    +0.000 N 
ATOM     22  C   UNL     1      47.295   1.512   6.900  0.00  0.00    +0.000 C 
ATOM     23  O   UNL     1      47.075   0.362   6.550  0.00  0.00    +0.000 OA
ATOM     24  H   UNL     1      49.154   1.571   6.101  0.00  0.00    +0.000 HD
ATOM     25  H   UNL     1      48.790   2.968   7.054  0.00  0.00    +0.000 HD
ENDBRANCH  15  22
ENDBRANCH  14  18
ENDBRANCH   1  14
TORSDOF 5
ENDMDL
MODEL 3
REMARK VINA RESULT:    -7.801      1.923      2.562
REMARK INTER + INTRA:         -10.881
REMARK INTER:                 -10.175
REMARK INTRA:                  -0.706
REMARK UNBOUND:                -0.800
REMARK  Name = 
REMARK  5 active torsions:
REMARK  status: ('A' for Active; 'I' for Inactive)
REMARK    1  A    between atoms: C_2  and  C_4
REMARK    2  A    between atoms: C_7  and  O_8
REMARK    3  A    between atoms: O_8  and  C_9
REMARK    4  A    between atoms: C_9  and  C_10
REMARK    5  A    between atoms: C_14  and  C_15
REMARK                            x       y       z     vdW  Elec       q    Type
REMARK                         _______ _______ _______ _____ _____    ______ ____
ROOT
ATOM      1  C   UNL     1      44.454   4.046  11.585  0.00  0.00    +0.000 C 
ENDROOT
BRANCH   1   2
ATOM      2  C   UNL     1      45.021   5.431  11.807  0.00  0.00    +0.000 A 
ATOM      3  C   UNL     1      44.347   6.577  11.379  0.00  0.00    +0.000 A 
ATOM      4  C   UNL     1      44.865   7.839  11.659  0.00  0.00    +0.000 A 
ATOM      5  C   UNL     1      46.046   7.967  12.396  0.00  0.00    +0.000 A 
ATOM      6  C   UNL     1      46.732   6.842  12.882  0.00  0.00    +0.000 A 
ATOM      7  C   UNL     1      46.201   5.578  12.559  0.00  0.00    +0.000 A 
BRANCH   6   8
ATOM      8  C   UNL     1      47.932   6.979  13.735  0.00  0.00    +0.000 A 
ATOM      9  C   UNL     1      48.906   7.963  13.514  0.00  0.00    +0.000 A 
ATOM     10  C   UNL     1      50.040   8.038  14.324  0.00  0.00    +0.000 A 
ATOM     11  C   UNL     1      50.175   7.125  15.354  0.00  0.00    +0.000 A 
ATOM     12  N   UNL     1      49.273   6.160  15.615  0.00  0.00    +0.000 NA
ATOM     13  C   UNL     1      48.187   6.110  14.801  0.00  0.00    +0.000 A 
ENDBRANCH   6   8
ENDBRANCH   1   2
BRANCH   1  14
ATOM     14  O   UNL     1      43.838   3.933  10.296  0.00  0.00    +0.000 OA
BRANCH  14  18
ATOM     15  C   UNL     1      46.498   2.607   7.445  0.00  0.00    +0.000 A 
ATOM     16  C   UNL     1      45.923   1.691   8.329  0.00  0.00    +0.000 A 
ATOM     17  C   UNL     1      45.026   2.150   9.296  0.00  0.00    +0.000 A 
ATOM     18  C   UNL     1      44.734   3.506   9.338  0.00  0.00    +0.000 A 
ATOM     19  N   UNL     1      45.281   4.411   8.497  0.00  0.00    +0.000 NA
ATOM     20  C   UNL     1      46.157   3.945   7.578  0.00  0.00    +0.000 A 
BRANCH  15  22
ATOM     21  N   UNL     1      47.387   2.908   5.206  0.00  0.00    +0.000 N 
ATOM     22  C   UNL     1      47.465   2.237   6.392  0.00  0.00    +0.000 C 
ATOM     23  O   UNL     1      48.330   1.396   6.589  0.00  0.00    +0.000 OA
ATOM     24  H   UNL     1      48.132   2.725   4.544  0.00  0.00    +0.000 HD
ATOM     25  H   UNL     1      46.875   3.773   5.101  0.00  0.00    +0.000 HD
ENDBRANCH  15  22
ENDBRANCH  14  18
ENDBRANCH   1  14
TORSDOF 5
ENDMDL
MODEL 4
REMARK VINA RESULT:    -7.224      2.617      6.705
REMARK INTER + INTRA:         -10.135
REMARK INTER:                  -9.331
REMARK INTRA:                  -0.804
REMARK UNBOUND:                -0.800
REMARK  Name = 
REMARK  5 active torsions:
REMARK  status: ('A' for Active; 'I' for Inactive)
REMARK    1  A    between atoms: C_2  and  C_4
REMARK    2  A    between atoms: C_7  and  O_8
REMARK    3  A    between atoms: O_8  and  C_9
REMARK    4  A    between atoms: C_9  and  C_10
REMARK    5  A    between atoms: C_14  and  C_15
REMARK                            x       y       z     vdW  Elec       q    Type
REMARK                         _______ _______ _______ _____ _____    ______ ____
ROOT
ATOM      1  C   UNL     1      44.268   6.646  11.440  0.00  0.00    +0.000 C 
ENDROOT
BRANCH   1   2
ATOM      2  C   UNL     1      44.232   5.168  11.120  0.00  0.00    +0.000 A 
ATOM      3  C   UNL     1      43.379   4.292  11.796  0.00  0.00    +0.000 A 
ATOM      4  C   UNL     1      43.323   2.950  11.431  0.00  0.00    +0.000 A 
ATOM      5  C   UNL     1      44.095   2.477  10.366  0.00  0.00    +0.000 A 
ATOM      6  C   UNL     1      44.933   3.333   9.631  0.00  0.00    +0.000 A 
ATOM      7  C   UNL     1      44.992   4.679  10.042  0.00  0.00    +0.000 A 
BRANCH   6   8
ATOM      8  C   UNL     1      45.682   2.853   8.452  0.00  0.00    +0.000 A 
ATOM      9  C   UNL     1      46.134   1.530   8.330  0.00  0.00    +0.000 A 
ATOM     10  C   UNL     1      46.865   1.126   7.213  0.00  0.00    +0.000 A 
ATOM     11  C   UNL     1      47.127   2.058   6.225  0.00  0.00    +0.000 A 
ATOM     12  N   UNL     1      46.719   3.340   6.285  0.00  0.00    +0.000 NA
ATOM     13  C   UNL     1      46.018   3.701   7.391  0.00  0.00    +0.000 A 
ENDBRANCH   6   8
ENDBRANCH   1   2
BRANCH   1  14
ATOM     14  O   UNL     1      44.877   6.892  12.714  0.00  0.00    +0.000 OA
BRANCH  14  18
ATOM     15  C   UNL     1      48.898   7.707  12.352  0.00  0.00    +0.000 A 
ATOM     16  C   UNL     1      47.963   8.698  12.041  0.00  0.00    +0.000 A 
ATOM     17  C   UNL     1      46.601   8.411  12.161  0.00  0.00    +0.000 A 
ATOM     18  C   UNL     1      46.227   7.147  12.594  0.00  0.00    +0.000 A 
ATOM     19  N   UNL     1      47.112   6.172  12.898  0.00  0.00    +0.000 NA
ATOM     20  C   UNL     1      48.425   6.469  12.760  0.00  0.00    +0.000 A 
BRANCH  15  22
ATOM     21  N   UNL     1      51.077   7.854  13.412  0.00  0.00    +0.000 N 
ATOM     22  C   UNL     1      50.359   7.895  12.252  0.00  0.00    +0.000 C 
ATOM     23  O   UNL     1      50.910   8.036  11.170  0.00  0.00    +0.000 OA
ATOM     24  H   UNL     1      52.085   7.864  13.310  0.00  0.00    +0.000 HD
ATOM     25  H   UNL     1      50.701   7.481  14.274  0.00  0.00    +0.000 HD
ENDBRANCH  15  22
ENDBRANCH  14  18
ENDBRANCH   1  14
TORSDOF 5
ENDMDL
MODEL 5
REMARK VINA RESULT:    -6.947      4.542      8.174
REMARK INTER + INTRA:          -9.777
REMARK INTER:                  -9.236
REMARK INTRA:                  -0.542
REMARK UNBOUND:                -0.800
REMARK  Name = 
REMARK  5 active torsions:
REMARK  status: ('A' for Active; 'I' for Inactive)
REMARK    1  A    between atoms: C_2  and  C_4
REMARK    2  A    between atoms: C_7  and  O_8
REMARK    3  A    between atoms: O_8  and  C_9
REMARK    4  A    between atoms: C_9  and  C_10
REMARK    5  A    between atoms: C_14  and  C_15
REMARK                            x       y       z     vdW  Elec       q    Type
REMARK                         _______ _______ _______ _____ _____    ______ ____
ROOT
ATOM      1  C   UNL     1      45.943   5.199  13.981  0.00  0.00    +0.000 C 
ENDROOT
BRANCH   1   2
ATOM      2  C   UNL     1      45.022   4.875  12.825  0.00  0.00    +0.000 A 
ATOM      3  C   UNL     1      43.667   5.214  12.849  0.00  0.00    +0.000 A 
ATOM      4  C   UNL     1      42.863   4.961  11.741  0.00  0.00    +0.000 A 
ATOM      5  C   UNL     1      43.413   4.394  10.588  0.00  0.00    +0.000 A 
ATOM      6  C   UNL     1      44.779   4.078  10.506  0.00  0.00    +0.000 A 
ATOM      7  C   UNL     1      45.562   4.317  11.651  0.00  0.00    +0.000 A 
BRANCH   6   8
ATOM      8  C   UNL     1      45.377   3.560   9.257  0.00  0.00    +0.000 A 
ATOM      9  C   UNL     1      45.571   2.191   9.023  0.00  0.00    +0.000 A 
ATOM     10  C   UNL     1      46.168   1.746   7.843  0.00  0.00    +0.000 A 
ATOM     11  C   UNL     1      46.556   2.687   6.907  0.00  0.00    +0.000 A 
ATOM     12  N   UNL     1      46.395   4.013   7.075  0.00  0.00    +0.000 NA
ATOM     13  C   UNL     1      45.820   4.411   8.238  0.00  0.00    +0.000 A 
ENDBRANCH   6   8
ENDBRANCH   1   2
BRANCH   1  14
ATOM     14  O   UNL     1      46.517   4.013  14.542  0.00  0.00    +0.000 OA
BRANCH  14  18
ATOM     15  C   UNL     1      48.388   4.815  18.122  0.00  0.00    +0.000 A 
ATOM     16  C   UNL     1      48.742   5.541  16.982  0.00  0.00    +0.000 A 
ATOM     17  C   UNL     1      48.106   5.259  15.771  0.00  0.00    +0.000 A 
ATOM     18  C   UNL     1      47.137   4.266  15.749  0.00  0.00    +0.000 A 
ATOM     19  N   UNL     1      46.780   3.548  16.836  0.00  0.00    +0.000 NA
ATOM     20  C   UNL     1      47.420   3.830  17.995  0.00  0.00    +0.000 A 
BRANCH  15  22
ATOM     21  N   UNL     1      49.057   3.944  20.288  0.00  0.00    +0.000 N 
ATOM     22  C   UNL     1      49.001   5.020  19.450  0.00  0.00    +0.000 C 
ATOM     23  O   UNL     1      49.480   6.098  19.770  0.00  0.00    +0.000 OA
ATOM     24  H   UNL     1      49.586   4.074  21.142  0.00  0.00    +0.000 HD
ATOM     25  H   UNL     1      48.919   2.995  19.967  0.00  0.00    +0.000 HD
ENDBRANCH  15  22
ENDBRANCH  14  18
ENDBRANCH   1  14
TORSDOF 5
ENDMDL
MODEL 6
REMARK VINA RESULT:    -6.866      2.994      7.277
REMARK INTER + INTRA:          -9.674
REMARK INTER:                  -9.233
REMARK INTRA:                  -0.440
REMARK UNBOUND:                -0.800
REMARK  Name = 
REMARK  5 active torsions:
REMARK  status: ('A' for Active; 'I' for Inactive)
REMARK    1  A    between atoms: C_2  and  C_4
REMARK    2  A    between atoms: C_7  and  O_8
REMARK    3  A    between atoms: O_8  and  C_9
REMARK    4  A    between atoms: C_9  and  C_10
REMARK    5  A    between atoms: C_14  and  C_15
REMARK                            x       y       z     vdW  Elec       q    Type
REMARK                         _______ _______ _______ _____ _____    ______ ____
ROOT
ATOM      1  C   UNL     1      44.751   6.091  11.776  0.00  0.00    +0.000 C 
ENDROOT
BRANCH   1   2
ATOM      2  C   UNL     1      44.563   4.702  11.204  0.00  0.00    +0.000 A 
ATOM      3  C   UNL     1      43.578   3.837  11.685  0.00  0.00    +0.000 A 
ATOM      4  C   UNL     1      43.390   2.592  11.092  0.00  0.00    +0.000 A 
ATOM      5  C   UNL     1      44.163   2.214   9.991  0.00  0.00    +0.000 A 
ATOM      6  C   UNL     1      45.134   3.071   9.447  0.00  0.00    +0.000 A 
ATOM      7  C   UNL     1      45.324   4.311  10.087  0.00  0.00    +0.000 A 
BRANCH   6   8
ATOM      8  C   UNL     1      45.891   2.706   8.231  0.00  0.00    +0.000 A 
ATOM      9  C   UNL     1      46.084   3.598   7.166  0.00  0.00    +0.000 A 
ATOM     10  C   UNL     1      46.779   3.203   6.022  0.00  0.00    +0.000 A 
ATOM     11  C   UNL     1      47.280   1.915   5.969  0.00  0.00    +0.000 A 
ATOM     12  N   UNL     1      47.128   1.016   6.959  0.00  0.00    +0.000 NA
ATOM     13  C   UNL     1      46.438   1.431   8.052  0.00  0.00    +0.000 A 
ENDBRANCH   6   8
ENDBRANCH   1   2
BRANCH   1  14
ATOM     14  O   UNL     1      46.125   6.491  11.740  0.00  0.00    +0.000 OA
BRANCH  14  18
ATOM     15  C   UNL     1      47.992   5.757  15.337  0.00  0.00    +0.000 A 
ATOM     16  C   UNL     1      47.059   4.841  14.846  0.00  0.00    +0.000 A 
ATOM     17  C   UNL     1      46.426   5.100  13.627  0.00  0.00    +0.000 A 
ATOM     18  C   UNL     1      46.757   6.262  12.945  0.00  0.00    +0.000 A 
ATOM     19  N   UNL     1      47.653   7.165  13.401  0.00  0.00    +0.000 NA
ATOM     20  C   UNL     1      48.241   6.899  14.590  0.00  0.00    +0.000 A 
BRANCH  15  22
ATOM     21  N   UNL     1      48.027   5.877  17.762  0.00  0.00    +0.000 N 
ATOM     22  C   UNL     1      48.711   5.591  16.616  0.00  0.00    +0.000 C 
ATOM     23  O   UNL     1      49.859   5.171  16.650  0.00  0.00    +0.000 OA
ATOM     24  H   UNL     1      48.497   5.642  18.628  0.00  0.00    +0.000 HD
ATOM     25  H   UNL     1      47.020   5.966  17.789  0.00  0.00    +0.000 HD
ENDBRANCH  15  22
ENDBRANCH  14  18
ENDBRANCH   1  14
TORSDOF 5
ENDMDL
MODEL 7
REMARK VINA RESULT:    -6.350      2.766      7.235
REMARK INTER + INTRA:          -9.007
REMARK INTER:                  -8.240
REMARK INTRA:                  -0.766
REMARK UNBOUND:                -0.800
REMARK  Name = 
REMARK  5 active torsions:
REMARK  status: ('A' for Active; 'I' for Inactive)
REMARK    1  A    between atoms: C_2  and  C_4
REMARK    2  A    between atoms: C_7  and  O_8
REMARK    3  A    between atoms: O_8  and  C_9
REMARK    4  A    between atoms: C_9  and  C_10
REMARK    5  A    between atoms: C_14  and  C_15
REMARK                            x       y       z     vdW  Elec       q    Type
REMARK                         _______ _______ _______ _____ _____    ______ ____
ROOT
ATOM      1  C   UNL     1      46.086   5.011  14.019  0.00  0.00    +0.000 C 
ENDROOT
BRANCH   1   2
ATOM      2  C   UNL     1      45.125   4.781  12.873  0.00  0.00    +0.000 A 
ATOM      3  C   UNL     1      43.799   5.218  12.928  0.00  0.00    +0.000 A 
ATOM      4  C   UNL     1      42.961   5.048  11.830  0.00  0.00    +0.000 A 
ATOM      5  C   UNL     1      43.449   4.470  10.655  0.00  0.00    +0.000 A 
ATOM      6  C   UNL     1      44.787   4.057  10.542  0.00  0.00    +0.000 A 
ATOM      7  C   UNL     1      45.604   4.212  11.678  0.00  0.00    +0.000 A 
BRANCH   6   8
ATOM      8  C   UNL     1      45.325   3.525   9.272  0.00  0.00    +0.000 A 
ATOM      9  C   UNL     1      45.500   2.153   9.041  0.00  0.00    +0.000 A 
ATOM     10  C   UNL     1      46.041   1.695   7.839  0.00  0.00    +0.000 A 
ATOM     11  C   UNL     1      46.392   2.626   6.879  0.00  0.00    +0.000 A 
ATOM     12  N   UNL     1      46.246   3.954   7.042  0.00  0.00    +0.000 NA
ATOM     13  C   UNL     1      45.726   4.365   8.227  0.00  0.00    +0.000 A 
ENDBRANCH   6   8
ENDBRANCH   1   2
BRANCH   1  14
ATOM     14  O   UNL     1      47.440   5.088  13.560  0.00  0.00    +0.000 OA
BRANCH  14  18
ATOM     15  C   UNL     1      48.739   8.987  13.289  0.00  0.00    +0.000 A 
ATOM     16  C   UNL     1      48.352   8.307  12.131  0.00  0.00    +0.000 A 
ATOM     17  C   UNL     1      47.918   6.983  12.231  0.00  0.00    +0.000 A 
ATOM     18  C   UNL     1      47.882   6.393  13.486  0.00  0.00    +0.000 A 
ATOM     19  N   UNL     1      48.254   7.028  14.619  0.00  0.00    +0.000 NA
ATOM     20  C   UNL     1      48.684   8.305  14.495  0.00  0.00    +0.000 A 
BRANCH  15  22
ATOM     21  N   UNL     1      48.383  11.333  13.801  0.00  0.00    +0.000 N 
ATOM     22  C   UNL     1      49.224  10.381  13.300  0.00  0.00    +0.000 C 
ATOM     23  O   UNL     1      50.349  10.667  12.918  0.00  0.00    +0.000 OA
ATOM     24  H   UNL     1      48.778  12.259  13.911  0.00  0.00    +0.000 HD
ATOM     25  H   UNL     1      47.572  11.105  14.360  0.00  0.00    +0.000 HD
ENDBRANCH  15  22
ENDBRANCH  14  18
ENDBRANCH   1  14
TORSDOF 5
ENDMDL
MODEL 8
REMARK VINA RESULT:    -6.335      5.583      7.672
REMARK INTER + INTRA:          -8.987
REMARK INTER:                  -8.340
REMARK INTRA:                  -0.647
REMARK UNBOUND:                -0.800
REMARK  Name = 
REMARK  5 active torsions:
REMARK  status: ('A' for Active; 'I' for Inactive)
REMARK    1  A    between atoms: C_2  and  C_4
REMARK    2  A    between atoms: C_7  and  O_8
REMARK    3  A    between atoms: O_8  and  C_9
REMARK    4  A    between atoms: C_9  and  C_10
REMARK    5  A    between atoms: C_14  and  C_15
REMARK                            x       y       z     vdW  Elec       q    Type
REMARK                         _______ _______ _______ _____ _____    ______ ____
ROOT
ATOM      1  C   UNL     1      47.142   4.008  16.131  0.00  0.00    +0.000 C 
ENDROOT
BRANCH   1   2
ATOM      2  C   UNL     1      48.354   4.419  16.940  0.00  0.00    +0.000 A 
ATOM      3  C   UNL     1      48.366   5.593  17.697  0.00  0.00    +0.000 A 
ATOM      4  C   UNL     1      49.473   5.907  18.481  0.00  0.00    +0.000 A 
ATOM      5  C   UNL     1      50.563   5.036  18.540  0.00  0.00    +0.000 A 
ATOM      6  C   UNL     1      50.573   3.824  17.830  0.00  0.00    +0.000 A 
ATOM      7  C   UNL     1      49.454   3.546  17.021  0.00  0.00    +0.000 A 
BRANCH   6   8
ATOM      8  C   UNL     1      51.688   2.862  17.960  0.00  0.00    +0.000 A 
ATOM      9  C   UNL     1      52.902   3.192  18.580  0.00  0.00    +0.000 A 
ATOM     10  C   UNL     1      53.940   2.263  18.655  0.00  0.00    +0.000 A 
ATOM     11  C   UNL     1      53.740   1.007  18.111  0.00  0.00    +0.000 A 
ATOM     12  N   UNL     1      52.597   0.633  17.506  0.00  0.00    +0.000 NA
ATOM     13  C   UNL     1      51.612   1.564  17.442  0.00  0.00    +0.000 A 
ENDBRANCH   6   8
ENDBRANCH   1   2
BRANCH   1  14
ATOM     14  O   UNL     1      47.518   3.506  14.843  0.00  0.00    +0.000 OA
BRANCH  14  18
ATOM     15  C   UNL     1      44.925   4.790  11.911  0.00  0.00    +0.000 A 
ATOM     16  C   UNL     1      45.553   5.728  12.735  0.00  0.00    +0.000 A 
ATOM     17  C   UNL     1      46.426   5.283  13.730  0.00  0.00    +0.000 A 
ATOM     18  C   UNL     1      46.643   3.919  13.859  0.00  0.00    +0.000 A 
ATOM     19  N   UNL     1      46.046   2.993  13.077  0.00  0.00    +0.000 NA
ATOM     20  C   UNL     1      45.193   3.447  12.130  0.00  0.00    +0.000 A 
BRANCH  15  22
ATOM     21  N   UNL     1      43.300   6.323  10.961  0.00  0.00    +0.000 N 
ATOM     22  C   UNL     1      43.977   5.144  10.836  0.00  0.00    +0.000 C 
ATOM     23  O   UNL     1      43.837   4.433   9.852  0.00  0.00    +0.000 OA
ATOM     24  H   UNL     1      42.748   6.603  10.159  0.00  0.00    +0.000 HD
ATOM     25  H   UNL     1      43.580   7.047  11.609  0.00  0.00    +0.000 HD
ENDBRANCH  15  22
ENDBRANCH  14  18
ENDBRANCH   1  14
TORSDOF 5
ENDMDL
