MODEL 1
REMARK VINA RESULT:    -8.472      0.000      0.000
REMARK INTER + INTRA:         -11.736
REMARK INTER:                 -10.948
REMARK INTRA:                  -0.788
REMARK UNBOUND:                -0.788
REMARK  Name = 
REMARK  5 active torsions:
REMARK  status: ('A' for Active; 'I' for Inactive)
REMARK    1  A    between atoms: C_2  and  C_3
REMARK    2  A    between atoms: C_7  and  O_8
REMARK    3  A    between atoms: O_8  and  C_9
REMARK    4  A    between atoms: C_9  and  C_10
REMARK    5  A    between atoms: C_14  and  C_15
REMARK                            x       y       z     vdW  Elec       q    Type
REMARK                         _______ _______ _______ _____ _____    ______ ____
ROOT
ATOM      1  C   UNL     1      43.596   4.830  10.712  0.00  0.00    +0.000 A 
ATOM      2  C   UNL     1      43.037   3.814  11.473  0.00  0.00    +0.000 A 
ATOM      3  N   UNL     1      43.279   2.502  11.276  0.00  0.00    +0.000 NA
ATOM      4  C   UNL     1      44.109   2.185  10.253  0.00  0.00    +0.000 A 
ATOM      5  C   UNL     1      44.717   3.103   9.394  0.00  0.00    +0.000 A 
ATOM      6  C   UNL     1      44.431   4.455   9.652  0.00  0.00    +0.000 A 
ENDROOT
BRANCH   5   7
ATOM      7  C   UNL     1      45.610   2.682   8.295  0.00  0.00    +0.000 A 
ATOM      8  C   UNL     1      46.230   1.416   8.295  0.00  0.00    +0.000 A 
ATOM      9  C   UNL     1      47.081   1.017   7.259  0.00  0.00    +0.000 A 
ATOM     10  C   UNL     1      47.323   1.874   6.191  0.00  0.00    +0.000 A 
ATOM     11  C   UNL     1      46.717   3.121   6.172  0.00  0.00    +0.000 A 
ATOM     12  F   UNL     1      46.945   3.951   5.146  0.00  0.00    +0.000 F 
ATOM     13  C   UNL     1      45.877   3.529   7.205  0.00  0.00    +0.000 A 
ENDBRANCH   5   7
BRANCH   1  14
ATOM     14  C   UNL     1      43.307   6.273  11.017  0.00  0.00    +0.000 C 
BRANCH  14  15
ATOM     15  O   UNL     1      43.819   6.593  12.309  0.00  0.00    +0.000 OA
BRANCH  15  20
ATOM     16  C   UNL     1      46.894   5.220  13.678  0.00  0.00    +0.000 A 
ATOM     17  C   UNL     1      47.880   5.974  13.035  0.00  0.00    +0.000 A 
ATOM     18  C   UNL     1      47.513   6.967  12.127  0.00  0.00    +0.000 A 
ATOM     19  C   UNL     1      46.162   7.209  11.857  0.00  0.00    +0.000 A 
ATOM     20  C   UNL     1      45.170   6.456  12.490  0.00  0.00    +0.000 A 
ATOM     21  C   UNL     1      45.543   5.462  13.399  0.00  0.00    +0.000 A 
BRANCH  16  23
ATOM     22  N   UNL     1      47.561   3.384  15.387  0.00  0.00    +0.000 NA
ATOM     23  C   UNL     1      47.266   4.209  14.624  0.00  0.00    +0.000 C 
ENDBRANCH  16  23
ENDBRANCH  15  20
ENDBRANCH  14  15
ENDBRANCH   1  14
TORSDOF 5
ENDMDL
MODEL 2
REMARK VINA RESULT:    -8.451      1.048      1.438
REMARK INTER + INTRA:         -11.709
REMARK INTER:                 -10.909
REMARK INTRA:                  -0.800
REMARK UNBOUND:                -0.788
REMARK  Name = 
REMARK  5 active torsions:
REMARK  status: ('A' for Active; 'I' for Inactive)
REMARK    1  A    between atoms: C_2  and  C_3
REMARK    2  A    between atoms: C_7  and  O_8
REMARK    3  A    between atoms: O_8  and  C_9
REMARK    4  A    between atoms: C_9  and  C_10
REMARK    5  A    between atoms: C_14  and  C_15
REMARK                            x       y       z     vdW  Elec       q    Type
REMARK                         _______ _______ _______ _____ _____    ______ ____
ROOT
ATOM      1  C   UNL     1      43.643   5.080  10.789  0.00  0.00    +0.000 A 
ATOM      2  C   UNL     1      42.973   4.123  11.537  0.00  0.00    +0.000 A 
ATOM      3  N   UNL     1      43.114   2.793  11.362  0.00  0.00    +0.000 NA
ATOM      4  C   UNL     1      43.955   2.397  10.375  0.00  0.00    +0.000 A 
ATOM      5  C   UNL     1      44.669   3.252   9.533  0.00  0.00    +0.000 A 
ATOM      6  C   UNL     1      44.485   4.625   9.766  0.00  0.00    +0.000 A 
ENDROOT
BRANCH   5   7
ATOM      7  C   UNL     1      45.566   2.746   8.473  0.00  0.00    +0.000 A 
ATOM      8  C   UNL     1      46.106   3.606   7.495  0.00  0.00    +0.000 A 
ATOM      9  C   UNL     1      46.950   3.129   6.486  0.00  0.00    +0.000 A 
ATOM     10  C   UNL     1      47.283   1.780   6.440  0.00  0.00    +0.000 A 
ATOM     11  C   UNL     1      46.764   0.922   7.398  0.00  0.00    +0.000 A 
ATOM     12  F   UNL     1      47.082  -0.379   7.361  0.00  0.00    +0.000 F 
ATOM     13  C   UNL     1      45.916   1.387   8.398  0.00  0.00    +0.000 A 
ENDBRANCH   5   7
BRANCH   1  14
ATOM     14  C   UNL     1      43.460   6.545  11.069  0.00  0.00    +0.000 C 
BRANCH  14  15
ATOM     15  O   UNL     1      43.984   6.847  12.361  0.00  0.00    +0.000 OA
BRANCH  15  20
ATOM     16  C   UNL     1      46.977   5.269  13.690  0.00  0.00    +0.000 A 
ATOM     17  C   UNL     1      48.004   6.007  13.094  0.00  0.00    +0.000 A 
ATOM     18  C   UNL     1      47.693   7.059  12.232  0.00  0.00    +0.000 A 
ATOM     19  C   UNL     1      46.358   7.376  11.961  0.00  0.00    +0.000 A 
ATOM     20  C   UNL     1      45.326   6.640  12.547  0.00  0.00    +0.000 A 
ATOM     21  C   UNL     1      45.642   5.586  13.410  0.00  0.00    +0.000 A 
BRANCH  16  23
ATOM     22  N   UNL     1      47.551   3.324  15.310  0.00  0.00    +0.000 NA
ATOM     23  C   UNL     1      47.291   4.197  14.589  0.00  0.00    +0.000 C 
ENDBRANCH  16  23
ENDBRANCH  15  20
ENDBRANCH  14  15
ENDBRANCH   1  14
TORSDOF 5
ENDMDL
MODEL 3
REMARK VINA RESULT:    -8.095      2.290      2.973
REMARK INTER + INTRA:         -11.249
REMARK INTER:                 -10.349
REMARK INTRA:                  -0.900
REMARK UNBOUND:                -0.788
REMARK  Name = 
REMARK  5 active torsions:
REMARK  status: ('A' for Active; 'I' for Inactive)
REMARK    1  A    between atoms: C_2  and  C_3
REMARK    2  A    between atoms: C_7  and  O_8
REMARK    3  A    between atoms: O_8  and  C_9
REMARK    4  A    between atoms: C_9  and  C_10
REMARK    5  A    between atoms: C_14  and  C_15
REMARK                            x       y       z     vdW  Elec       q    Type
REMARK                         _______ _______ _______ _____ _____    ______ ____
ROOT
ATOM      1  C   UNL     1      44.062   5.200  11.098  0.00  0.00    +0.000 A 
ATOM      2  C   UNL     1      43.221   4.294  11.727  0.00  0.00    +0.000 A 
ATOM      3  N   UNL     1      43.141   2.988  11.403  0.00  0.00    +0.000 NA
ATOM      4  C   UNL     1      43.928   2.566  10.384  0.00  0.00    +0.000 A 
ATOM      5  C   UNL     1      44.797   3.375   9.649  0.00  0.00    +0.000 A 
ATOM      6  C   UNL     1      44.841   4.725  10.035  0.00  0.00    +0.000 A 
ENDROOT
BRANCH   5   7
ATOM      7  C   UNL     1      45.624   2.844   8.544  0.00  0.00    +0.000 A 
ATOM      8  C   UNL     1      46.108   3.683   7.520  0.00  0.00    +0.000 A 
ATOM      9  C   UNL     1      46.884   3.183   6.469  0.00  0.00    +0.000 A 
ATOM     10  C   UNL     1      47.204   1.830   6.425  0.00  0.00    +0.000 A 
ATOM     11  C   UNL     1      46.739   0.992   7.427  0.00  0.00    +0.000 A 
ATOM     12  F   UNL     1      47.044  -0.312   7.393  0.00  0.00    +0.000 F 
ATOM     13  C   UNL     1      45.958   1.481   8.471  0.00  0.00    +0.000 A 
ENDBRANCH   5   7
BRANCH   1  14
ATOM     14  C   UNL     1      44.121   6.635  11.541  0.00  0.00    +0.000 C 
BRANCH  14  15
ATOM     15  O   UNL     1      44.840   6.718  12.770  0.00  0.00    +0.000 OA
BRANCH  15  20
ATOM     16  C   UNL     1      47.900   8.564  12.107  0.00  0.00    +0.000 A 
ATOM     17  C   UNL     1      48.894   7.634  12.422  0.00  0.00    +0.000 A 
ATOM     18  C   UNL     1      48.539   6.359  12.861  0.00  0.00    +0.000 A 
ATOM     19  C   UNL     1      47.190   6.009  12.989  0.00  0.00    +0.000 A 
ATOM     20  C   UNL     1      46.190   6.935  12.683  0.00  0.00    +0.000 A 
ATOM     21  C   UNL     1      46.552   8.212  12.243  0.00  0.00    +0.000 A 
BRANCH  16  23
ATOM     22  N   UNL     1      48.557  10.926  11.253  0.00  0.00    +0.000 NA
ATOM     23  C   UNL     1      48.261   9.871  11.640  0.00  0.00    +0.000 C 
ENDBRANCH  16  23
ENDBRANCH  15  20
ENDBRANCH  14  15
ENDBRANCH   1  14
TORSDOF 5
ENDMDL
MODEL 4
REMARK VINA RESULT:    -7.760      2.785      6.353
REMARK INTER + INTRA:         -10.817
REMARK INTER:                 -10.172
REMARK INTRA:                  -0.645
REMARK UNBOUND:                -0.788
REMARK  Name = 
REMARK  5 active torsions:
REMARK  status: ('A' for Active; 'I' for Inactive)
REMARK    1  A    between atoms: C_2  and  C_3
REMARK    2  A    between atoms: C_7  and  O_8
REMARK    3  A    between atoms: O_8  and  C_9
REMARK    4  A    between atoms: C_9  and  C_10
REMARK    5  A    between atoms: C_14  and  C_15
REMARK                            x       y       z     vdW  Elec       q    Type
REMARK                         _______ _______ _______ _____ _____    ______ ____
ROOT
ATOM      1  C   UNL     1      44.750   4.948  11.769  0.00  0.00    +0.000 A 
ATOM      2  C   UNL     1      44.961   4.139  12.876  0.00  0.00    +0.000 A 
ATOM      3  N   UNL     1      45.957   4.320  13.766  0.00  0.00    +0.000 NA
ATOM      4  C   UNL     1      46.800   5.354  13.530  0.00  0.00    +0.000 A 
ATOM      5  C   UNL     1      46.720   6.228  12.443  0.00  0.00    +0.000 A 
ATOM      6  C   UNL     1      45.660   5.991  11.553  0.00  0.00    +0.000 A 
ENDROOT
BRANCH   5   7
ATOM      7  C   UNL     1      47.681   7.334  12.248  0.00  0.00    +0.000 A 
ATOM      8  C   UNL     1      47.265   8.680  12.263  0.00  0.00    +0.000 A 
ATOM      9  C   UNL     1      48.171   9.729  12.072  0.00  0.00    +0.000 A 
ATOM     10  C   UNL     1      49.519   9.454  11.872  0.00  0.00    +0.000 A 
ATOM     11  C   UNL     1      49.946   8.135  11.859  0.00  0.00    +0.000 A 
ATOM     12  F   UNL     1      51.243   7.862  11.669  0.00  0.00    +0.000 F 
ATOM     13  C   UNL     1      49.049   7.085  12.039  0.00  0.00    +0.000 A 
ENDBRANCH   5   7
BRANCH   1  14
ATOM     14  C   UNL     1      43.594   4.703  10.841  0.00  0.00    +0.000 C 
BRANCH  14  15
ATOM     15  O   UNL     1      43.739   3.420  10.236  0.00  0.00    +0.000 OA
BRANCH  15  20
ATOM     16  C   UNL     1      46.095   1.735   8.039  0.00  0.00    +0.000 A 
ATOM     17  C   UNL     1      46.632   2.790   7.298  0.00  0.00    +0.000 A 
ATOM     18  C   UNL     1      46.206   4.096   7.538  0.00  0.00    +0.000 A 
ATOM     19  C   UNL     1      45.239   4.352   8.516  0.00  0.00    +0.000 A 
ATOM     20  C   UNL     1      44.691   3.302   9.257  0.00  0.00    +0.000 A 
ATOM     21  C   UNL     1      45.122   1.995   9.013  0.00  0.00    +0.000 A 
BRANCH  16  23
ATOM     22  N   UNL     1      46.897  -0.697   7.615  0.00  0.00    +0.000 NA
ATOM     23  C   UNL     1      46.542   0.393   7.807  0.00  0.00    +0.000 C 
ENDBRANCH  16  23
ENDBRANCH  15  20
ENDBRANCH  14  15
ENDBRANCH   1  14
TORSDOF 5
ENDMDL
MODEL 5
REMARK VINA RESULT:    -7.266      3.563      7.243
REMARK INTER + INTRA:         -10.177
REMARK INTER:                  -9.667
REMARK INTRA:                  -0.510
REMARK UNBOUND:                -0.788
REMARK  Name = 
REMARK  5 active torsions:
REMARK  status: ('A' for Active; 'I' for Inactive)
REMARK    1  A    between atoms: C_2  and  C_3
REMARK    2  A    between atoms: C_7  and  O_8
REMARK    3  A    between atoms: O_8  and  C_9
REMARK    4  A    between atoms: C_9  and  C_10
REMARK    5  A    between atoms: C_14  and  C_15
REMARK                            x       y       z     vdW  Elec       q    Type
REMARK                         _______ _______ _______ _____ _____    ______ ____
ROOT
ATOM      1  C   UNL     1      45.259   4.327  12.109  0.00  0.00    +0.000 A 
ATOM      2  C   UNL     1      45.330   5.627  11.630  0.00  0.00    +0.000 A 
ATOM      3  N   UNL     1      46.060   6.605  12.203  0.00  0.00    +0.000 NA
ATOM      4  C   UNL     1      46.743   6.274  13.326  0.00  0.00    +0.000 A 
ATOM      5  C   UNL     1      46.738   5.014  13.929  0.00  0.00    +0.000 A 
ATOM      6  C   UNL     1      45.964   4.036  13.284  0.00  0.00    +0.000 A 
ENDROOT
BRANCH   5   7
ATOM      7  C   UNL     1      47.506   4.727  15.159  0.00  0.00    +0.000 A 
ATOM      8  C   UNL     1      47.508   3.443  15.741  0.00  0.00    +0.000 A 
ATOM      9  C   UNL     1      48.228   3.170  16.910  0.00  0.00    +0.000 A 
ATOM     10  C   UNL     1      48.973   4.175  17.517  0.00  0.00    +0.000 A 
ATOM     11  C   UNL     1      48.985   5.442  16.955  0.00  0.00    +0.000 A 
ATOM     12  F   UNL     1      49.701   6.415  17.533  0.00  0.00    +0.000 F 
ATOM     13  C   UNL     1      48.263   5.725  15.798  0.00  0.00    +0.000 A 
ENDBRANCH   5   7
BRANCH   1  14
ATOM     14  C   UNL     1      44.452   3.282  11.392  0.00  0.00    +0.000 C 
BRANCH  14  15
ATOM     15  O   UNL     1      44.132   3.749  10.084  0.00  0.00    +0.000 OA
BRANCH  15  20
ATOM     16  C   UNL     1      46.268   1.749   7.927  0.00  0.00    +0.000 A 
ATOM     17  C   UNL     1      46.893   2.714   7.133  0.00  0.00    +0.000 A 
ATOM     18  C   UNL     1      46.601   4.065   7.323  0.00  0.00    +0.000 A 
ATOM     19  C   UNL     1      45.684   4.456   8.303  0.00  0.00    +0.000 A 
ATOM     20  C   UNL     1      45.049   3.498   9.097  0.00  0.00    +0.000 A 
ATOM     21  C   UNL     1      45.345   2.145   8.903  0.00  0.00    +0.000 A 
BRANCH  16  23
ATOM     22  N   UNL     1      46.825  -0.766   7.609  0.00  0.00    +0.000 NA
ATOM     23  C   UNL     1      46.577   0.361   7.747  0.00  0.00    +0.000 C 
ENDBRANCH  16  23
ENDBRANCH  15  20
ENDBRANCH  14  15
ENDBRANCH   1  14
TORSDOF 5
ENDMDL
MODEL 6
REMARK VINA RESULT:    -7.110      2.654      3.867
REMARK INTER + INTRA:          -9.976
REMARK INTER:                  -9.346
REMARK INTRA:                  -0.630
REMARK UNBOUND:                -0.788
REMARK  Name = 
REMARK  5 active torsions:
REMARK  status: ('A' for Active; 'I' for Inactive)
REMARK    1  A    between atoms: C_2  and  C_3
REMARK    2  A    between atoms: C_7  and  O_8
REMARK    3  A    between atoms: O_8  and  C_9
REMARK    4  A    between atoms: C_9  and  C_10
REMARK    5  A    between atoms: C_14  and  C_15
REMARK                            x       y       z     vdW  Elec       q    Type
REMARK                         _______ _______ _______ _____ _____    ______ ____
ROOT
ATOM      1  C   UNL     1      44.805   5.138  12.013  0.00  0.00    +0.000 A 
ATOM      2  C   UNL     1      43.517   4.672  12.227  0.00  0.00    +0.000 A 
ATOM      3  N   UNL     1      42.902   3.762  11.445  0.00  0.00    +0.000 NA
ATOM      4  C   UNL     1      43.604   3.305  10.380  0.00  0.00    +0.000 A 
ATOM      5  C   UNL     1      44.895   3.709  10.032  0.00  0.00    +0.000 A 
ATOM      6  C   UNL     1      45.485   4.655  10.887  0.00  0.00    +0.000 A 
ENDROOT
BRANCH   5   7
ATOM      7  C   UNL     1      45.598   3.168   8.850  0.00  0.00    +0.000 A 
ATOM      8  C   UNL     1      46.027   4.009   7.802  0.00  0.00    +0.000 A 
ATOM      9  C   UNL     1      46.686   3.500   6.678  0.00  0.00    +0.000 A 
ATOM     10  C   UNL     1      46.942   2.136   6.582  0.00  0.00    +0.000 A 
ATOM     11  C   UNL     1      46.532   1.297   7.606  0.00  0.00    +0.000 A 
ATOM     12  F   UNL     1      46.776  -0.018   7.521  0.00  0.00    +0.000 F 
ATOM     13  C   UNL     1      45.866   1.794   8.723  0.00  0.00    +0.000 A 
ENDBRANCH   5   7
BRANCH   1  14
ATOM     14  C   UNL     1      45.436   6.127  12.951  0.00  0.00    +0.000 C 
BRANCH  14  15
ATOM     15  O   UNL     1      46.406   6.896  12.243  0.00  0.00    +0.000 OA
BRANCH  15  20
ATOM     16  C   UNL     1      44.373   9.742  11.253  0.00  0.00    +0.000 A 
ATOM     17  C   UNL     1      45.233  10.823  11.467  0.00  0.00    +0.000 A 
ATOM     18  C   UNL     1      46.523  10.600  11.948  0.00  0.00    +0.000 A 
ATOM     19  C   UNL     1      46.958   9.299  12.218  0.00  0.00    +0.000 A 
ATOM     20  C   UNL     1      46.103   8.213  12.014  0.00  0.00    +0.000 A 
ATOM     21  C   UNL     1      44.810   8.442  11.532  0.00  0.00    +0.000 A 
BRANCH  16  23
ATOM     22  N   UNL     1      41.984  10.147  10.322  0.00  0.00    +0.000 NA
ATOM     23  C   UNL     1      43.051   9.966  10.744  0.00  0.00    +0.000 C 
ENDBRANCH  16  23
ENDBRANCH  15  20
ENDBRANCH  14  15
ENDBRANCH   1  14
TORSDOF 5
ENDMDL
MODEL 7
REMARK VINA RESULT:    -6.898      2.853      3.754
REMARK INTER + INTRA:          -9.702
REMARK INTER:                  -8.926
REMARK INTRA:                  -0.776
REMARK UNBOUND:                -0.788
REMARK  Name = 
REMARK  5 active torsions:
REMARK  status: ('A' for Active; 'I' for Inactive)
REMARK    1  A    between atoms: C_2  and  C_3
REMARK    2  A    between atoms: C_7  and  O_8
REMARK    3  A    between atoms: O_8  and  C_9
REMARK    4  A    between atoms: C_9  and  C_10
REMARK    5  A    between atoms: C_14  and  C_15
REMARK                            x       y       z     vdW  Elec       q    Type
REMARK                         _______ _______ _______ _____ _____    ______ ____
ROOT
ATOM      1  C   UNL     1      45.051   6.409  12.062  0.00  0.00    +0.000 A 
ATOM      2  C   UNL     1      43.737   6.129  12.405  0.00  0.00    +0.000 A 
ATOM      3  N   UNL     1      42.986   5.182  11.807  0.00  0.00    +0.000 NA
ATOM      4  C   UNL     1      43.571   4.489  10.800  0.00  0.00    +0.000 A 
ATOM      5  C   UNL     1      44.874   4.687  10.337  0.00  0.00    +0.000 A 
ATOM      6  C   UNL     1      45.608   5.684  11.001  0.00  0.00    +0.000 A 
ENDROOT
BRANCH   5   7
ATOM      7  C   UNL     1      45.444   3.894   9.228  0.00  0.00    +0.000 A 
ATOM      8  C   UNL     1      46.070   4.514   8.127  0.00  0.00    +0.000 A 
ATOM      9  C   UNL     1      46.605   3.767   7.072  0.00  0.00    +0.000 A 
ATOM     10  C   UNL     1      46.536   2.378   7.101  0.00  0.00    +0.000 A 
ATOM     11  C   UNL     1      45.928   1.752   8.179  0.00  0.00    +0.000 A 
ATOM     12  F   UNL     1      45.860   0.415   8.214  0.00  0.00    +0.000 F 
ATOM     13  C   UNL     1      45.385   2.489   9.227  0.00  0.00    +0.000 A 
ENDBRANCH   5   7
BRANCH   1  14
ATOM     14  C   UNL     1      45.836   7.457  12.800  0.00  0.00    +0.000 C 
BRANCH  14  15
ATOM     15  O   UNL     1      47.215   7.092  12.810  0.00  0.00    +0.000 OA
BRANCH  15  20
ATOM     16  C   UNL     1      50.290   8.292  11.289  0.00  0.00    +0.000 A 
ATOM     17  C   UNL     1      50.078   9.672  11.214  0.00  0.00    +0.000 A 
ATOM     18  C   UNL     1      48.885  10.218  11.686  0.00  0.00    +0.000 A 
ATOM     19  C   UNL     1      47.899   9.389  12.232  0.00  0.00    +0.000 A 
ATOM     20  C   UNL     1      48.099   8.008  12.304  0.00  0.00    +0.000 A 
ATOM     21  C   UNL     1      49.297   7.466  11.829  0.00  0.00    +0.000 A 
BRANCH  16  23
ATOM     22  N   UNL     1      52.517   7.272  10.429  0.00  0.00    +0.000 NA
ATOM     23  C   UNL     1      51.522   7.729  10.819  0.00  0.00    +0.000 C 
ENDBRANCH  16  23
ENDBRANCH  15  20
ENDBRANCH  14  15
ENDBRANCH   1  14
TORSDOF 5
ENDMDL
MODEL 8
REMARK VINA RESULT:    -6.873      2.125      2.659
REMARK INTER + INTRA:          -9.671
REMARK INTER:                  -9.006
REMARK INTRA:                  -0.665
REMARK UNBOUND:                -0.788
REMARK  Name = 
REMARK  5 active torsions:
REMARK  status: ('A' for Active; 'I' for Inactive)
REMARK    1  A    between atoms: C_2  and  C_3
REMARK    2  A    between atoms: C_7  and  O_8
REMARK    3  A    between atoms: O_8  and  C_9
REMARK    4  A    between atoms: C_9  and  C_10
REMARK    5  A    between atoms: C_14  and  C_15
REMARK                            x       y       z     vdW  Elec       q    Type
REMARK                         _______ _______ _______ _____ _____    ______ ____
ROOT
ATOM      1  C   UNL     1      44.994   6.270  11.290  0.00  0.00    +0.000 A 
ATOM      2  C   UNL     1      43.696   5.957  11.668  0.00  0.00    +0.000 A 
ATOM      3  N   UNL     1      43.004   4.904  11.191  0.00  0.00    +0.000 NA
ATOM      4  C   UNL     1      43.632   4.130  10.273  0.00  0.00    +0.000 A 
ATOM      5  C   UNL     1      44.923   4.346   9.786  0.00  0.00    +0.000 A 
ATOM      6  C   UNL     1      45.596   5.455  10.323  0.00  0.00    +0.000 A 
ENDROOT
BRANCH   5   7
ATOM      7  C   UNL     1      45.543   3.459   8.779  0.00  0.00    +0.000 A 
ATOM      8  C   UNL     1      45.708   2.080   9.016  0.00  0.00    +0.000 A 
ATOM      9  C   UNL     1      46.302   1.239   8.068  0.00  0.00    +0.000 A 
ATOM     10  C   UNL     1      46.735   1.760   6.853  0.00  0.00    +0.000 A 
ATOM     11  C   UNL     1      46.576   3.114   6.602  0.00  0.00    +0.000 A 
ATOM     12  F   UNL     1      46.989   3.622   5.434  0.00  0.00    +0.000 F 
ATOM     13  C   UNL     1      45.996   3.958   7.544  0.00  0.00    +0.000 A 
ENDBRANCH   5   7
BRANCH   1  14
ATOM     14  C   UNL     1      45.714   7.442  11.895  0.00  0.00    +0.000 C 
BRANCH  14  15
ATOM     15  O   UNL     1      46.610   6.976  12.901  0.00  0.00    +0.000 OA
BRANCH  15  20
ATOM     16  C   UNL     1      49.984   7.660  14.068  0.00  0.00    +0.000 A 
ATOM     17  C   UNL     1      50.579   8.259  12.954  0.00  0.00    +0.000 A 
ATOM     18  C   UNL     1      49.839   8.444  11.787  0.00  0.00    +0.000 A 
ATOM     19  C   UNL     1      48.503   8.031  11.727  0.00  0.00    +0.000 A 
ATOM     20  C   UNL     1      47.903   7.426  12.834  0.00  0.00    +0.000 A 
ATOM     21  C   UNL     1      48.650   7.242  14.001  0.00  0.00    +0.000 A 
BRANCH  16  23
ATOM     22  N   UNL     1      51.351   7.329  16.250  0.00  0.00    +0.000 NA
ATOM     23  C   UNL     1      50.737   7.482  15.275  0.00  0.00    +0.000 C 
ENDBRANCH  16  23
ENDBRANCH  15  20
ENDBRANCH  14  15
ENDBRANCH   1  14
TORSDOF 5
ENDMDL
MODEL 9
REMARK VINA RESULT:    -6.668      2.810      4.634
REMARK INTER + INTRA:          -9.406
REMARK INTER:                  -8.681
REMARK INTRA:                  -0.725
REMARK UNBOUND:                -0.788
REMARK  Name = 
REMARK  5 active torsions:
REMARK  status: ('A' for Active; 'I' for Inactive)
REMARK    1  A    between atoms: C_2  and  C_3
REMARK    2  A    between atoms: C_7  and  O_8
REMARK    3  A    between atoms: O_8  and  C_9
REMARK    4  A    between atoms: C_9  and  C_10
REMARK    5  A    between atoms: C_14  and  C_15
REMARK                            x       y       z     vdW  Elec       q    Type
REMARK                         _______ _______ _______ _____ _____    ______ ____
ROOT
ATOM      1  C   UNL     1      47.508   7.397  12.843  0.00  0.00    +0.000 A 
ATOM      2  C   UNL     1      46.586   8.415  13.040  0.00  0.00    +0.000 A 
ATOM      3  N   UNL     1      45.328   8.398  12.557  0.00  0.00    +0.000 NA
ATOM      4  C   UNL     1      44.974   7.315  11.823  0.00  0.00    +0.000 A 
ATOM      5  C   UNL     1      45.808   6.235  11.526  0.00  0.00    +0.000 A 
ATOM      6  C   UNL     1      47.106   6.307  12.060  0.00  0.00    +0.000 A 
ENDROOT
BRANCH   5   7
ATOM      7  C   UNL     1      45.353   5.088  10.714  0.00  0.00    +0.000 A 
ATOM      8  C   UNL     1      44.632   4.021  11.287  0.00  0.00    +0.000 A 
ATOM      9  C   UNL     1      44.205   2.930  10.522  0.00  0.00    +0.000 A 
ATOM     10  C   UNL     1      44.483   2.887   9.160  0.00  0.00    +0.000 A 
ATOM     11  C   UNL     1      45.188   3.930   8.580  0.00  0.00    +0.000 A 
ATOM     12  F   UNL     1      45.457   3.896   7.268  0.00  0.00    +0.000 F 
ATOM     13  C   UNL     1      45.624   5.014   9.336  0.00  0.00    +0.000 A 
ENDBRANCH   5   7
BRANCH   1  14
ATOM     14  C   UNL     1      48.883   7.472  13.445  0.00  0.00    +0.000 C 
BRANCH  14  15
ATOM     15  O   UNL     1      48.772   7.745  14.840  0.00  0.00    +0.000 OA
BRANCH  15  20
ATOM     16  C   UNL     1      48.515   4.734  16.860  0.00  0.00    +0.000 A 
ATOM     17  C   UNL     1      49.789   4.633  17.426  0.00  0.00    +0.000 A 
ATOM     18  C   UNL     1      50.757   5.594  17.132  0.00  0.00    +0.000 A 
ATOM     19  C   UNL     1      50.457   6.656  16.273  0.00  0.00    +0.000 A 
ATOM     20  C   UNL     1      49.188   6.760  15.697  0.00  0.00    +0.000 A 
ATOM     21  C   UNL     1      48.221   5.794  15.994  0.00  0.00    +0.000 A 
BRANCH  16  23
ATOM     22  N   UNL     1      46.695   2.968  17.416  0.00  0.00    +0.000 NA
ATOM     23  C   UNL     1      47.513   3.757  17.171  0.00  0.00    +0.000 C 
ENDBRANCH  16  23
ENDBRANCH  15  20
ENDBRANCH  14  15
ENDBRANCH   1  14
TORSDOF 5
ENDMDL
