MODEL 1
REMARK VINA RESULT:    -7.203      0.000      0.000
REMARK INTER + INTRA:         -11.438
REMARK INTER:                 -10.150
REMARK INTRA:                  -1.288
REMARK UNBOUND:                -1.288
REMARK  Name = 
REMARK  8 active torsions:
REMARK  status: ('A' for Active; 'I' for Inactive)
REMARK    1  A    between atoms: N_1  and  C_2
REMARK    2  A    between atoms: C_2  and  C_3
REMARK    3  A    between atoms: C_10  and  C_11
REMARK    4  A    between atoms: C_11  and  C_12
REMARK    5  A    between atoms: C_15  and  C_16
REMARK    6  A    between atoms: C_16  and  N_17
REMARK    7  A    between atoms: N_20  and  C_21
REMARK    8  A    between atoms: C_21  and  C_22
REMARK                            x       y       z     vdW  Elec       q    Type
REMARK                         _______ _______ _______ _____ _____    ______ ____
ROOT
ATOM      1  C   UNL     1      46.560   2.351   7.188  0.00  0.00    +0.000 A 
ATOM      2  C   UNL     1      45.692   1.590   7.981  0.00  0.00    +0.000 A 
ATOM      3  N   UNL     1      44.955   2.043   9.027  0.00  0.00    +0.000 NA
ATOM      4  C   UNL     1      45.134   3.360   9.232  0.00  0.00    +0.000 A 
ATOM      5  C   UNL     1      45.969   4.227   8.550  0.00  0.00    +0.000 A 
ATOM      6  C   UNL     1      46.723   3.713   7.492  0.00  0.00    +0.000 A 
ATOM      7  N   UNL     1      45.886   5.488   9.076  0.00  0.00    +0.000 NA
ATOM      8  C   UNL     1      45.025   5.411  10.079  0.00  0.00    +0.000 A 
ATOM      9  N   UNL     1      44.503   4.135  10.165  0.00  0.00    +0.000 N 
ENDROOT
BRANCH   1  10
ATOM     10  C   UNL     1      47.279   1.724   6.030  0.00  0.00    +0.000 C 
BRANCH  10  11
ATOM     11  N   UNL     1      48.657   2.190   5.962  0.00  0.00    +0.000 NA
ATOM     12  H   UNL     1      48.819   2.874   6.701  0.00  0.00    +0.000 HD
ATOM     13  H   UNL     1      48.799   2.682   5.081  0.00  0.00    +0.000 HD
ENDBRANCH  10  11
ENDBRANCH   1  10
BRANCH   8  14
ATOM     14  C   UNL     1      44.659   6.527  11.019  0.00  0.00    +0.000 C 
BRANCH  14  15
ATOM     15  C   UNL     1      45.715   6.988  12.007  0.00  0.00    +0.000 C 
ATOM     16  C   UNL     1      45.703   8.222  12.549  0.00  0.00    +0.000 C 
ATOM     17  C   UNL     1      46.693   8.703  13.576  0.00  0.00    +0.000 C 
ATOM     18  C   UNL     1      47.886   7.757  13.822  0.00  0.00    +0.000 C 
ATOM     19  C   UNL     1      47.398   6.298  13.766  0.00  0.00    +0.000 C 
ATOM     20  C   UNL     1      46.753   5.966  12.417  0.00  0.00    +0.000 C 
BRANCH  18  21
ATOM     21  C   UNL     1      49.034   8.047  12.836  0.00  0.00    +0.000 C 
BRANCH  21  22
ATOM     22  N   UNL     1      50.127   7.085  12.982  0.00  0.00    +0.000 NA
ATOM     23  H   UNL     1      50.829   7.456  13.619  0.00  0.00    +0.000 HD
ATOM     24  H   UNL     1      50.587   6.959  12.081  0.00  0.00    +0.000 HD
ENDBRANCH  21  22
ENDBRANCH  18  21
ENDBRANCH  14  15
ENDBRANCH   8  14
BRANCH   9  25
ATOM     25  C   UNL     1      43.538   3.605  11.099  0.00  0.00    +0.000 C 
BRANCH  25  26
ATOM     26  C   UNL     1      44.117   3.182  12.440  0.00  0.00    +0.000 C 
ATOM     27  F   UNL     1      45.434   2.904  12.426  0.00  0.00    +0.000 F 
ATOM     28  F   UNL     1      43.899   4.129  13.382  0.00  0.00    +0.000 F 
ATOM     29  F   UNL     1      43.488   2.056  12.872  0.00  0.00    +0.000 F 
ENDBRANCH  25  26
ENDBRANCH   9  25
TORSDOF 8
ENDMDL
MODEL 2
REMARK VINA RESULT:    -6.312      3.239      7.234
REMARK INTER + INTRA:         -10.182
REMARK INTER:                  -9.746
REMARK INTRA:                  -0.436
REMARK UNBOUND:                -1.288
REMARK  Name = 
REMARK  8 active torsions:
REMARK  status: ('A' for Active; 'I' for Inactive)
REMARK    1  A    between atoms: N_1  and  C_2
REMARK    2  A    between atoms: C_2  and  C_3
REMARK    3  A    between atoms: C_10  and  C_11
REMARK    4  A    between atoms: C_11  and  C_12
REMARK    5  A    between atoms: C_15  and  C_16
REMARK    6  A    between atoms: C_16  and  N_17
REMARK    7  A    between atoms: N_20  and  C_21
REMARK    8  A    between atoms: C_21  and  C_22
REMARK                            x       y       z     vdW  Elec       q    Type
REMARK                         _______ _______ _______ _____ _____    ______ ____
ROOT
ATOM      1  C   UNL     1      47.709   4.579  16.200  0.00  0.00    +0.000 A 
ATOM      2  C   UNL     1      48.572   5.615  15.823  0.00  0.00    +0.000 A 
ATOM      3  N   UNL     1      48.542   6.299  14.651  0.00  0.00    +0.000 NA
ATOM      4  C   UNL     1      47.546   5.879  13.852  0.00  0.00    +0.000 A 
ATOM      5  C   UNL     1      46.637   4.860  14.079  0.00  0.00    +0.000 A 
ATOM      6  C   UNL     1      46.718   4.170  15.292  0.00  0.00    +0.000 A 
ATOM      7  N   UNL     1      45.792   4.723  13.012  0.00  0.00    +0.000 NA
ATOM      8  C   UNL     1      46.171   5.630  12.125  0.00  0.00    +0.000 A 
ATOM      9  N   UNL     1      47.205   6.392  12.632  0.00  0.00    +0.000 N 
ENDROOT
BRANCH   1  10
ATOM     10  C   UNL     1      47.831   3.941  17.553  0.00  0.00    +0.000 C 
BRANCH  10  11
ATOM     11  N   UNL     1      46.846   2.881  17.716  0.00  0.00    +0.000 NA
ATOM     12  H   UNL     1      46.830   2.302  16.877  0.00  0.00    +0.000 HD
ATOM     13  H   UNL     1      45.918   3.298  17.793  0.00  0.00    +0.000 HD
ENDBRANCH  10  11
ENDBRANCH   1  10
BRANCH   8  14
ATOM     14  C   UNL     1      45.592   5.817  10.748  0.00  0.00    +0.000 C 
BRANCH  14  15
ATOM     15  C   UNL     1      45.364   4.575   9.907  0.00  0.00    +0.000 C 
ATOM     16  C   UNL     1      44.817   3.452  10.416  0.00  0.00    +0.000 C 
ATOM     17  C   UNL     1      44.517   2.218   9.608  0.00  0.00    +0.000 C 
ATOM     18  C   UNL     1      45.085   2.226   8.174  0.00  0.00    +0.000 C 
ATOM     19  C   UNL     1      44.968   3.644   7.588  0.00  0.00    +0.000 C 
ATOM     20  C   UNL     1      45.716   4.675   8.439  0.00  0.00    +0.000 C 
BRANCH  18  21
ATOM     21  C   UNL     1      46.527   1.680   8.147  0.00  0.00    +0.000 C 
BRANCH  21  22
ATOM     22  N   UNL     1      46.558   0.256   7.815  0.00  0.00    +0.000 NA
ATOM     23  H   UNL     1      47.451  -0.144   8.099  0.00  0.00    +0.000 HD
ATOM     24  H   UNL     1      46.497   0.145   6.804  0.00  0.00    +0.000 HD
ENDBRANCH  21  22
ENDBRANCH  18  21
ENDBRANCH  14  15
ENDBRANCH   8  14
BRANCH   9  25
ATOM     25  C   UNL     1      47.920   7.485  12.015  0.00  0.00    +0.000 C 
BRANCH  25  26
ATOM     26  C   UNL     1      47.326   8.860  12.276  0.00  0.00    +0.000 C 
ATOM     27  F   UNL     1      47.334   9.246  13.566  0.00  0.00    +0.000 F 
ATOM     28  F   UNL     1      47.964   9.809  11.551  0.00  0.00    +0.000 F 
ATOM     29  F   UNL     1      46.027   8.878  11.874  0.00  0.00    +0.000 F 
ENDBRANCH  25  26
ENDBRANCH   9  25
TORSDOF 8
ENDMDL
MODEL 3
REMARK VINA RESULT:    -6.217      1.693      6.335
REMARK INTER + INTRA:         -10.049
REMARK INTER:                  -9.102
REMARK INTRA:                  -0.947
REMARK UNBOUND:                -1.288
REMARK  Name = 
REMARK  8 active torsions:
REMARK  status: ('A' for Active; 'I' for Inactive)
REMARK    1  A    between atoms: N_1  and  C_2
REMARK    2  A    between atoms: C_2  and  C_3
REMARK    3  A    between atoms: C_10  and  C_11
REMARK    4  A    between atoms: C_11  and  C_12
REMARK    5  A    between atoms: C_15  and  C_16
REMARK    6  A    between atoms: C_16  and  N_17
REMARK    7  A    between atoms: N_20  and  C_21
REMARK    8  A    between atoms: C_21  and  C_22
REMARK                            x       y       z     vdW  Elec       q    Type
REMARK                         _______ _______ _______ _____ _____    ______ ____
ROOT
ATOM      1  C   UNL     1      48.542   7.333  13.590  0.00  0.00    +0.000 A 
ATOM      2  C   UNL     1      47.890   6.409  14.416  0.00  0.00    +0.000 A 
ATOM      3  N   UNL     1      46.928   5.531  14.035  0.00  0.00    +0.000 NA
ATOM      4  C   UNL     1      46.655   5.625  12.722  0.00  0.00    +0.000 A 
ATOM      5  C   UNL     1      47.198   6.499  11.795  0.00  0.00    +0.000 A 
ATOM      6  C   UNL     1      48.172   7.398  12.237  0.00  0.00    +0.000 A 
ATOM      7  N   UNL     1      46.641   6.297  10.561  0.00  0.00    +0.000 NA
ATOM      8  C   UNL     1      45.756   5.324  10.713  0.00  0.00    +0.000 A 
ATOM      9  N   UNL     1      45.781   4.852  12.011  0.00  0.00    +0.000 N 
ENDROOT
BRANCH   1  10
ATOM     10  C   UNL     1      49.625   8.214  14.141  0.00  0.00    +0.000 C 
BRANCH  10  11
ATOM     11  N   UNL     1      50.695   7.416  14.724  0.00  0.00    +0.000 NA
ATOM     12  H   UNL     1      51.387   8.035  15.145  0.00  0.00    +0.000 HD
ATOM     13  H   UNL     1      51.177   6.912  13.980  0.00  0.00    +0.000 HD
ENDBRANCH  10  11
ENDBRANCH   1  10
BRANCH   8  14
ATOM     14  C   UNL     1      44.829   4.799   9.651  0.00  0.00    +0.000 C 
BRANCH  14  15
ATOM     15  C   UNL     1      45.339   3.678   8.764  0.00  0.00    +0.000 C 
ATOM     16  C   UNL     1      45.328   2.388   9.158  0.00  0.00    +0.000 C 
ATOM     17  C   UNL     1      45.768   1.238   8.293  0.00  0.00    +0.000 C 
ATOM     18  C   UNL     1      46.456   1.643   6.973  0.00  0.00    +0.000 C 
ATOM     19  C   UNL     1      45.759   2.888   6.398  0.00  0.00    +0.000 C 
ATOM     20  C   UNL     1      45.799   4.066   7.377  0.00  0.00    +0.000 C 
BRANCH  18  21
ATOM     21  C   UNL     1      47.970   1.840   7.177  0.00  0.00    +0.000 C 
BRANCH  21  22
ATOM     22  N   UNL     1      48.668   2.013   5.903  0.00  0.00    +0.000 NA
ATOM     23  H   UNL     1      48.050   1.758   5.135  0.00  0.00    +0.000 HD
ATOM     24  H   UNL     1      49.462   1.374   5.864  0.00  0.00    +0.000 HD
ENDBRANCH  21  22
ENDBRANCH  18  21
ENDBRANCH  14  15
ENDBRANCH   8  14
BRANCH   9  25
ATOM     25  C   UNL     1      44.992   3.804  12.616  0.00  0.00    +0.000 C 
BRANCH  25  26
ATOM     26  C   UNL     1      43.526   4.150  12.821  0.00  0.00    +0.000 C 
ATOM     27  F   UNL     1      43.264   5.466  12.931  0.00  0.00    +0.000 F 
ATOM     28  F   UNL     1      42.766   3.655  11.816  0.00  0.00    +0.000 F 
ATOM     29  F   UNL     1      43.078   3.569  13.966  0.00  0.00    +0.000 F 
ENDBRANCH  25  26
ENDBRANCH   9  25
TORSDOF 8
ENDMDL
MODEL 4
REMARK VINA RESULT:    -5.614      4.212      6.181
REMARK INTER + INTRA:          -9.199
REMARK INTER:                  -8.886
REMARK INTRA:                  -0.312
REMARK UNBOUND:                -1.288
REMARK  Name = 
REMARK  8 active torsions:
REMARK  status: ('A' for Active; 'I' for Inactive)
REMARK    1  A    between atoms: N_1  and  C_2
REMARK    2  A    between atoms: C_2  and  C_3
REMARK    3  A    between atoms: C_10  and  C_11
REMARK    4  A    between atoms: C_11  and  C_12
REMARK    5  A    between atoms: C_15  and  C_16
REMARK    6  A    between atoms: C_16  and  N_17
REMARK    7  A    between atoms: N_20  and  C_21
REMARK    8  A    between atoms: C_21  and  C_22
REMARK                            x       y       z     vdW  Elec       q    Type
REMARK                         _______ _______ _______ _____ _____    ______ ____
ROOT
ATOM      1  C   UNL     1      44.648   3.986  11.357  0.00  0.00    +0.000 A 
ATOM      2  C   UNL     1      44.713   5.308  10.898  0.00  0.00    +0.000 A 
ATOM      3  N   UNL     1      45.466   6.306  11.428  0.00  0.00    +0.000 NA
ATOM      4  C   UNL     1      46.192   5.882  12.477  0.00  0.00    +0.000 A 
ATOM      5  C   UNL     1      46.213   4.623  13.051  0.00  0.00    +0.000 A 
ATOM      6  C   UNL     1      45.407   3.631  12.484  0.00  0.00    +0.000 A 
ATOM      7  N   UNL     1      47.067   4.596  14.120  0.00  0.00    +0.000 NA
ATOM      8  C   UNL     1      47.563   5.819  14.224  0.00  0.00    +0.000 A 
ATOM      9  N   UNL     1      47.092   6.616  13.198  0.00  0.00    +0.000 N 
ENDROOT
BRANCH   1  10
ATOM     10  C   UNL     1      43.803   2.974  10.641  0.00  0.00    +0.000 C 
BRANCH  10  11
ATOM     11  N   UNL     1      43.057   2.160  11.590  0.00  0.00    +0.000 NA
ATOM     12  H   UNL     1      43.523   1.260  11.703  0.00  0.00    +0.000 HD
ATOM     13  H   UNL     1      42.135   1.957  11.203  0.00  0.00    +0.000 HD
ENDBRANCH  10  11
ENDBRANCH   1  10
BRANCH   8  14
ATOM     14  C   UNL     1      48.493   6.308  15.301  0.00  0.00    +0.000 C 
BRANCH  14  15
ATOM     15  C   UNL     1      48.734   5.396  16.489  0.00  0.00    +0.000 C 
ATOM     16  C   UNL     1      47.788   4.557  16.956  0.00  0.00    +0.000 C 
ATOM     17  C   UNL     1      48.000   3.593  18.092  0.00  0.00    +0.000 C 
ATOM     18  C   UNL     1      49.327   3.772  18.858  0.00  0.00    +0.000 C 
ATOM     19  C   UNL     1      50.443   4.134  17.863  0.00  0.00    +0.000 C 
ATOM     20  C   UNL     1      50.123   5.417  17.089  0.00  0.00    +0.000 C 
BRANCH  18  21
ATOM     21  C   UNL     1      49.174   4.803  19.993  0.00  0.00    +0.000 C 
BRANCH  21  22
ATOM     22  N   UNL     1      48.293   4.312  21.053  0.00  0.00    +0.000 NA
ATOM     23  H   UNL     1      47.324   4.508  20.812  0.00  0.00    +0.000 HD
ATOM     24  H   UNL     1      48.489   4.819  21.915  0.00  0.00    +0.000 HD
ENDBRANCH  21  22
ENDBRANCH  18  21
ENDBRANCH  14  15
ENDBRANCH   8  14
BRANCH   9  25
ATOM     25  C   UNL     1      47.369   8.005  12.921  0.00  0.00    +0.000 C 
BRANCH  25  26
ATOM     26  C   UNL     1      48.609   8.249  12.075  0.00  0.00    +0.000 C 
ATOM     27  F   UNL     1      49.778   8.073  12.719  0.00  0.00    +0.000 F 
ATOM     28  F   UNL     1      48.611   7.456  10.978  0.00  0.00    +0.000 F 
ATOM     29  F   UNL     1      48.605   9.531  11.622  0.00  0.00    +0.000 F 
ENDBRANCH  25  26
ENDBRANCH   9  25
TORSDOF 8
ENDMDL
MODEL 5
REMARK VINA RESULT:    -5.441      3.438      5.839
REMARK INTER + INTRA:          -8.955
REMARK INTER:                  -8.629
REMARK INTRA:                  -0.326
REMARK UNBOUND:                -1.288
REMARK  Name = 
REMARK  8 active torsions:
REMARK  status: ('A' for Active; 'I' for Inactive)
REMARK    1  A    between atoms: N_1  and  C_2
REMARK    2  A    between atoms: C_2  and  C_3
REMARK    3  A    between atoms: C_10  and  C_11
REMARK    4  A    between atoms: C_11  and  C_12
REMARK    5  A    between atoms: C_15  and  C_16
REMARK    6  A    between atoms: C_16  and  N_17
REMARK    7  A    between atoms: N_20  and  C_21
REMARK    8  A    between atoms: C_21  and  C_22
REMARK                            x       y       z     vdW  Elec       q    Type
REMARK                         _______ _______ _______ _____ _____    ______ ____
ROOT
ATOM      1  C   UNL     1      45.211   8.772  11.942  0.00  0.00    +0.000 A 
ATOM      2  C   UNL     1      44.511   7.856  11.147  0.00  0.00    +0.000 A 
ATOM      3  N   UNL     1      44.566   6.503  11.242  0.00  0.00    +0.000 NA
ATOM      4  C   UNL     1      45.385   6.104  12.232  0.00  0.00    +0.000 A 
ATOM      5  C   UNL     1      46.152   6.887  13.076  0.00  0.00    +0.000 A 
ATOM      6  C   UNL     1      46.078   8.275  12.929  0.00  0.00    +0.000 A 
ATOM      7  N   UNL     1      46.872   6.103  13.936  0.00  0.00    +0.000 NA
ATOM      8  C   UNL     1      46.572   4.850  13.629  0.00  0.00    +0.000 A 
ATOM      9  N   UNL     1      45.621   4.818  12.628  0.00  0.00    +0.000 N 
ENDROOT
BRANCH   1  10
ATOM     10  C   UNL     1      45.016  10.248  11.753  0.00  0.00    +0.000 C 
BRANCH  10  11
ATOM     11  N   UNL     1      43.684  10.653  12.181  0.00  0.00    +0.000 NA
ATOM     12  H   UNL     1      43.715  10.937  13.160  0.00  0.00    +0.000 HD
ATOM     13  H   UNL     1      43.061   9.846  12.137  0.00  0.00    +0.000 HD
ENDBRANCH  10  11
ENDBRANCH   1  10
BRANCH   8  14
ATOM     14  C   UNL     1      47.175   3.619  14.248  0.00  0.00    +0.000 C 
BRANCH  14  15
ATOM     15  C   UNL     1      47.602   3.700  15.702  0.00  0.00    +0.000 C 
ATOM     16  C   UNL     1      47.160   4.669  16.529  0.00  0.00    +0.000 C 
ATOM     17  C   UNL     1      47.508   4.756  17.990  0.00  0.00    +0.000 C 
ATOM     18  C   UNL     1      48.603   3.775  18.457  0.00  0.00    +0.000 C 
ATOM     19  C   UNL     1      48.425   2.431  17.730  0.00  0.00    +0.000 C 
ATOM     20  C   UNL     1      48.500   2.592  16.208  0.00  0.00    +0.000 C 
BRANCH  18  21
ATOM     21  C   UNL     1      50.007   4.383  18.267  0.00  0.00    +0.000 C 
BRANCH  21  22
ATOM     22  N   UNL     1      51.059   3.391  18.491  0.00  0.00    +0.000 NA
ATOM     23  H   UNL     1      51.965   3.793  18.260  0.00  0.00    +0.000 HD
ATOM     24  H   UNL     1      50.919   2.603  17.859  0.00  0.00    +0.000 HD
ENDBRANCH  21  22
ENDBRANCH  18  21
ENDBRANCH  14  15
ENDBRANCH   8  14
BRANCH   9  25
ATOM     25  C   UNL     1      45.007   3.677  11.990  0.00  0.00    +0.000 C 
BRANCH  25  26
ATOM     26  C   UNL     1      43.576   3.401  12.424  0.00  0.00    +0.000 C 
ATOM     27  F   UNL     1      43.227   3.942  13.606  0.00  0.00    +0.000 F 
ATOM     28  F   UNL     1      42.695   3.832  11.490  0.00  0.00    +0.000 F 
ATOM     29  F   UNL     1      43.387   2.059  12.540  0.00  0.00    +0.000 F 
ENDBRANCH  25  26
ENDBRANCH   9  25
TORSDOF 8
ENDMDL
MODEL 6
REMARK VINA RESULT:    -5.399      4.131      8.407
REMARK INTER + INTRA:          -8.896
REMARK INTER:                  -7.948
REMARK INTRA:                  -0.948
REMARK UNBOUND:                -1.288
REMARK  Name = 
REMARK  8 active torsions:
REMARK  status: ('A' for Active; 'I' for Inactive)
REMARK    1  A    between atoms: N_1  and  C_2
REMARK    2  A    between atoms: C_2  and  C_3
REMARK    3  A    between atoms: C_10  and  C_11
REMARK    4  A    between atoms: C_11  and  C_12
REMARK    5  A    between atoms: C_15  and  C_16
REMARK    6  A    between atoms: C_16  and  N_17
REMARK    7  A    between atoms: N_20  and  C_21
REMARK    8  A    between atoms: C_21  and  C_22
REMARK                            x       y       z     vdW  Elec       q    Type
REMARK                         _______ _______ _______ _____ _____    ______ ____
ROOT
ATOM      1  C   UNL     1      49.130   5.160  18.872  0.00  0.00    +0.000 A 
ATOM      2  C   UNL     1      49.701   6.395  18.539  0.00  0.00    +0.000 A 
ATOM      3  N   UNL     1      49.631   7.013  17.333  0.00  0.00    +0.000 NA
ATOM      4  C   UNL     1      48.912   6.301  16.447  0.00  0.00    +0.000 A 
ATOM      5  C   UNL     1      48.313   5.066  16.625  0.00  0.00    +0.000 A 
ATOM      6  C   UNL     1      48.428   4.459  17.879  0.00  0.00    +0.000 A 
ATOM      7  N   UNL     1      47.692   4.663  15.474  0.00  0.00    +0.000 NA
ATOM      8  C   UNL     1      47.908   5.620  14.585  0.00  0.00    +0.000 A 
ATOM      9  N   UNL     1      48.604   6.664  15.166  0.00  0.00    +0.000 N 
ENDROOT
BRANCH   1  10
ATOM     10  C   UNL     1      49.251   4.618  20.266  0.00  0.00    +0.000 C 
BRANCH  10  11
ATOM     11  N   UNL     1      48.346   3.494  20.464  0.00  0.00    +0.000 NA
ATOM     12  H   UNL     1      48.864   2.621  20.366  0.00  0.00    +0.000 HD
ATOM     13  H   UNL     1      47.646   3.496  19.721  0.00  0.00    +0.000 HD
ENDBRANCH  10  11
ENDBRANCH   1  10
BRANCH   8  14
ATOM     14  C   UNL     1      47.488   5.598  13.141  0.00  0.00    +0.000 C 
BRANCH  14  15
ATOM     15  C   UNL     1      46.114   5.043  12.817  0.00  0.00    +0.000 C 
ATOM     16  C   UNL     1      45.899   3.729  12.610  0.00  0.00    +0.000 C 
ATOM     17  C   UNL     1      44.545   3.125  12.345  0.00  0.00    +0.000 C 
ATOM     18  C   UNL     1      43.416   4.147  12.099  0.00  0.00    +0.000 C 
ATOM     19  C   UNL     1      43.612   5.356  13.030  0.00  0.00    +0.000 C 
ATOM     20  C   UNL     1      44.968   6.032  12.807  0.00  0.00    +0.000 C 
BRANCH  18  21
ATOM     21  C   UNL     1      43.338   4.538  10.611  0.00  0.00    +0.000 C 
BRANCH  21  22
ATOM     22  N   UNL     1      43.699   3.420   9.739  0.00  0.00    +0.000 NA
ATOM     23  H   UNL     1      42.971   3.280   9.040  0.00  0.00    +0.000 HD
ATOM     24  H   UNL     1      43.743   2.564  10.290  0.00  0.00    +0.000 HD
ENDBRANCH  21  22
ENDBRANCH  18  21
ENDBRANCH  14  15
ENDBRANCH   8  14
BRANCH   9  25
ATOM     25  C   UNL     1      49.049   7.904  14.574  0.00  0.00    +0.000 C 
BRANCH  25  26
ATOM     26  C   UNL     1      48.051   9.047  14.669  0.00  0.00    +0.000 C 
ATOM     27  F   UNL     1      46.855   8.805  14.100  0.00  0.00    +0.000 F 
ATOM     28  F   UNL     1      47.837   9.397  15.960  0.00  0.00    +0.000 F 
ATOM     29  F   UNL     1      48.559  10.146  14.051  0.00  0.00    +0.000 F 
ENDBRANCH  25  26
ENDBRANCH   9  25
TORSDOF 8
ENDMDL
MODEL 7
REMARK VINA RESULT:    -5.397      3.392      5.912
REMARK INTER + INTRA:          -8.893
REMARK INTER:                  -8.545
REMARK INTRA:                  -0.347
REMARK UNBOUND:                -1.288
REMARK  Name = 
REMARK  8 active torsions:
REMARK  status: ('A' for Active; 'I' for Inactive)
REMARK    1  A    between atoms: N_1  and  C_2
REMARK    2  A    between atoms: C_2  and  C_3
REMARK    3  A    between atoms: C_10  and  C_11
REMARK    4  A    between atoms: C_11  and  C_12
REMARK    5  A    between atoms: C_15  and  C_16
REMARK    6  A    between atoms: C_16  and  N_17
REMARK    7  A    between atoms: N_20  and  C_21
REMARK    8  A    between atoms: C_21  and  C_22
REMARK                            x       y       z     vdW  Elec       q    Type
REMARK                         _______ _______ _______ _____ _____    ______ ____
ROOT
ATOM      1  C   UNL     1      45.022   8.943  11.906  0.00  0.00    +0.000 A 
ATOM      2  C   UNL     1      44.386   7.980  11.113  0.00  0.00    +0.000 A 
ATOM      3  N   UNL     1      44.509   6.633  11.231  0.00  0.00    +0.000 NA
ATOM      4  C   UNL     1      45.328   6.292  12.241  0.00  0.00    +0.000 A 
ATOM      5  C   UNL     1      46.038   7.127  13.086  0.00  0.00    +0.000 A 
ATOM      6  C   UNL     1      45.896   8.507  12.916  0.00  0.00    +0.000 A 
ATOM      7  N   UNL     1      46.781   6.394  13.972  0.00  0.00    +0.000 NA
ATOM      8  C   UNL     1      46.552   5.123  13.680  0.00  0.00    +0.000 A 
ATOM      9  N   UNL     1      45.623   5.026  12.662  0.00  0.00    +0.000 N 
ENDROOT
BRANCH   1  10
ATOM     10  C   UNL     1      44.756  10.403  11.689  0.00  0.00    +0.000 C 
BRANCH  10  11
ATOM     11  N   UNL     1      43.398  10.746  12.092  0.00  0.00    +0.000 NA
ATOM     12  H   UNL     1      43.326  11.757  12.208  0.00  0.00    +0.000 HD
ATOM     13  H   UNL     1      43.210  10.340  13.008  0.00  0.00    +0.000 HD
ENDBRANCH  10  11
ENDBRANCH   1  10
BRANCH   8  14
ATOM     14  C   UNL     1      47.207   3.934  14.330  0.00  0.00    +0.000 C 
BRANCH  14  15
ATOM     15  C   UNL     1      47.671   4.085  15.766  0.00  0.00    +0.000 C 
ATOM     16  C   UNL     1      47.229   3.280  16.753  0.00  0.00    +0.000 C 
ATOM     17  C   UNL     1      47.705   3.354  18.180  0.00  0.00    +0.000 C 
ATOM     18  C   UNL     1      48.587   4.575  18.508  0.00  0.00    +0.000 C 
ATOM     19  C   UNL     1      49.512   4.871  17.314  0.00  0.00    +0.000 C 
ATOM     20  C   UNL     1      48.717   5.146  16.034  0.00  0.00    +0.000 C 
BRANCH  18  21
ATOM     21  C   UNL     1      47.726   5.786  18.918  0.00  0.00    +0.000 C 
BRANCH  21  22
ATOM     22  N   UNL     1      46.301   5.454  18.933  0.00  0.00    +0.000 NA
ATOM     23  H   UNL     1      46.078   4.937  19.782  0.00  0.00    +0.000 HD
ATOM     24  H   UNL     1      46.091   4.836  18.151  0.00  0.00    +0.000 HD
ENDBRANCH  21  22
ENDBRANCH  18  21
ENDBRANCH  14  15
ENDBRANCH   8  14
BRANCH   9  25
ATOM     25  C   UNL     1      45.081   3.845  12.032  0.00  0.00    +0.000 C 
BRANCH  25  26
ATOM     26  C   UNL     1      43.665   3.490  12.460  0.00  0.00    +0.000 C 
ATOM     27  F   UNL     1      43.426   2.172  12.590  0.00  0.00    +0.000 F 
ATOM     28  F   UNL     1      43.348   4.091  13.631  0.00  0.00    +0.000 F 
ATOM     29  F   UNL     1      42.782   3.955  11.537  0.00  0.00    +0.000 F 
ENDBRANCH  25  26
ENDBRANCH   9  25
TORSDOF 8
ENDMDL
MODEL 8
REMARK VINA RESULT:    -5.386      5.371      8.278
REMARK INTER + INTRA:          -8.878
REMARK INTER:                  -7.996
REMARK INTRA:                  -0.882
REMARK UNBOUND:                -1.288
REMARK  Name = 
REMARK  8 active torsions:
REMARK  status: ('A' for Active; 'I' for Inactive)
REMARK    1  A    between atoms: N_1  and  C_2
REMARK    2  A    between atoms: C_2  and  C_3
REMARK    3  A    between atoms: C_10  and  C_11
REMARK    4  A    between atoms: C_11  and  C_12
REMARK    5  A    between atoms: C_15  and  C_16
REMARK    6  A    between atoms: C_16  and  N_17
REMARK    7  A    between atoms: N_20  and  C_21
REMARK    8  A    between atoms: C_21  and  C_22
REMARK                            x       y       z     vdW  Elec       q    Type
REMARK                         _______ _______ _______ _____ _____    ______ ____
ROOT
ATOM      1  C   UNL     1      52.054   2.191  17.826  0.00  0.00    +0.000 A 
ATOM      2  C   UNL     1      52.020   3.479  18.376  0.00  0.00    +0.000 A 
ATOM      3  N   UNL     1      51.008   4.376  18.260  0.00  0.00    +0.000 NA
ATOM      4  C   UNL     1      49.982   3.883  17.544  0.00  0.00    +0.000 A 
ATOM      5  C   UNL     1      49.885   2.648  16.926  0.00  0.00    +0.000 A 
ATOM      6  C   UNL     1      50.959   1.764  17.057  0.00  0.00    +0.000 A 
ATOM      7  N   UNL     1      48.688   2.532  16.272  0.00  0.00    +0.000 NA
ATOM      8  C   UNL     1      48.051   3.676  16.465  0.00  0.00    +0.000 A 
ATOM      9  N   UNL     1      48.792   4.503  17.287  0.00  0.00    +0.000 N 
ENDROOT
BRANCH   1  10
ATOM     10  C   UNL     1      53.225   1.288  18.077  0.00  0.00    +0.000 C 
BRANCH  10  11
ATOM     11  N   UNL     1      52.789  -0.095  18.226  0.00  0.00    +0.000 NA
ATOM     12  H   UNL     1      53.365  -0.556  18.931  0.00  0.00    +0.000 HD
ATOM     13  H   UNL     1      52.955  -0.592  17.351  0.00  0.00    +0.000 HD
ENDBRANCH  10  11
ENDBRANCH   1  10
BRANCH   8  14
ATOM     14  C   UNL     1      46.722   4.060  15.873  0.00  0.00    +0.000 C 
BRANCH  14  15
ATOM     15  C   UNL     1      46.731   4.850  14.578  0.00  0.00    +0.000 C 
ATOM     16  C   UNL     1      47.770   5.629  14.217  0.00  0.00    +0.000 C 
ATOM     17  C   UNL     1      47.849   6.383  12.917  0.00  0.00    +0.000 C 
ATOM     18  C   UNL     1      46.547   6.392  12.091  0.00  0.00    +0.000 C 
ATOM     19  C   UNL     1      45.861   5.020  12.208  0.00  0.00    +0.000 C 
ATOM     20  C   UNL     1      45.539   4.667  13.664  0.00  0.00    +0.000 C 
BRANCH  18  21
ATOM     21  C   UNL     1      45.634   7.560  12.510  0.00  0.00    +0.000 C 
BRANCH  21  22
ATOM     22  N   UNL     1      44.467   7.675  11.636  0.00  0.00    +0.000 NA
ATOM     23  H   UNL     1      44.114   6.747  11.410  0.00  0.00    +0.000 HD
ATOM     24  H   UNL     1      44.747   8.103  10.754  0.00  0.00    +0.000 HD
ENDBRANCH  21  22
ENDBRANCH  18  21
ENDBRANCH  14  15
ENDBRANCH   8  14
BRANCH   9  25
ATOM     25  C   UNL     1      48.485   5.833  17.758  0.00  0.00    +0.000 C 
BRANCH  25  26
ATOM     26  C   UNL     1      47.653   5.881  19.030  0.00  0.00    +0.000 C 
ATOM     27  F   UNL     1      48.043   5.026  19.994  0.00  0.00    +0.000 F 
ATOM     28  F   UNL     1      47.643   7.128  19.556  0.00  0.00    +0.000 F 
ATOM     29  F   UNL     1      46.361   5.575  18.739  0.00  0.00    +0.000 F 
ENDBRANCH  25  26
ENDBRANCH   9  25
TORSDOF 8
ENDMDL
MODEL 9
REMARK VINA RESULT:    -5.202      4.663      6.742
REMARK INTER + INTRA:          -8.619
REMARK INTER:                  -7.229
REMARK INTRA:                  -1.390
REMARK UNBOUND:                -1.288
REMARK  Name = 
REMARK  8 active torsions:
REMARK  status: ('A' for Active; 'I' for Inactive)
REMARK    1  A    between atoms: N_1  and  C_2
REMARK    2  A    between atoms: C_2  and  C_3
REMARK    3  A    between atoms: C_10  and  C_11
REMARK    4  A    between atoms: C_11  and  C_12
REMARK    5  A    between atoms: C_15  and  C_16
REMARK    6  A    between atoms: C_16  and  N_17
REMARK    7  A    between atoms: N_20  and  C_21
REMARK    8  A    between atoms: C_21  and  C_22
REMARK                            x       y       z     vdW  Elec       q    Type
REMARK                         _______ _______ _______ _____ _____    ______ ____
ROOT
ATOM      1  C   UNL     1      45.466   5.430  12.382  0.00  0.00    +0.000 A 
ATOM      2  C   UNL     1      45.509   4.160  12.970  0.00  0.00    +0.000 A 
ATOM      3  N   UNL     1      46.318   3.774  13.989  0.00  0.00    +0.000 NA
ATOM      4  C   UNL     1      47.103   4.781  14.414  0.00  0.00    +0.000 A 
ATOM      5  C   UNL     1      47.185   6.070  13.918  0.00  0.00    +0.000 A 
ATOM      6  C   UNL     1      46.346   6.417  12.855  0.00  0.00    +0.000 A 
ATOM      7  N   UNL     1      48.123   6.791  14.606  0.00  0.00    +0.000 NA
ATOM      8  C   UNL     1      48.631   5.965  15.508  0.00  0.00    +0.000 A 
ATOM      9  N   UNL     1      47.988   4.744  15.455  0.00  0.00    +0.000 N 
ENDROOT
BRANCH   1  10
ATOM     10  C   UNL     1      44.484   5.728  11.287  0.00  0.00    +0.000 C 
BRANCH  10  11
ATOM     11  N   UNL     1      44.240   7.161  11.186  0.00  0.00    +0.000 NA
ATOM     12  H   UNL     1      44.171   7.423  10.203  0.00  0.00    +0.000 HD
ATOM     13  H   UNL     1      45.046   7.662  11.560  0.00  0.00    +0.000 HD
ENDBRANCH  10  11
ENDBRANCH   1  10
BRANCH   8  14
ATOM     14  C   UNL     1      49.758   6.275  16.456  0.00  0.00    +0.000 C 
BRANCH  14  15
ATOM     15  C   UNL     1      49.398   6.608  17.891  0.00  0.00    +0.000 C 
ATOM     16  C   UNL     1      50.099   6.128  18.938  0.00  0.00    +0.000 C 
ATOM     17  C   UNL     1      49.816   6.477  20.375  0.00  0.00    +0.000 C 
ATOM     18  C   UNL     1      48.509   7.263  20.608  0.00  0.00    +0.000 C 
ATOM     19  C   UNL     1      48.308   8.267  19.459  0.00  0.00    +0.000 C 
ATOM     20  C   UNL     1      48.248   7.569  18.097  0.00  0.00    +0.000 C 
BRANCH  18  21
ATOM     21  C   UNL     1      47.314   6.306  20.788  0.00  0.00    +0.000 C 
BRANCH  21  22
ATOM     22  N   UNL     1      47.752   4.955  21.139  0.00  0.00    +0.000 NA
ATOM     23  H   UNL     1      48.424   4.999  21.902  0.00  0.00    +0.000 HD
ATOM     24  H   UNL     1      48.239   4.542  20.344  0.00  0.00    +0.000 HD
ENDBRANCH  21  22
ENDBRANCH  18  21
ENDBRANCH  14  15
ENDBRANCH   8  14
BRANCH   9  25
ATOM     25  C   UNL     1      48.212   3.559  16.250  0.00  0.00    +0.000 C 
BRANCH  25  26
ATOM     26  C   UNL     1      47.513   3.558  17.600  0.00  0.00    +0.000 C 
ATOM     27  F   UNL     1      48.333   3.476  18.663  0.00  0.00    +0.000 F 
ATOM     28  F   UNL     1      46.743   4.662  17.748  0.00  0.00    +0.000 F 
ATOM     29  F   UNL     1      46.673   2.491  17.675  0.00  0.00    +0.000 F 
ENDBRANCH  25  26
ENDBRANCH   9  25
TORSDOF 8
ENDMDL
