MODEL 1
REMARK VINA RESULT:    -8.629      0.000      0.000
REMARK INTER + INTRA:         -12.853
REMARK INTER:                 -11.655
REMARK INTRA:                  -1.198
REMARK UNBOUND:                -1.198
REMARK  Name = 
REMARK  7 active torsions:
REMARK  status: ('A' for Active; 'I' for Inactive)
REMARK    1  A    between atoms: C_1  and  C_2
REMARK    2  A    between atoms: C_4  and  C_5
REMARK    3  A    between atoms: C_5  and  N_6
REMARK    4  A    between atoms: C_7  and  C_9
REMARK    5  A    between atoms: C_21  and  C_22
REMARK    6  A    between atoms: C_22  and  N_23
REMARK    7  A    between atoms: C_24  and  C_26
REMARK                            x       y       z     vdW  Elec       q    Type
REMARK                         _______ _______ _______ _____ _____    ______ ____
ROOT
ATOM      1  C   UNL     1      43.007   5.129  12.633  0.00  0.00    +0.000 C 
ATOM      2  C   UNL     1      44.278   5.705  12.072  0.00  0.00    +0.000 A 
ATOM      3  C   UNL     1      44.999   6.610  12.880  0.00  0.00    +0.000 A 
ATOM      4  C   UNL     1      46.216   7.167  12.466  0.00  0.00    +0.000 A 
ATOM      5  C   UNL     1      46.690   6.844  11.192  0.00  0.00    +0.000 A 
ATOM      6  C   UNL     1      45.979   5.959  10.371  0.00  0.00    +0.000 A 
ATOM      7  C   UNL     1      44.777   5.360  10.798  0.00  0.00    +0.000 A 
ENDROOT
BRANCH   4   8
ATOM      8  C   UNL     1      46.964   8.111  13.375  0.00  0.00    +0.000 C 
BRANCH   8   9
ATOM      9  N   UNL     1      47.436   7.436  14.559  0.00  0.00    +0.000 N 
ATOM     10  C   UNL     1      48.679   6.862  14.611  0.00  0.00    +0.000 C 
ATOM     11  O   UNL     1      49.468   6.919  13.672  0.00  0.00    +0.000 OA
ATOM     12  H   UNL     1      46.732   7.158  15.236  0.00  0.00    +0.000 HD
BRANCH  10  13
ATOM     13  C   UNL     1      49.050   6.222  15.884  0.00  0.00    +0.000 A 
ATOM     14  C   UNL     1      50.118   6.714  16.619  0.00  0.00    +0.000 A 
ATOM     15  S   UNL     1      50.378   5.891  18.091  0.00  0.00    +0.000 S 
ATOM     16  C   UNL     1      49.108   4.806  17.768  0.00  0.00    +0.000 A 
ATOM     17  N   UNL     1      48.811   3.802  18.637  0.00  0.00    +0.000 NA
ATOM     18  C   UNL     1      47.840   3.036  18.253  0.00  0.00    +0.000 A 
ATOM     19  N   UNL     1      47.141   3.189  17.084  0.00  0.00    +0.000 N 
ATOM     20  C   UNL     1      47.388   4.205  16.194  0.00  0.00    +0.000 A 
ATOM     21  O   UNL     1      46.711   4.338  15.179  0.00  0.00    +0.000 OA
ATOM     22  C   UNL     1      48.477   5.086  16.569  0.00  0.00    +0.000 A 
ATOM     23  H   UNL     1      46.388   2.561  16.845  0.00  0.00    +0.000 HD
ENDBRANCH  10  13
ENDBRANCH   8   9
ENDBRANCH   4   8
BRANCH   7  24
ATOM     24  C   UNL     1      44.085   4.386   9.865  0.00  0.00    +0.000 C 
BRANCH  24  25
ATOM     25  N   UNL     1      44.941   3.962   8.786  0.00  0.00    +0.000 N 
ATOM     26  C   UNL     1      45.298   2.643   8.591  0.00  0.00    +0.000 C 
ATOM     27  O   UNL     1      44.888   1.728   9.303  0.00  0.00    +0.000 OA
ATOM     28  H   UNL     1      45.277   4.639   8.114  0.00  0.00    +0.000 HD
BRANCH  26  29
ATOM     29  C   UNL     1      46.209   2.450   7.472  0.00  0.00    +0.000 A 
ATOM     30  C   UNL     1      47.246   1.559   7.254  0.00  0.00    +0.000 A 
ATOM     31  C   UNL     1      47.794   1.862   5.982  0.00  0.00    +0.000 A 
ATOM     32  C   UNL     1      47.065   2.920   5.497  0.00  0.00    +0.000 A 
ATOM     33  O   UNL     1      46.096   3.277   6.379  0.00  0.00    +0.000 OA
ENDBRANCH  26  29
ENDBRANCH  24  25
ENDBRANCH   7  24
TORSDOF 6
ENDMDL
MODEL 2
REMARK VINA RESULT:    -7.962      1.974      2.494
REMARK INTER + INTRA:         -11.954
REMARK INTER:                 -10.980
REMARK INTRA:                  -0.974
REMARK UNBOUND:                -1.198
REMARK  Name = 
REMARK  7 active torsions:
REMARK  status: ('A' for Active; 'I' for Inactive)
REMARK    1  A    between atoms: C_1  and  C_2
REMARK    2  A    between atoms: C_4  and  C_5
REMARK    3  A    between atoms: C_5  and  N_6
REMARK    4  A    between atoms: C_7  and  C_9
REMARK    5  A    between atoms: C_21  and  C_22
REMARK    6  A    between atoms: C_22  and  N_23
REMARK    7  A    between atoms: C_24  and  C_26
REMARK                            x       y       z     vdW  Elec       q    Type
REMARK                         _______ _______ _______ _____ _____    ______ ____
ROOT
ATOM      1  C   UNL     1      46.278   3.756  13.354  0.00  0.00    +0.000 C 
ATOM      2  C   UNL     1      45.648   4.961  12.711  0.00  0.00    +0.000 A 
ATOM      3  C   UNL     1      46.125   6.232  13.094  0.00  0.00    +0.000 A 
ATOM      4  C   UNL     1      45.634   7.412  12.521  0.00  0.00    +0.000 A 
ATOM      5  C   UNL     1      44.607   7.312  11.580  0.00  0.00    +0.000 A 
ATOM      6  C   UNL     1      44.111   6.057  11.198  0.00  0.00    +0.000 A 
ATOM      7  C   UNL     1      44.631   4.864  11.738  0.00  0.00    +0.000 A 
ENDROOT
BRANCH   4   8
ATOM      8  C   UNL     1      46.192   8.748  12.946  0.00  0.00    +0.000 C 
BRANCH   8   9
ATOM      9  N   UNL     1      46.814   8.669  14.244  0.00  0.00    +0.000 N 
ATOM     10  C   UNL     1      48.109   9.068  14.447  0.00  0.00    +0.000 C 
ATOM     11  O   UNL     1      48.797   9.544  13.548  0.00  0.00    +0.000 OA
ATOM     12  H   UNL     1      46.369   8.061  14.925  0.00  0.00    +0.000 HD
BRANCH  10  13
ATOM     13  C   UNL     1      48.619   8.957  15.823  0.00  0.00    +0.000 A 
ATOM     14  C   UNL     1      48.816  10.101  16.582  0.00  0.00    +0.000 A 
ATOM     15  S   UNL     1      49.361   9.789  18.169  0.00  0.00    +0.000 S 
ATOM     16  C   UNL     1      49.410   8.113  17.878  0.00  0.00    +0.000 A 
ATOM     17  N   UNL     1      49.830   7.251  18.842  0.00  0.00    +0.000 NA
ATOM     18  C   UNL     1      49.843   6.009  18.476  0.00  0.00    +0.000 A 
ATOM     19  N   UNL     1      49.470   5.557  17.237  0.00  0.00    +0.000 N 
ATOM     20  C   UNL     1      49.013   6.389  16.245  0.00  0.00    +0.000 A 
ATOM     21  O   UNL     1      48.644   5.943  15.164  0.00  0.00    +0.000 OA
ATOM     22  C   UNL     1      48.991   7.795  16.599  0.00  0.00    +0.000 A 
ATOM     23  H   UNL     1      49.497   4.572  17.015  0.00  0.00    +0.000 HD
ENDBRANCH  10  13
ENDBRANCH   8   9
ENDBRANCH   4   8
BRANCH   7  24
ATOM     24  C   UNL     1      44.066   3.544  11.248  0.00  0.00    +0.000 C 
BRANCH  24  25
ATOM     25  N   UNL     1      44.957   2.875  10.335  0.00  0.00    +0.000 N 
ATOM     26  C   UNL     1      44.954   3.120   8.976  0.00  0.00    +0.000 C 
ATOM     27  O   UNL     1      44.214   3.948   8.448  0.00  0.00    +0.000 OA
ATOM     28  H   UNL     1      45.642   2.221  10.688  0.00  0.00    +0.000 HD
BRANCH  26  29
ATOM     29  C   UNL     1      45.902   2.297   8.238  0.00  0.00    +0.000 A 
ATOM     30  C   UNL     1      46.880   2.605   7.308  0.00  0.00    +0.000 A 
ATOM     31  C   UNL     1      47.477   1.381   6.912  0.00  0.00    +0.000 A 
ATOM     32  C   UNL     1      46.829   0.397   7.619  0.00  0.00    +0.000 A 
ATOM     33  O   UNL     1      45.885   0.936   8.433  0.00  0.00    +0.000 OA
ENDBRANCH  26  29
ENDBRANCH  24  25
ENDBRANCH   7  24
TORSDOF 6
ENDMDL
MODEL 3
REMARK VINA RESULT:    -7.739      2.167      2.554
REMARK INTER + INTRA:         -11.652
REMARK INTER:                 -10.546
REMARK INTRA:                  -1.105
REMARK UNBOUND:                -1.198
REMARK  Name = 
REMARK  7 active torsions:
REMARK  status: ('A' for Active; 'I' for Inactive)
REMARK    1  A    between atoms: C_1  and  C_2
REMARK    2  A    between atoms: C_4  and  C_5
REMARK    3  A    between atoms: C_5  and  N_6
REMARK    4  A    between atoms: C_7  and  C_9
REMARK    5  A    between atoms: C_21  and  C_22
REMARK    6  A    between atoms: C_22  and  N_23
REMARK    7  A    between atoms: C_24  and  C_26
REMARK                            x       y       z     vdW  Elec       q    Type
REMARK                         _______ _______ _______ _____ _____    ______ ____
ROOT
ATOM      1  C   UNL     1      45.651   3.496  12.737  0.00  0.00    +0.000 C 
ATOM      2  C   UNL     1      45.907   4.942  12.412  0.00  0.00    +0.000 A 
ATOM      3  C   UNL     1      46.754   5.668  13.277  0.00  0.00    +0.000 A 
ATOM      4  C   UNL     1      47.089   7.006  13.036  0.00  0.00    +0.000 A 
ATOM      5  C   UNL     1      46.520   7.640  11.930  0.00  0.00    +0.000 A 
ATOM      6  C   UNL     1      45.665   6.939  11.068  0.00  0.00    +0.000 A 
ATOM      7  C   UNL     1      45.359   5.580  11.279  0.00  0.00    +0.000 A 
ENDROOT
BRANCH   4   8
ATOM      8  C   UNL     1      48.018   7.734  13.976  0.00  0.00    +0.000 C 
BRANCH   8   9
ATOM      9  N   UNL     1      47.959   7.180  15.307  0.00  0.00    +0.000 N 
ATOM     10  C   UNL     1      49.062   6.629  15.905  0.00  0.00    +0.000 C 
ATOM     11  O   UNL     1      50.162   6.607  15.359  0.00  0.00    +0.000 OA
ATOM     12  H   UNL     1      47.036   6.959  15.667  0.00  0.00    +0.000 HD
BRANCH  10  13
ATOM     13  C   UNL     1      48.876   6.117  17.272  0.00  0.00    +0.000 A 
ATOM     14  C   UNL     1      49.183   4.796  17.564  0.00  0.00    +0.000 A 
ATOM     15  S   UNL     1      48.959   4.383  19.204  0.00  0.00    +0.000 S 
ATOM     16  C   UNL     1      48.385   5.942  19.571  0.00  0.00    +0.000 A 
ATOM     17  N   UNL     1      47.981   6.256  20.832  0.00  0.00    +0.000 NA
ATOM     18  C   UNL     1      47.542   7.467  20.964  0.00  0.00    +0.000 A 
ATOM     19  N   UNL     1      47.477   8.388  19.950  0.00  0.00    +0.000 N 
ATOM     20  C   UNL     1      47.901   8.122  18.672  0.00  0.00    +0.000 A 
ATOM     21  O   UNL     1      47.871   8.986  17.801  0.00  0.00    +0.000 OA
ATOM     22  C   UNL     1      48.391   6.773  18.466  0.00  0.00    +0.000 A 
ATOM     23  H   UNL     1      47.131   9.321  20.119  0.00  0.00    +0.000 HD
ENDBRANCH  10  13
ENDBRANCH   8   9
ENDBRANCH   4   8
BRANCH   7  24
ATOM     24  C   UNL     1      44.455   4.880  10.283  0.00  0.00    +0.000 C 
BRANCH  24  25
ATOM     25  N   UNL     1      45.191   4.316   9.181  0.00  0.00    +0.000 N 
ATOM     26  C   UNL     1      45.241   2.959   8.933  0.00  0.00    +0.000 C 
ATOM     27  O   UNL     1      44.635   2.133   9.614  0.00  0.00    +0.000 OA
ATOM     28  H   UNL     1      45.671   4.925   8.531  0.00  0.00    +0.000 HD
BRANCH  26  29
ATOM     29  C   UNL     1      46.083   2.608   7.798  0.00  0.00    +0.000 A 
ATOM     30  C   UNL     1      46.402   3.278   6.630  0.00  0.00    +0.000 A 
ATOM     31  C   UNL     1      47.255   2.426   5.882  0.00  0.00    +0.000 A 
ATOM     32  C   UNL     1      47.404   1.285   6.633  0.00  0.00    +0.000 A 
ATOM     33  O   UNL     1      46.714   1.386   7.798  0.00  0.00    +0.000 OA
ENDBRANCH  26  29
ENDBRANCH  24  25
ENDBRANCH   7  24
TORSDOF 6
ENDMDL
MODEL 4
REMARK VINA RESULT:    -7.530      3.708      5.028
REMARK INTER + INTRA:         -11.370
REMARK INTER:                 -10.401
REMARK INTRA:                  -0.968
REMARK UNBOUND:                -1.198
REMARK  Name = 
REMARK  7 active torsions:
REMARK  status: ('A' for Active; 'I' for Inactive)
REMARK    1  A    between atoms: C_1  and  C_2
REMARK    2  A    between atoms: C_4  and  C_5
REMARK    3  A    between atoms: C_5  and  N_6
REMARK    4  A    between atoms: C_7  and  C_9
REMARK    5  A    between atoms: C_21  and  C_22
REMARK    6  A    between atoms: C_22  and  N_23
REMARK    7  A    between atoms: C_24  and  C_26
REMARK                            x       y       z     vdW  Elec       q    Type
REMARK                         _______ _______ _______ _____ _____    ______ ____
ROOT
ATOM      1  C   UNL     1      46.678   3.962  13.454  0.00  0.00    +0.000 C 
ATOM      2  C   UNL     1      45.827   5.015  12.798  0.00  0.00    +0.000 A 
ATOM      3  C   UNL     1      46.139   6.366  13.059  0.00  0.00    +0.000 A 
ATOM      4  C   UNL     1      45.435   7.418  12.462  0.00  0.00    +0.000 A 
ATOM      5  C   UNL     1      44.362   7.104  11.624  0.00  0.00    +0.000 A 
ATOM      6  C   UNL     1      44.029   5.767  11.365  0.00  0.00    +0.000 A 
ATOM      7  C   UNL     1      44.761   4.703  11.927  0.00  0.00    +0.000 A 
ENDROOT
BRANCH   4   8
ATOM      8  C   UNL     1      45.821   8.848  12.752  0.00  0.00    +0.000 C 
BRANCH   8   9
ATOM      9  N   UNL     1      47.058   9.200  12.100  0.00  0.00    +0.000 N 
ATOM     10  C   UNL     1      48.110   9.738  12.795  0.00  0.00    +0.000 C 
ATOM     11  O   UNL     1      48.070   9.917  14.009  0.00  0.00    +0.000 OA
ATOM     12  H   UNL     1      47.027   9.300  11.090  0.00  0.00    +0.000 HD
BRANCH  10  13
ATOM     13  C   UNL     1      49.324  10.034  12.017  0.00  0.00    +0.000 A 
ATOM     14  C   UNL     1      49.638  11.347  11.700  0.00  0.00    +0.000 A 
ATOM     15  S   UNL     1      51.103  11.516  10.842  0.00  0.00    +0.000 S 
ATOM     16  C   UNL     1      51.339   9.831  10.810  0.00  0.00    +0.000 A 
ATOM     17  N   UNL     1      52.419   9.290  10.185  0.00  0.00    +0.000 NA
ATOM     18  C   UNL     1      52.459   7.997  10.214  0.00  0.00    +0.000 A 
ATOM     19  N   UNL     1      51.518   7.201  10.817  0.00  0.00    +0.000 N 
ATOM     20  C   UNL     1      50.430   7.706  11.484  0.00  0.00    +0.000 A 
ATOM     21  O   UNL     1      49.634   6.964  12.051  0.00  0.00    +0.000 OA
ATOM     22  C   UNL     1      50.330   9.153  11.469  0.00  0.00    +0.000 A 
ATOM     23  H   UNL     1      51.610   6.196  10.811  0.00  0.00    +0.000 HD
ENDBRANCH  10  13
ENDBRANCH   8   9
ENDBRANCH   4   8
BRANCH   7  24
ATOM     24  C   UNL     1      44.360   3.284  11.572  0.00  0.00    +0.000 C 
BRANCH  24  25
ATOM     25  N   UNL     1      45.192   2.726  10.536  0.00  0.00    +0.000 N 
ATOM     26  C   UNL     1      44.990   2.988   9.195  0.00  0.00    +0.000 C 
ATOM     27  O   UNL     1      44.107   3.740   8.787  0.00  0.00    +0.000 OA
ATOM     28  H   UNL     1      45.981   2.144  10.782  0.00  0.00    +0.000 HD
BRANCH  26  29
ATOM     29  C   UNL     1      45.916   2.281   8.322  0.00  0.00    +0.000 A 
ATOM     30  C   UNL     1      46.766   2.712   7.317  0.00  0.00    +0.000 A 
ATOM     31  C   UNL     1      47.410   1.561   6.796  0.00  0.00    +0.000 A 
ATOM     32  C   UNL     1      46.916   0.495   7.508  0.00  0.00    +0.000 A 
ATOM     33  O   UNL     1      46.024   0.915   8.441  0.00  0.00    +0.000 OA
ENDBRANCH  26  29
ENDBRANCH  24  25
ENDBRANCH   7  24
TORSDOF 6
ENDMDL
MODEL 5
REMARK VINA RESULT:    -7.312      2.599      3.411
REMARK INTER + INTRA:         -11.074
REMARK INTER:                 -10.522
REMARK INTRA:                  -0.553
REMARK UNBOUND:                -1.198
REMARK  Name = 
REMARK  7 active torsions:
REMARK  status: ('A' for Active; 'I' for Inactive)
REMARK    1  A    between atoms: C_1  and  C_2
REMARK    2  A    between atoms: C_4  and  C_5
REMARK    3  A    between atoms: C_5  and  N_6
REMARK    4  A    between atoms: C_7  and  C_9
REMARK    5  A    between atoms: C_21  and  C_22
REMARK    6  A    between atoms: C_22  and  N_23
REMARK    7  A    between atoms: C_24  and  C_26
REMARK                            x       y       z     vdW  Elec       q    Type
REMARK                         _______ _______ _______ _____ _____    ______ ____
ROOT
ATOM      1  C   UNL     1      46.164   6.552  11.554  0.00  0.00    +0.000 C 
ATOM      2  C   UNL     1      46.611   5.903  12.836  0.00  0.00    +0.000 A 
ATOM      3  C   UNL     1      47.527   6.611  13.643  0.00  0.00    +0.000 A 
ATOM      4  C   UNL     1      47.969   6.112  14.875  0.00  0.00    +0.000 A 
ATOM      5  C   UNL     1      47.518   4.853  15.278  0.00  0.00    +0.000 A 
ATOM      6  C   UNL     1      46.619   4.130  14.481  0.00  0.00    +0.000 A 
ATOM      7  C   UNL     1      46.136   4.645  13.262  0.00  0.00    +0.000 A 
ENDROOT
BRANCH   4   8
ATOM      8  C   UNL     1      48.930   6.916  15.716  0.00  0.00    +0.000 C 
BRANCH   8   9
ATOM      9  N   UNL     1      50.008   6.096  16.210  0.00  0.00    +0.000 N 
ATOM     10  C   UNL     1      50.017   5.618  17.495  0.00  0.00    +0.000 C 
ATOM     11  O   UNL     1      49.098   5.834  18.281  0.00  0.00    +0.000 OA
ATOM     12  H   UNL     1      50.874   6.116  15.682  0.00  0.00    +0.000 HD
BRANCH  10  13
ATOM     13  C   UNL     1      51.163   4.775  17.871  0.00  0.00    +0.000 A 
ATOM     14  C   UNL     1      52.288   5.352  18.441  0.00  0.00    +0.000 A 
ATOM     15  S   UNL     1      53.499   4.227  18.862  0.00  0.00    +0.000 S 
ATOM     16  C   UNL     1      52.586   2.933  18.241  0.00  0.00    +0.000 A 
ATOM     17  N   UNL     1      53.073   1.662  18.263  0.00  0.00    +0.000 NA
ATOM     18  C   UNL     1      52.286   0.781  17.733  0.00  0.00    +0.000 A 
ATOM     19  N   UNL     1      51.057   1.059  17.192  0.00  0.00    +0.000 N 
ATOM     20  C   UNL     1      50.515   2.320  17.176  0.00  0.00    +0.000 A 
ATOM     21  O   UNL     1      49.393   2.523  16.725  0.00  0.00    +0.000 OA
ATOM     22  C   UNL     1      51.364   3.349  17.746  0.00  0.00    +0.000 A 
ATOM     23  H   UNL     1      50.486   0.324  16.800  0.00  0.00    +0.000 HD
ENDBRANCH  10  13
ENDBRANCH   8   9
ENDBRANCH   4   8
BRANCH   7  24
ATOM     24  C   UNL     1      45.139   3.818  12.474  0.00  0.00    +0.000 C 
BRANCH  24  25
ATOM     25  N   UNL     1      45.617   3.504  11.151  0.00  0.00    +0.000 N 
ATOM     26  C   UNL     1      44.775   3.129  10.123  0.00  0.00    +0.000 C 
ATOM     27  O   UNL     1      43.553   3.066  10.249  0.00  0.00    +0.000 OA
ATOM     28  H   UNL     1      46.602   3.587  10.938  0.00  0.00    +0.000 HD
BRANCH  26  29
ATOM     29  C   UNL     1      45.476   2.810   8.887  0.00  0.00    +0.000 A 
ATOM     30  C   UNL     1      45.715   3.539   7.734  0.00  0.00    +0.000 A 
ATOM     31  C   UNL     1      46.436   2.695   6.852  0.00  0.00    +0.000 A 
ATOM     32  C   UNL     1      46.594   1.501   7.513  0.00  0.00    +0.000 A 
ATOM     33  O   UNL     1      46.032   1.560   8.747  0.00  0.00    +0.000 OA
ENDBRANCH  26  29
ENDBRANCH  24  25
ENDBRANCH   7  24
TORSDOF 6
ENDMDL
MODEL 6
REMARK VINA RESULT:    -7.127      3.785      8.328
REMARK INTER + INTRA:         -10.825
REMARK INTER:                  -9.690
REMARK INTRA:                  -1.135
REMARK UNBOUND:                -1.198
REMARK  Name = 
REMARK  7 active torsions:
REMARK  status: ('A' for Active; 'I' for Inactive)
REMARK    1  A    between atoms: C_1  and  C_2
REMARK    2  A    between atoms: C_4  and  C_5
REMARK    3  A    between atoms: C_5  and  N_6
REMARK    4  A    between atoms: C_7  and  C_9
REMARK    5  A    between atoms: C_21  and  C_22
REMARK    6  A    between atoms: C_22  and  N_23
REMARK    7  A    between atoms: C_24  and  C_26
REMARK                            x       y       z     vdW  Elec       q    Type
REMARK                         _______ _______ _______ _____ _____    ______ ____
ROOT
ATOM      1  C   UNL     1      47.358   3.321  17.191  0.00  0.00    +0.000 C 
ATOM      2  C   UNL     1      48.320   4.442  16.906  0.00  0.00    +0.000 A 
ATOM      3  C   UNL     1      47.942   5.400  15.941  0.00  0.00    +0.000 A 
ATOM      4  C   UNL     1      48.748   6.504  15.638  0.00  0.00    +0.000 A 
ATOM      5  C   UNL     1      49.982   6.619  16.282  0.00  0.00    +0.000 A 
ATOM      6  C   UNL     1      50.380   5.668  17.233  0.00  0.00    +0.000 A 
ATOM      7  C   UNL     1      49.554   4.579  17.576  0.00  0.00    +0.000 A 
ENDROOT
BRANCH   4   8
ATOM      8  C   UNL     1      48.290   7.516  14.616  0.00  0.00    +0.000 C 
BRANCH   8   9
ATOM      9  N   UNL     1      47.056   7.110  13.991  0.00  0.00    +0.000 N 
ATOM     10  C   UNL     1      47.033   6.558  12.736  0.00  0.00    +0.000 C 
ATOM     11  O   UNL     1      48.058   6.350  12.092  0.00  0.00    +0.000 OA
ATOM     12  H   UNL     1      46.200   7.494  14.380  0.00  0.00    +0.000 HD
BRANCH  10  13
ATOM     13  C   UNL     1      45.712   6.166  12.219  0.00  0.00    +0.000 A 
ATOM     14  C   UNL     1      44.874   7.123  11.666  0.00  0.00    +0.000 A 
ATOM     15  S   UNL     1      43.407   6.490  11.069  0.00  0.00    +0.000 S 
ATOM     16  C   UNL     1      43.814   4.921  11.584  0.00  0.00    +0.000 A 
ATOM     17  N   UNL     1      42.954   3.882  11.401  0.00  0.00    +0.000 NA
ATOM     18  C   UNL     1      43.379   2.751  11.865  0.00  0.00    +0.000 A 
ATOM     19  N   UNL     1      44.586   2.568  12.489  0.00  0.00    +0.000 N 
ATOM     20  C   UNL     1      45.496   3.581  12.668  0.00  0.00    +0.000 A 
ATOM     21  O   UNL     1      46.586   3.370  13.189  0.00  0.00    +0.000 OA
ATOM     22  C   UNL     1      45.062   4.875  12.177  0.00  0.00    +0.000 A 
ATOM     23  H   UNL     1      44.864   1.657  12.823  0.00  0.00    +0.000 HD
ENDBRANCH  10  13
ENDBRANCH   8   9
ENDBRANCH   4   8
BRANCH   7  24
ATOM     24  C   UNL     1      50.040   3.612  18.639  0.00  0.00    +0.000 C 
BRANCH  24  25
ATOM     25  N   UNL     1      51.342   3.075  18.333  0.00  0.00    +0.000 N 
ATOM     26  C   UNL     1      51.522   1.972  17.523  0.00  0.00    +0.000 C 
ATOM     27  O   UNL     1      50.589   1.384  16.977  0.00  0.00    +0.000 OA
ATOM     28  H   UNL     1      52.171   3.530  18.690  0.00  0.00    +0.000 HD
BRANCH  26  29
ATOM     29  C   UNL     1      52.916   1.573  17.391  0.00  0.00    +0.000 A 
ATOM     30  C   UNL     1      54.105   2.255  17.582  0.00  0.00    +0.000 A 
ATOM     31  C   UNL     1      55.155   1.353  17.276  0.00  0.00    +0.000 A 
ATOM     32  C   UNL     1      54.550   0.174  16.913  0.00  0.00    +0.000 A 
ATOM     33  O   UNL     1      53.199   0.288  16.991  0.00  0.00    +0.000 OA
ENDBRANCH  26  29
ENDBRANCH  24  25
ENDBRANCH   7  24
TORSDOF 6
ENDMDL
MODEL 7
REMARK VINA RESULT:    -7.102      2.655      3.156
REMARK INTER + INTRA:         -10.792
REMARK INTER:                  -9.757
REMARK INTRA:                  -1.035
REMARK UNBOUND:                -1.198
REMARK  Name = 
REMARK  7 active torsions:
REMARK  status: ('A' for Active; 'I' for Inactive)
REMARK    1  A    between atoms: C_1  and  C_2
REMARK    2  A    between atoms: C_4  and  C_5
REMARK    3  A    between atoms: C_5  and  N_6
REMARK    4  A    between atoms: C_7  and  C_9
REMARK    5  A    between atoms: C_21  and  C_22
REMARK    6  A    between atoms: C_22  and  N_23
REMARK    7  A    between atoms: C_24  and  C_26
REMARK                            x       y       z     vdW  Elec       q    Type
REMARK                         _______ _______ _______ _____ _____    ______ ____
ROOT
ATOM      1  C   UNL     1      43.467   4.384  12.636  0.00  0.00    +0.000 C 
ATOM      2  C   UNL     1      44.877   4.876  12.808  0.00  0.00    +0.000 A 
ATOM      3  C   UNL     1      45.526   4.591  14.029  0.00  0.00    +0.000 A 
ATOM      4  C   UNL     1      46.853   4.967  14.269  0.00  0.00    +0.000 A 
ATOM      5  C   UNL     1      47.524   5.689  13.279  0.00  0.00    +0.000 A 
ATOM      6  C   UNL     1      46.891   5.994  12.067  0.00  0.00    +0.000 A 
ATOM      7  C   UNL     1      45.570   5.580  11.800  0.00  0.00    +0.000 A 
ENDROOT
BRANCH   4   8
ATOM      8  C   UNL     1      47.512   4.619  15.581  0.00  0.00    +0.000 C 
BRANCH   8   9
ATOM      9  N   UNL     1      47.877   5.804  16.316  0.00  0.00    +0.000 N 
ATOM     10  C   UNL     1      49.142   5.980  16.816  0.00  0.00    +0.000 C 
ATOM     11  O   UNL     1      50.037   5.158  16.637  0.00  0.00    +0.000 OA
ATOM     12  H   UNL     1      47.115   6.362  16.688  0.00  0.00    +0.000 HD
BRANCH  10  13
ATOM     13  C   UNL     1      49.393   7.242  17.529  0.00  0.00    +0.000 A 
ATOM     14  C   UNL     1      50.359   8.120  17.061  0.00  0.00    +0.000 A 
ATOM     15  S   UNL     1      50.484   9.556  17.974  0.00  0.00    +0.000 S 
ATOM     16  C   UNL     1      49.291   9.028  19.065  0.00  0.00    +0.000 A 
ATOM     17  N   UNL     1      48.933   9.794  20.131  0.00  0.00    +0.000 NA
ATOM     18  C   UNL     1      48.033   9.259  20.893  0.00  0.00    +0.000 A 
ATOM     19  N   UNL     1      47.460   8.032  20.680  0.00  0.00    +0.000 N 
ATOM     20  C   UNL     1      47.770   7.240  19.601  0.00  0.00    +0.000 A 
ATOM     21  O   UNL     1      47.203   6.168  19.418  0.00  0.00    +0.000 OA
ATOM     22  C   UNL     1      48.784   7.788  18.722  0.00  0.00    +0.000 A 
ATOM     23  H   UNL     1      46.757   7.672  21.309  0.00  0.00    +0.000 HD
ENDBRANCH  10  13
ENDBRANCH   8   9
ENDBRANCH   4   8
BRANCH   7  24
ATOM     24  C   UNL     1      44.966   5.917  10.451  0.00  0.00    +0.000 C 
BRANCH  24  25
ATOM     25  N   UNL     1      45.550   5.145   9.384  0.00  0.00    +0.000 N 
ATOM     26  C   UNL     1      45.087   3.895   9.027  0.00  0.00    +0.000 C 
ATOM     27  O   UNL     1      44.122   3.360   9.571  0.00  0.00    +0.000 OA
ATOM     28  H   UNL     1      46.311   5.532   8.840  0.00  0.00    +0.000 HD
BRANCH  26  29
ATOM     29  C   UNL     1      45.856   3.276   7.956  0.00  0.00    +0.000 A 
ATOM     30  C   UNL     1      46.375   2.003   7.795  0.00  0.00    +0.000 A 
ATOM     31  C   UNL     1      47.057   1.988   6.552  0.00  0.00    +0.000 A 
ATOM     32  C   UNL     1      46.919   3.251   6.027  0.00  0.00    +0.000 A 
ATOM     33  O   UNL     1      46.185   4.035   6.858  0.00  0.00    +0.000 OA
ENDBRANCH  26  29
ENDBRANCH  24  25
ENDBRANCH   7  24
TORSDOF 6
ENDMDL
MODEL 8
REMARK VINA RESULT:    -7.053      4.754      9.573
REMARK INTER + INTRA:         -10.726
REMARK INTER:                  -9.873
REMARK INTRA:                  -0.853
REMARK UNBOUND:                -1.198
REMARK  Name = 
REMARK  7 active torsions:
REMARK  status: ('A' for Active; 'I' for Inactive)
REMARK    1  A    between atoms: C_1  and  C_2
REMARK    2  A    between atoms: C_4  and  C_5
REMARK    3  A    between atoms: C_5  and  N_6
REMARK    4  A    between atoms: C_7  and  C_9
REMARK    5  A    between atoms: C_21  and  C_22
REMARK    6  A    between atoms: C_22  and  N_23
REMARK    7  A    between atoms: C_24  and  C_26
REMARK                            x       y       z     vdW  Elec       q    Type
REMARK                         _______ _______ _______ _____ _____    ______ ____
ROOT
ATOM      1  C   UNL     1      51.265   5.580  18.782  0.00  0.00    +0.000 C 
ATOM      2  C   UNL     1      50.638   4.364  18.159  0.00  0.00    +0.000 A 
ATOM      3  C   UNL     1      49.263   4.423  17.846  0.00  0.00    +0.000 A 
ATOM      4  C   UNL     1      48.597   3.359  17.224  0.00  0.00    +0.000 A 
ATOM      5  C   UNL     1      49.320   2.194  16.957  0.00  0.00    +0.000 A 
ATOM      6  C   UNL     1      50.682   2.112  17.274  0.00  0.00    +0.000 A 
ATOM      7  C   UNL     1      51.369   3.195  17.860  0.00  0.00    +0.000 A 
ENDROOT
BRANCH   4   8
ATOM      8  C   UNL     1      47.131   3.478  16.886  0.00  0.00    +0.000 C 
BRANCH   8   9
ATOM      9  N   UNL     1      46.902   4.499  15.894  0.00  0.00    +0.000 N 
ATOM     10  C   UNL     1      47.011   4.236  14.553  0.00  0.00    +0.000 C 
ATOM     11  O   UNL     1      47.275   3.116  14.124  0.00  0.00    +0.000 OA
ATOM     12  H   UNL     1      46.936   5.462  16.215  0.00  0.00    +0.000 HD
BRANCH  10  13
ATOM     13  C   UNL     1      46.732   5.358  13.642  0.00  0.00    +0.000 A 
ATOM     14  C   UNL     1      47.720   6.294  13.376  0.00  0.00    +0.000 A 
ATOM     15  S   UNL     1      47.246   7.496  12.261  0.00  0.00    +0.000 S 
ATOM     16  C   UNL     1      45.681   6.840  12.141  0.00  0.00    +0.000 A 
ATOM     17  N   UNL     1      44.739   7.425  11.352  0.00  0.00    +0.000 NA
ATOM     18  C   UNL     1      43.585   6.837  11.375  0.00  0.00    +0.000 A 
ATOM     19  N   UNL     1      43.295   5.718  12.112  0.00  0.00    +0.000 N 
ATOM     20  C   UNL     1      44.223   5.079  12.897  0.00  0.00    +0.000 A 
ATOM     21  O   UNL     1      43.939   4.053  13.505  0.00  0.00    +0.000 OA
ATOM     22  C   UNL     1      45.531   5.705  12.917  0.00  0.00    +0.000 A 
ATOM     23  H   UNL     1      42.376   5.302  12.082  0.00  0.00    +0.000 HD
ENDBRANCH  10  13
ENDBRANCH   8   9
ENDBRANCH   4   8
BRANCH   7  24
ATOM     24  C   UNL     1      52.851   3.042  18.141  0.00  0.00    +0.000 C 
BRANCH  24  25
ATOM     25  N   UNL     1      53.216   1.674  18.413  0.00  0.00    +0.000 N 
ATOM     26  C   UNL     1      54.335   1.078  17.866  0.00  0.00    +0.000 C 
ATOM     27  O   UNL     1      55.120   1.676  17.133  0.00  0.00    +0.000 OA
ATOM     28  H   UNL     1      52.661   1.123  19.054  0.00  0.00    +0.000 HD
BRANCH  26  29
ATOM     29  C   UNL     1      54.483  -0.322  18.237  0.00  0.00    +0.000 A 
ATOM     30  C   UNL     1      54.758  -1.460  17.497  0.00  0.00    +0.000 A 
ATOM     31  C   UNL     1      54.757  -2.553  18.401  0.00  0.00    +0.000 A 
ATOM     32  C   UNL     1      54.478  -2.023  19.638  0.00  0.00    +0.000 A 
ATOM     33  O   UNL     1      54.324  -0.676  19.556  0.00  0.00    +0.000 OA
ENDBRANCH  26  29
ENDBRANCH  24  25
ENDBRANCH   7  24
TORSDOF 6
ENDMDL
MODEL 9
REMARK VINA RESULT:    -6.799      3.327      8.772
REMARK INTER + INTRA:         -10.383
REMARK INTER:                  -9.376
REMARK INTRA:                  -1.007
REMARK UNBOUND:                -1.198
REMARK  Name = 
REMARK  7 active torsions:
REMARK  status: ('A' for Active; 'I' for Inactive)
REMARK    1  A    between atoms: C_1  and  C_2
REMARK    2  A    between atoms: C_4  and  C_5
REMARK    3  A    between atoms: C_5  and  N_6
REMARK    4  A    between atoms: C_7  and  C_9
REMARK    5  A    between atoms: C_21  and  C_22
REMARK    6  A    between atoms: C_22  and  N_23
REMARK    7  A    between atoms: C_24  and  C_26
REMARK                            x       y       z     vdW  Elec       q    Type
REMARK                         _______ _______ _______ _____ _____    ______ ____
ROOT
ATOM      1  C   UNL     1      51.884   8.613  14.343  0.00  0.00    +0.000 C 
ATOM      2  C   UNL     1      50.545   7.933  14.423  0.00  0.00    +0.000 A 
ATOM      3  C   UNL     1      49.666   8.088  13.331  0.00  0.00    +0.000 A 
ATOM      4  C   UNL     1      48.415   7.459  13.290  0.00  0.00    +0.000 A 
ATOM      5  C   UNL     1      48.022   6.698  14.394  0.00  0.00    +0.000 A 
ATOM      6  C   UNL     1      48.878   6.545  15.494  0.00  0.00    +0.000 A 
ATOM      7  C   UNL     1      50.155   7.139  15.523  0.00  0.00    +0.000 A 
ENDROOT
BRANCH   4   8
ATOM      8  C   UNL     1      47.519   7.635  12.089  0.00  0.00    +0.000 C 
BRANCH   8   9
ATOM      9  N   UNL     1      46.812   6.417  11.778  0.00  0.00    +0.000 N 
ATOM     10  C   UNL     1      45.443   6.361  11.773  0.00  0.00    +0.000 C 
ATOM     11  O   UNL     1      44.746   7.347  11.999  0.00  0.00    +0.000 OA
ATOM     12  H   UNL     1      47.344   5.554  11.840  0.00  0.00    +0.000 HD
BRANCH  10  13
ATOM     13  C   UNL     1      44.843   5.064  11.419  0.00  0.00    +0.000 A 
ATOM     14  C   UNL     1      44.070   4.384  12.349  0.00  0.00    +0.000 A 
ATOM     15  S   UNL     1      43.410   2.925  11.758  0.00  0.00    +0.000 S 
ATOM     16  C   UNL     1      44.184   3.123  10.256  0.00  0.00    +0.000 A 
ATOM     17  N   UNL     1      44.055   2.186   9.278  0.00  0.00    +0.000 NA
ATOM     18  C   UNL     1      44.719   2.450   8.198  0.00  0.00    +0.000 A 
ATOM     19  N   UNL     1      45.493   3.567   8.011  0.00  0.00    +0.000 N 
ATOM     20  C   UNL     1      45.626   4.550   8.959  0.00  0.00    +0.000 A 
ATOM     21  O   UNL     1      46.289   5.558   8.739  0.00  0.00    +0.000 OA
ATOM     22  C   UNL     1      44.912   4.297  10.196  0.00  0.00    +0.000 A 
ATOM     23  H   UNL     1      45.981   3.718   7.141  0.00  0.00    +0.000 HD
ENDBRANCH  10  13
ENDBRANCH   8   9
ENDBRANCH   4   8
BRANCH   7  24
ATOM     24  C   UNL     1      51.036   6.898  16.733  0.00  0.00    +0.000 C 
BRANCH  24  25
ATOM     25  N   UNL     1      51.432   5.518  16.853  0.00  0.00    +0.000 N 
ATOM     26  C   UNL     1      50.871   4.658  17.775  0.00  0.00    +0.000 C 
ATOM     27  O   UNL     1      49.970   4.995  18.542  0.00  0.00    +0.000 OA
ATOM     28  H   UNL     1      52.125   5.136  16.222  0.00  0.00    +0.000 HD
BRANCH  26  29
ATOM     29  C   UNL     1      51.456   3.325  17.754  0.00  0.00    +0.000 A 
ATOM     30  C   UNL     1      50.967   2.096  17.344  0.00  0.00    +0.000 A 
ATOM     31  C   UNL     1      51.987   1.141  17.585  0.00  0.00    +0.000 A 
ATOM     32  C   UNL     1      53.039   1.838  18.130  0.00  0.00    +0.000 A 
ATOM     33  O   UNL     1      52.738   3.159  18.226  0.00  0.00    +0.000 OA
ENDBRANCH  26  29
ENDBRANCH  24  25
ENDBRANCH   7  24
TORSDOF 6
ENDMDL
