MODEL 1
REMARK VINA RESULT:    -8.456      0.000      0.000
REMARK INTER + INTRA:         -12.991
REMARK INTER:                 -12.164
REMARK INTRA:                  -0.827
REMARK UNBOUND:                -0.827
REMARK  Name = 
REMARK  8 active torsions:
REMARK  status: ('A' for Active; 'I' for Inactive)
REMARK    1  A    between atoms: N_1  and  C_2
REMARK    2  A    between atoms: C_2  and  C_3
REMARK    3  A    between atoms: C_3  and  N_4
REMARK    4  A    between atoms: C_3  and  C_17
REMARK    5  A    between atoms: C_5  and  C_7
REMARK    6  A    between atoms: C_20  and  O_21
REMARK    7  A    between atoms: O_21  and  C_22
REMARK    8  A    between atoms: C_22  and  C_23
REMARK                            x       y       z     vdW  Elec       q    Type
REMARK                         _______ _______ _______ _____ _____    ______ ____
ROOT
ATOM      1  C   UNL     1      46.591   7.910  12.717  0.00  0.00    +0.000 C 
ENDROOT
BRANCH   1   2
ATOM      2  C   UNL     1      45.921   6.795  11.919  0.00  0.00    +0.000 A 
ATOM      3  C   UNL     1      44.809   6.131  12.458  0.00  0.00    +0.000 A 
ATOM      4  C   UNL     1      44.157   5.120  11.745  0.00  0.00    +0.000 A 
ATOM      5  C   UNL     1      44.599   4.758  10.472  0.00  0.00    +0.000 A 
ATOM      6  C   UNL     1      45.711   5.403   9.930  0.00  0.00    +0.000 A 
ATOM      7  C   UNL     1      46.362   6.419  10.640  0.00  0.00    +0.000 A 
BRANCH   5   8
ATOM      8  O   UNL     1      44.057   3.765   9.702  0.00  0.00    +0.000 OA
BRANCH   8   9
ATOM      9  C   UNL     1      44.733   2.503   9.750  0.00  0.00    +0.000 C 
BRANCH   9  10
ATOM     10  C   UNL     1      45.569   2.319   8.500  0.00  0.00    +0.000 A 
ATOM     11  C   UNL     1      45.591   3.316   7.524  0.00  0.00    +0.000 A 
ATOM     12  C   UNL     1      46.395   3.144   6.401  0.00  0.00    +0.000 A 
ATOM     13  C   UNL     1      47.152   1.986   6.278  0.00  0.00    +0.000 A 
ATOM     14  C   UNL     1      47.078   1.046   7.291  0.00  0.00    +0.000 A 
ATOM     15  N   UNL     1      46.312   1.187   8.396  0.00  0.00    +0.000 NA
ENDBRANCH   9  10
ENDBRANCH   8   9
ENDBRANCH   5   8
ENDBRANCH   1   2
BRANCH   1  16
ATOM     16  N   UNL     1      47.066   7.370  13.982  0.00  0.00    +0.000 N 
ATOM     17  C   UNL     1      48.366   7.001  14.199  0.00  0.00    +0.000 C 
ATOM     18  O   UNL     1      49.244   7.157  13.357  0.00  0.00    +0.000 OA
ATOM     19  H   UNL     1      46.360   7.146  14.675  0.00  0.00    +0.000 HD
BRANCH  17  20
ATOM     20  C   UNL     1      48.662   6.432  15.521  0.00  0.00    +0.000 A 
ATOM     21  C   UNL     1      49.578   7.060  16.356  0.00  0.00    +0.000 A 
ATOM     22  S   UNL     1      49.819   6.246  17.837  0.00  0.00    +0.000 S 
ATOM     23  C   UNL     1      48.745   5.001  17.391  0.00  0.00    +0.000 A 
ATOM     24  N   UNL     1      48.533   3.933  18.206  0.00  0.00    +0.000 NA
ATOM     25  C   UNL     1      47.736   3.042  17.719  0.00  0.00    +0.000 A 
ATOM     26  N   UNL     1      47.110   3.134  16.502  0.00  0.00    +0.000 N 
ATOM     27  C   UNL     1      47.213   4.243  15.696  0.00  0.00    +0.000 A 
ATOM     28  O   UNL     1      46.500   4.370  14.708  0.00  0.00    +0.000 OA
ATOM     29  C   UNL     1      48.168   5.233  16.156  0.00  0.00    +0.000 A 
ATOM     30  H   UNL     1      46.457   2.426  16.199  0.00  0.00    +0.000 HD
ENDBRANCH  17  20
ENDBRANCH   1  16
BRANCH   1  31
ATOM     31  C   UNL     1      45.660   9.137  12.948  0.00  0.00    +0.000 C 
BRANCH  31  32
ATOM     32  N   UNL     1      46.166  10.398  12.389  0.00  0.00    +0.000 NA
ATOM     33  H   UNL     1      45.418  11.091  12.403  0.00  0.00    +0.000 HD
ATOM     34  H   UNL     1      46.412  10.261  11.408  0.00  0.00    +0.000 HD
ENDBRANCH  31  32
ENDBRANCH   1  31
TORSDOF 8
ENDMDL
MODEL 2
REMARK VINA RESULT:    -8.297      2.188      2.867
REMARK INTER + INTRA:         -12.761
REMARK INTER:                 -11.517
REMARK INTRA:                  -1.244
REMARK UNBOUND:                -0.827
REMARK  Name = 
REMARK  8 active torsions:
REMARK  status: ('A' for Active; 'I' for Inactive)
REMARK    1  A    between atoms: N_1  and  C_2
REMARK    2  A    between atoms: C_2  and  C_3
REMARK    3  A    between atoms: C_3  and  N_4
REMARK    4  A    between atoms: C_3  and  C_17
REMARK    5  A    between atoms: C_5  and  C_7
REMARK    6  A    between atoms: C_20  and  O_21
REMARK    7  A    between atoms: O_21  and  C_22
REMARK    8  A    between atoms: C_22  and  C_23
REMARK                            x       y       z     vdW  Elec       q    Type
REMARK                         _______ _______ _______ _____ _____    ______ ____
ROOT
ATOM      1  C   UNL     1      47.819   7.052  13.810  0.00  0.00    +0.000 C 
ENDROOT
BRANCH   1   2
ATOM      2  C   UNL     1      46.874   6.208  12.959  0.00  0.00    +0.000 A 
ATOM      3  C   UNL     1      46.462   6.683  11.705  0.00  0.00    +0.000 A 
ATOM      4  C   UNL     1      45.614   5.927  10.889  0.00  0.00    +0.000 A 
ATOM      5  C   UNL     1      45.168   4.673  11.308  0.00  0.00    +0.000 A 
ATOM      6  C   UNL     1      45.563   4.194  12.558  0.00  0.00    +0.000 A 
ATOM      7  C   UNL     1      46.415   4.947  13.374  0.00  0.00    +0.000 A 
BRANCH   5   8
ATOM      8  O   UNL     1      44.315   3.865  10.606  0.00  0.00    +0.000 OA
BRANCH   8   9
ATOM      9  C   UNL     1      44.223   4.130   9.202  0.00  0.00    +0.000 C 
BRANCH   9  10
ATOM     10  C   UNL     1      45.302   3.365   8.462  0.00  0.00    +0.000 A 
ATOM     11  C   UNL     1      45.482   2.003   8.707  0.00  0.00    +0.000 A 
ATOM     12  C   UNL     1      46.453   1.311   7.989  0.00  0.00    +0.000 A 
ATOM     13  C   UNL     1      47.218   1.990   7.050  0.00  0.00    +0.000 A 
ATOM     14  C   UNL     1      46.975   3.340   6.862  0.00  0.00    +0.000 A 
ATOM     15  N   UNL     1      46.036   4.038   7.539  0.00  0.00    +0.000 NA
ENDBRANCH   9  10
ENDBRANCH   8   9
ENDBRANCH   5   8
ENDBRANCH   1   2
BRANCH   1  16
ATOM     16  N   UNL     1      47.824   6.535  15.169  0.00  0.00    +0.000 N 
ATOM     17  C   UNL     1      48.971   6.312  15.883  0.00  0.00    +0.000 C 
ATOM     18  O   UNL     1      50.083   6.592  15.446  0.00  0.00    +0.000 OA
ATOM     19  H   UNL     1      46.937   6.212  15.537  0.00  0.00    +0.000 HD
BRANCH  17  20
ATOM     20  C   UNL     1      48.794   5.745  17.226  0.00  0.00    +0.000 A 
ATOM     21  C   UNL     1      48.995   4.386  17.436  0.00  0.00    +0.000 A 
ATOM     22  S   UNL     1      48.718   3.897  19.048  0.00  0.00    +0.000 S 
ATOM     23  C   UNL     1      48.270   5.475  19.508  0.00  0.00    +0.000 A 
ATOM     24  N   UNL     1      47.855   5.745  20.774  0.00  0.00    +0.000 NA
ATOM     25  C   UNL     1      47.498   6.971  20.967  0.00  0.00    +0.000 A 
ATOM     26  N   UNL     1      47.544   7.958  20.016  0.00  0.00    +0.000 N 
ATOM     27  C   UNL     1      48.058   7.753  18.758  0.00  0.00    +0.000 A 
ATOM     28  O   UNL     1      48.253   8.694  17.999  0.00  0.00    +0.000 OA
ATOM     29  C   UNL     1      48.387   6.371  18.462  0.00  0.00    +0.000 A 
ATOM     30  H   UNL     1      47.299   8.910  20.245  0.00  0.00    +0.000 HD
ENDBRANCH  17  20
ENDBRANCH   1  16
BRANCH   1  31
ATOM     31  C   UNL     1      47.466   8.568  13.789  0.00  0.00    +0.000 C 
BRANCH  31  32
ATOM     32  N   UNL     1      47.298   9.172  15.119  0.00  0.00    +0.000 NA
ATOM     33  H   UNL     1      48.186   9.576  15.414  0.00  0.00    +0.000 HD
ATOM     34  H   UNL     1      47.076   8.443  15.798  0.00  0.00    +0.000 HD
ENDBRANCH  31  32
ENDBRANCH   1  31
TORSDOF 8
ENDMDL
MODEL 3
REMARK VINA RESULT:    -7.900      1.957      2.404
REMARK INTER + INTRA:         -12.191
REMARK INTER:                 -11.151
REMARK INTRA:                  -1.039
REMARK UNBOUND:                -0.827
REMARK  Name = 
REMARK  8 active torsions:
REMARK  status: ('A' for Active; 'I' for Inactive)
REMARK    1  A    between atoms: N_1  and  C_2
REMARK    2  A    between atoms: C_2  and  C_3
REMARK    3  A    between atoms: C_3  and  N_4
REMARK    4  A    between atoms: C_3  and  C_17
REMARK    5  A    between atoms: C_5  and  C_7
REMARK    6  A    between atoms: C_20  and  O_21
REMARK    7  A    between atoms: O_21  and  C_22
REMARK    8  A    between atoms: C_22  and  C_23
REMARK                            x       y       z     vdW  Elec       q    Type
REMARK                         _______ _______ _______ _____ _____    ______ ____
ROOT
ATOM      1  C   UNL     1      48.458   6.867  13.457  0.00  0.00    +0.000 C 
ENDROOT
BRANCH   1   2
ATOM      2  C   UNL     1      47.322   6.111  12.774  0.00  0.00    +0.000 A 
ATOM      3  C   UNL     1      46.854   4.913  13.333  0.00  0.00    +0.000 A 
ATOM      4  C   UNL     1      45.800   4.206  12.746  0.00  0.00    +0.000 A 
ATOM      5  C   UNL     1      45.184   4.689  11.591  0.00  0.00    +0.000 A 
ATOM      6  C   UNL     1      45.648   5.874  11.019  0.00  0.00    +0.000 A 
ATOM      7  C   UNL     1      46.700   6.586  11.607  0.00  0.00    +0.000 A 
BRANCH   5   8
ATOM      8  O   UNL     1      44.169   4.064  10.919  0.00  0.00    +0.000 OA
BRANCH   8   9
ATOM      9  C   UNL     1      44.064   4.375   9.525  0.00  0.00    +0.000 C 
BRANCH   9  10
ATOM     10  C   UNL     1      45.089   3.581   8.741  0.00  0.00    +0.000 A 
ATOM     11  C   UNL     1      45.231   2.211   8.969  0.00  0.00    +0.000 A 
ATOM     12  C   UNL     1      46.151   1.493   8.211  0.00  0.00    +0.000 A 
ATOM     13  C   UNL     1      46.905   2.153   7.251  0.00  0.00    +0.000 A 
ATOM     14  C   UNL     1      46.703   3.512   7.082  0.00  0.00    +0.000 A 
ATOM     15  N   UNL     1      45.812   4.236   7.797  0.00  0.00    +0.000 NA
ENDBRANCH   9  10
ENDBRANCH   8   9
ENDBRANCH   5   8
ENDBRANCH   1   2
BRANCH   1  16
ATOM     16  N   UNL     1      48.221   6.885  14.892  0.00  0.00    +0.000 N 
ATOM     17  C   UNL     1      49.224   6.795  15.819  0.00  0.00    +0.000 C 
ATOM     18  O   UNL     1      50.409   6.753  15.505  0.00  0.00    +0.000 OA
ATOM     19  H   UNL     1      47.255   6.833  15.195  0.00  0.00    +0.000 HD
BRANCH  17  20
ATOM     20  C   UNL     1      48.802   6.783  17.226  0.00  0.00    +0.000 A 
ATOM     21  C   UNL     1      48.401   7.963  17.839  0.00  0.00    +0.000 A 
ATOM     22  S   UNL     1      47.973   7.768  19.480  0.00  0.00    +0.000 S 
ATOM     23  C   UNL     1      48.357   6.109  19.440  0.00  0.00    +0.000 A 
ATOM     24  N   UNL     1      48.266   5.341  20.559  0.00  0.00    +0.000 NA
ATOM     25  C   UNL     1      48.637   4.116  20.395  0.00  0.00    +0.000 A 
ATOM     26  N   UNL     1      49.067   3.581  19.207  0.00  0.00    +0.000 N 
ATOM     27  C   UNL     1      49.072   4.293  18.031  0.00  0.00    +0.000 A 
ATOM     28  O   UNL     1      49.285   3.736  16.961  0.00  0.00    +0.000 OA
ATOM     29  C   UNL     1      48.750   5.700  18.180  0.00  0.00    +0.000 A 
ATOM     30  H   UNL     1      49.295   2.600  19.132  0.00  0.00    +0.000 HD
ENDBRANCH  17  20
ENDBRANCH   1  16
BRANCH   1  31
ATOM     31  C   UNL     1      48.648   8.310  12.904  0.00  0.00    +0.000 C 
BRANCH  31  32
ATOM     32  N   UNL     1      50.045   8.761  12.849  0.00  0.00    +0.000 NA
ATOM     33  H   UNL     1      50.521   8.475  13.704  0.00  0.00    +0.000 HD
ATOM     34  H   UNL     1      50.073   9.782  12.834  0.00  0.00    +0.000 HD
ENDBRANCH  31  32
ENDBRANCH   1  31
TORSDOF 8
ENDMDL
MODEL 4
REMARK VINA RESULT:    -7.820      2.769      4.193
REMARK INTER + INTRA:         -12.076
REMARK INTER:                 -10.688
REMARK INTRA:                  -1.388
REMARK UNBOUND:                -0.827
REMARK  Name = 
REMARK  8 active torsions:
REMARK  status: ('A' for Active; 'I' for Inactive)
REMARK    1  A    between atoms: N_1  and  C_2
REMARK    2  A    between atoms: C_2  and  C_3
REMARK    3  A    between atoms: C_3  and  N_4
REMARK    4  A    between atoms: C_3  and  C_17
REMARK    5  A    between atoms: C_5  and  C_7
REMARK    6  A    between atoms: C_20  and  O_21
REMARK    7  A    between atoms: O_21  and  C_22
REMARK    8  A    between atoms: C_22  and  C_23
REMARK                            x       y       z     vdW  Elec       q    Type
REMARK                         _______ _______ _______ _____ _____    ______ ____
ROOT
ATOM      1  C   UNL     1      46.749   5.776  14.014  0.00  0.00    +0.000 C 
ENDROOT
BRANCH   1   2
ATOM      2  C   UNL     1      46.066   5.144  12.804  0.00  0.00    +0.000 A 
ATOM      3  C   UNL     1      45.576   3.833  12.893  0.00  0.00    +0.000 A 
ATOM      4  C   UNL     1      44.926   3.231  11.811  0.00  0.00    +0.000 A 
ATOM      5  C   UNL     1      44.744   3.932  10.619  0.00  0.00    +0.000 A 
ATOM      6  C   UNL     1      45.237   5.233  10.515  0.00  0.00    +0.000 A 
ATOM      7  C   UNL     1      45.884   5.840  11.597  0.00  0.00    +0.000 A 
BRANCH   5   8
ATOM      8  O   UNL     1      44.152   3.431   9.492  0.00  0.00    +0.000 OA
BRANCH   8   9
ATOM      9  C   UNL     1      44.526   2.095   9.135  0.00  0.00    +0.000 C 
BRANCH   9  10
ATOM     10  C   UNL     1      45.648   2.129   8.118  0.00  0.00    +0.000 A 
ATOM     11  C   UNL     1      45.823   3.255   7.312  0.00  0.00    +0.000 A 
ATOM     12  C   UNL     1      46.883   3.282   6.410  0.00  0.00    +0.000 A 
ATOM     13  C   UNL     1      47.737   2.190   6.332  0.00  0.00    +0.000 A 
ATOM     14  C   UNL     1      47.498   1.112   7.168  0.00  0.00    +0.000 A 
ATOM     15  N   UNL     1      46.482   1.060   8.058  0.00  0.00    +0.000 NA
ENDBRANCH   9  10
ENDBRANCH   8   9
ENDBRANCH   5   8
ENDBRANCH   1   2
BRANCH   1  16
ATOM     16  N   UNL     1      47.887   6.561  13.562  0.00  0.00    +0.000 N 
ATOM     17  C   UNL     1      47.852   7.922  13.422  0.00  0.00    +0.000 C 
ATOM     18  O   UNL     1      46.870   8.590  13.729  0.00  0.00    +0.000 OA
ATOM     19  H   UNL     1      48.689   6.044  13.218  0.00  0.00    +0.000 HD
BRANCH  17  20
ATOM     20  C   UNL     1      49.078   8.549  12.911  0.00  0.00    +0.000 A 
ATOM     21  C   UNL     1      49.025   9.350  11.777  0.00  0.00    +0.000 A 
ATOM     22  S   UNL     1      50.545   9.971  11.310  0.00  0.00    +0.000 S 
ATOM     23  C   UNL     1      51.332   9.150  12.578  0.00  0.00    +0.000 A 
ATOM     24  N   UNL     1      52.683   9.211  12.721  0.00  0.00    +0.000 NA
ATOM     25  C   UNL     1      53.148   8.500  13.693  0.00  0.00    +0.000 A 
ATOM     26  N   UNL     1      52.382   7.753  14.552  0.00  0.00    +0.000 N 
ATOM     27  C   UNL     1      51.008   7.749  14.509  0.00  0.00    +0.000 A 
ATOM     28  O   UNL     1      50.354   7.221  15.400  0.00  0.00    +0.000 OA
ATOM     29  C   UNL     1      50.441   8.460  13.379  0.00  0.00    +0.000 A 
ATOM     30  H   UNL     1      52.803   7.258  15.325  0.00  0.00    +0.000 HD
ENDBRANCH  17  20
ENDBRANCH   1  16
BRANCH   1  31
ATOM     31  C   UNL     1      47.180   4.730  15.084  0.00  0.00    +0.000 C 
BRANCH  31  32
ATOM     32  N   UNL     1      48.403   5.081  15.820  0.00  0.00    +0.000 NA
ATOM     33  H   UNL     1      48.865   4.225  16.123  0.00  0.00    +0.000 HD
ATOM     34  H   UNL     1      48.155   5.589  16.669  0.00  0.00    +0.000 HD
ENDBRANCH  31  32
ENDBRANCH   1  31
TORSDOF 8
ENDMDL
MODEL 5
REMARK VINA RESULT:    -7.723      2.473      4.478
REMARK INTER + INTRA:         -11.937
REMARK INTER:                 -10.562
REMARK INTRA:                  -1.375
REMARK UNBOUND:                -0.827
REMARK  Name = 
REMARK  8 active torsions:
REMARK  status: ('A' for Active; 'I' for Inactive)
REMARK    1  A    between atoms: N_1  and  C_2
REMARK    2  A    between atoms: C_2  and  C_3
REMARK    3  A    between atoms: C_3  and  N_4
REMARK    4  A    between atoms: C_3  and  C_17
REMARK    5  A    between atoms: C_5  and  C_7
REMARK    6  A    between atoms: C_20  and  O_21
REMARK    7  A    between atoms: O_21  and  C_22
REMARK    8  A    between atoms: C_22  and  C_23
REMARK                            x       y       z     vdW  Elec       q    Type
REMARK                         _______ _______ _______ _____ _____    ______ ____
ROOT
ATOM      1  C   UNL     1      47.026   5.579  14.397  0.00  0.00    +0.000 C 
ENDROOT
BRANCH   1   2
ATOM      2  C   UNL     1      46.276   5.083  13.163  0.00  0.00    +0.000 A 
ATOM      3  C   UNL     1      46.081   5.951  12.079  0.00  0.00    +0.000 A 
ATOM      4  C   UNL     1      45.418   5.525  10.923  0.00  0.00    +0.000 A 
ATOM      5  C   UNL     1      44.944   4.216  10.826  0.00  0.00    +0.000 A 
ATOM      6  C   UNL     1      45.121   3.347  11.903  0.00  0.00    +0.000 A 
ATOM      7  C   UNL     1      45.789   3.770  13.058  0.00  0.00    +0.000 A 
BRANCH   5   8
ATOM      8  O   UNL     1      44.256   3.704   9.759  0.00  0.00    +0.000 OA
BRANCH   8   9
ATOM      9  C   UNL     1      44.531   2.335   9.443  0.00  0.00    +0.000 C 
BRANCH   9  10
ATOM     10  C   UNL     1      45.575   2.258   8.347  0.00  0.00    +0.000 A 
ATOM     11  C   UNL     1      45.809   3.365   7.530  0.00  0.00    +0.000 A 
ATOM     12  C   UNL     1      46.798   3.287   6.555  0.00  0.00    +0.000 A 
ATOM     13  C   UNL     1      47.525   2.112   6.416  0.00  0.00    +0.000 A 
ATOM     14  C   UNL     1      47.236   1.060   7.268  0.00  0.00    +0.000 A 
ATOM     15  N   UNL     1      46.286   1.108   8.229  0.00  0.00    +0.000 NA
ENDBRANCH   9  10
ENDBRANCH   8   9
ENDBRANCH   5   8
ENDBRANCH   1   2
BRANCH   1  16
ATOM     16  N   UNL     1      48.225   6.284  13.973  0.00  0.00    +0.000 N 
ATOM     17  C   UNL     1      48.826   7.260  14.722  0.00  0.00    +0.000 C 
ATOM     18  O   UNL     1      48.430   7.569  15.840  0.00  0.00    +0.000 OA
ATOM     19  H   UNL     1      48.537   6.121  13.022  0.00  0.00    +0.000 HD
BRANCH  17  20
ATOM     20  C   UNL     1      50.004   7.899  14.120  0.00  0.00    +0.000 A 
ATOM     21  C   UNL     1      51.253   7.745  14.709  0.00  0.00    +0.000 A 
ATOM     22  S   UNL     1      52.499   8.580  13.894  0.00  0.00    +0.000 S 
ATOM     23  C   UNL     1      51.403   9.216  12.755  0.00  0.00    +0.000 A 
ATOM     24  N   UNL     1      51.818  10.076  11.787  0.00  0.00    +0.000 NA
ATOM     25  C   UNL     1      50.873  10.519  11.028  0.00  0.00    +0.000 A 
ATOM     26  N   UNL     1      49.554  10.158  11.130  0.00  0.00    +0.000 N 
ATOM     27  C   UNL     1      49.110   9.212  12.023  0.00  0.00    +0.000 A 
ATOM     28  O   UNL     1      47.964   8.782  11.964  0.00  0.00    +0.000 OA
ATOM     29  C   UNL     1      50.117   8.752  12.960  0.00  0.00    +0.000 A 
ATOM     30  H   UNL     1      48.869  10.501  10.472  0.00  0.00    +0.000 HD
ENDBRANCH  17  20
ENDBRANCH   1  16
BRANCH   1  31
ATOM     31  C   UNL     1      47.373   4.437  15.397  0.00  0.00    +0.000 C 
BRANCH  31  32
ATOM     32  N   UNL     1      47.148   4.775  16.809  0.00  0.00    +0.000 NA
ATOM     33  H   UNL     1      46.877   3.931  17.313  0.00  0.00    +0.000 HD
ATOM     34  H   UNL     1      46.359   5.418  16.883  0.00  0.00    +0.000 HD
ENDBRANCH  31  32
ENDBRANCH   1  31
TORSDOF 8
ENDMDL
MODEL 6
REMARK VINA RESULT:    -7.425      2.595      3.530
REMARK INTER + INTRA:         -11.508
REMARK INTER:                 -10.343
REMARK INTRA:                  -1.165
REMARK UNBOUND:                -0.827
REMARK  Name = 
REMARK  8 active torsions:
REMARK  status: ('A' for Active; 'I' for Inactive)
REMARK    1  A    between atoms: N_1  and  C_2
REMARK    2  A    between atoms: C_2  and  C_3
REMARK    3  A    between atoms: C_3  and  N_4
REMARK    4  A    between atoms: C_3  and  C_17
REMARK    5  A    between atoms: C_5  and  C_7
REMARK    6  A    between atoms: C_20  and  O_21
REMARK    7  A    between atoms: O_21  and  C_22
REMARK    8  A    between atoms: C_22  and  C_23
REMARK                            x       y       z     vdW  Elec       q    Type
REMARK                         _______ _______ _______ _____ _____    ______ ____
ROOT
ATOM      1  C   UNL     1      48.565   6.467  13.794  0.00  0.00    +0.000 C 
ENDROOT
BRANCH   1   2
ATOM      2  C   UNL     1      47.319   6.044  13.020  0.00  0.00    +0.000 A 
ATOM      3  C   UNL     1      46.936   6.765  11.879  0.00  0.00    +0.000 A 
ATOM      4  C   UNL     1      45.813   6.393  11.133  0.00  0.00    +0.000 A 
ATOM      5  C   UNL     1      45.054   5.285  11.508  0.00  0.00    +0.000 A 
ATOM      6  C   UNL     1      45.418   4.566  12.648  0.00  0.00    +0.000 A 
ATOM      7  C   UNL     1      46.544   4.934  13.393  0.00  0.00    +0.000 A 
BRANCH   5   8
ATOM      8  O   UNL     1      43.922   4.852  10.872  0.00  0.00    +0.000 OA
BRANCH   8   9
ATOM      9  C   UNL     1      43.870   3.450  10.583  0.00  0.00    +0.000 C 
BRANCH   9  10
ATOM     10  C   UNL     1      44.758   3.135   9.396  0.00  0.00    +0.000 A 
ATOM     11  C   UNL     1      45.043   4.127   8.457  0.00  0.00    +0.000 A 
ATOM     12  C   UNL     1      45.891   3.828   7.395  0.00  0.00    +0.000 A 
ATOM     13  C   UNL     1      46.430   2.552   7.294  0.00  0.00    +0.000 A 
ATOM     14  C   UNL     1      46.101   1.624   8.267  0.00  0.00    +0.000 A 
ATOM     15  N   UNL     1      45.286   1.887   9.314  0.00  0.00    +0.000 NA
ENDBRANCH   9  10
ENDBRANCH   8   9
ENDBRANCH   5   8
ENDBRANCH   1   2
BRANCH   1  16
ATOM     16  N   UNL     1      48.196   6.741  15.174  0.00  0.00    +0.000 N 
ATOM     17  C   UNL     1      48.997   6.431  16.240  0.00  0.00    +0.000 C 
ATOM     18  O   UNL     1      50.118   5.951  16.104  0.00  0.00    +0.000 OA
ATOM     19  H   UNL     1      47.247   7.058  15.338  0.00  0.00    +0.000 HD
BRANCH  17  20
ATOM     20  C   UNL     1      48.449   6.737  17.568  0.00  0.00    +0.000 A 
ATOM     21  C   UNL     1      48.172   5.707  18.458  0.00  0.00    +0.000 A 
ATOM     22  S   UNL     1      47.515   6.243  19.939  0.00  0.00    +0.000 S 
ATOM     23  C   UNL     1      47.531   7.866  19.422  0.00  0.00    +0.000 A 
ATOM     24  N   UNL     1      47.039   8.858  20.211  0.00  0.00    +0.000 NA
ATOM     25  C   UNL     1      47.067  10.031  19.671  0.00  0.00    +0.000 A 
ATOM     26  N   UNL     1      47.568  10.306  18.425  0.00  0.00    +0.000 N 
ATOM     27  C   UNL     1      48.171   9.352  17.639  0.00  0.00    +0.000 A 
ATOM     28  O   UNL     1      48.768   9.667  16.617  0.00  0.00    +0.000 OA
ATOM     29  C   UNL     1      48.083   8.002  18.162  0.00  0.00    +0.000 A 
ATOM     30  H   UNL     1      47.608  11.254  18.079  0.00  0.00    +0.000 HD
ENDBRANCH  17  20
ENDBRANCH   1  16
BRANCH   1  31
ATOM     31  C   UNL     1      49.292   7.687  13.156  0.00  0.00    +0.000 C 
BRANCH  31  32
ATOM     32  N   UNL     1      50.730   7.758  13.448  0.00  0.00    +0.000 NA
ATOM     33  H   UNL     1      51.244   7.835  12.570  0.00  0.00    +0.000 HD
ATOM     34  H   UNL     1      51.033   6.886  13.882  0.00  0.00    +0.000 HD
ENDBRANCH  31  32
ENDBRANCH   1  31
TORSDOF 8
ENDMDL
MODEL 7
REMARK VINA RESULT:    -7.184      2.519      4.176
REMARK INTER + INTRA:         -11.161
REMARK INTER:                 -10.330
REMARK INTRA:                  -0.831
REMARK UNBOUND:                -0.827
REMARK  Name = 
REMARK  8 active torsions:
REMARK  status: ('A' for Active; 'I' for Inactive)
REMARK    1  A    between atoms: N_1  and  C_2
REMARK    2  A    between atoms: C_2  and  C_3
REMARK    3  A    between atoms: C_3  and  N_4
REMARK    4  A    between atoms: C_3  and  C_17
REMARK    5  A    between atoms: C_5  and  C_7
REMARK    6  A    between atoms: C_20  and  O_21
REMARK    7  A    between atoms: O_21  and  C_22
REMARK    8  A    between atoms: C_22  and  C_23
REMARK                            x       y       z     vdW  Elec       q    Type
REMARK                         _______ _______ _______ _____ _____    ______ ____
ROOT
ATOM      1  C   UNL     1      46.864   5.054  14.984  0.00  0.00    +0.000 C 
ENDROOT
BRANCH   1   2
ATOM      2  C   UNL     1      46.242   4.821  13.609  0.00  0.00    +0.000 A 
ATOM      3  C   UNL     1      46.036   5.911  12.750  0.00  0.00    +0.000 A 
ATOM      4  C   UNL     1      45.489   5.732  11.475  0.00  0.00    +0.000 A 
ATOM      5  C   UNL     1      45.145   4.456  11.030  0.00  0.00    +0.000 A 
ATOM      6  C   UNL     1      45.334   3.365  11.880  0.00  0.00    +0.000 A 
ATOM      7  C   UNL     1      45.886   3.541  13.154  0.00  0.00    +0.000 A 
BRANCH   5   8
ATOM      8  O   UNL     1      44.576   4.170   9.818  0.00  0.00    +0.000 OA
BRANCH   8   9
ATOM      9  C   UNL     1      44.527   2.783   9.466  0.00  0.00    +0.000 C 
BRANCH   9  10
ATOM     10  C   UNL     1      45.522   2.496   8.361  0.00  0.00    +0.000 A 
ATOM     11  C   UNL     1      45.800   3.473   7.404  0.00  0.00    +0.000 A 
ATOM     12  C   UNL     1      46.746   3.204   6.419  0.00  0.00    +0.000 A 
ATOM     13  C   UNL     1      47.386   1.972   6.410  0.00  0.00    +0.000 A 
ATOM     14  C   UNL     1      47.057   1.057   7.395  0.00  0.00    +0.000 A 
ATOM     15  N   UNL     1      46.149   1.292   8.369  0.00  0.00    +0.000 NA
ENDBRANCH   9  10
ENDBRANCH   8   9
ENDBRANCH   5   8
ENDBRANCH   1   2
BRANCH   1  16
ATOM     16  N   UNL     1      47.888   6.081  14.873  0.00  0.00    +0.000 N 
ATOM     17  C   UNL     1      48.599   6.550  15.945  0.00  0.00    +0.000 C 
ATOM     18  O   UNL     1      48.465   6.092  17.075  0.00  0.00    +0.000 OA
ATOM     19  H   UNL     1      47.972   6.546  13.976  0.00  0.00    +0.000 HD
BRANCH  17  20
ATOM     20  C   UNL     1      49.563   7.621  15.660  0.00  0.00    +0.000 A 
ATOM     21  C   UNL     1      50.650   7.372  14.831  0.00  0.00    +0.000 A 
ATOM     22  S   UNL     1      51.680   8.718  14.635  0.00  0.00    +0.000 S 
ATOM     23  C   UNL     1      50.736   9.665  15.690  0.00  0.00    +0.000 A 
ATOM     24  N   UNL     1      51.101  10.935  16.009  0.00  0.00    +0.000 NA
ATOM     25  C   UNL     1      50.322  11.515  16.859  0.00  0.00    +0.000 A 
ATOM     26  N   UNL     1      49.195  10.951  17.399  0.00  0.00    +0.000 N 
ATOM     27  C   UNL     1      48.732   9.712  17.023  0.00  0.00    +0.000 A 
ATOM     28  O   UNL     1      47.630   9.317  17.385  0.00  0.00    +0.000 OA
ATOM     29  C   UNL     1      49.621   8.982  16.139  0.00  0.00    +0.000 A 
ATOM     30  H   UNL     1      48.598  11.476  18.021  0.00  0.00    +0.000 HD
ENDBRANCH  17  20
ENDBRANCH   1  16
BRANCH   1  31
ATOM     31  C   UNL     1      47.441   3.755  15.618  0.00  0.00    +0.000 C 
BRANCH  31  32
ATOM     32  N   UNL     1      46.846   3.393  16.912  0.00  0.00    +0.000 NA
ATOM     33  H   UNL     1      46.127   4.076  17.149  0.00  0.00    +0.000 HD
ATOM     34  H   UNL     1      47.555   3.458  17.643  0.00  0.00    +0.000 HD
ENDBRANCH  31  32
ENDBRANCH   1  31
TORSDOF 8
ENDMDL
MODEL 8
REMARK VINA RESULT:    -7.003      3.376      7.825
REMARK INTER + INTRA:         -10.901
REMARK INTER:                  -9.984
REMARK INTRA:                  -0.917
REMARK UNBOUND:                -0.827
REMARK  Name = 
REMARK  8 active torsions:
REMARK  status: ('A' for Active; 'I' for Inactive)
REMARK    1  A    between atoms: N_1  and  C_2
REMARK    2  A    between atoms: C_2  and  C_3
REMARK    3  A    between atoms: C_3  and  N_4
REMARK    4  A    between atoms: C_3  and  C_17
REMARK    5  A    between atoms: C_5  and  C_7
REMARK    6  A    between atoms: C_20  and  O_21
REMARK    7  A    between atoms: O_21  and  C_22
REMARK    8  A    between atoms: C_22  and  C_23
REMARK                            x       y       z     vdW  Elec       q    Type
REMARK                         _______ _______ _______ _____ _____    ______ ____
ROOT
ATOM      1  C   UNL     1      48.291   7.676  12.790  0.00  0.00    +0.000 C 
ENDROOT
BRANCH   1   2
ATOM      2  C   UNL     1      48.703   7.095  14.140  0.00  0.00    +0.000 A 
ATOM      3  C   UNL     1      47.949   6.054  14.703  0.00  0.00    +0.000 A 
ATOM      4  C   UNL     1      48.310   5.483  15.928  0.00  0.00    +0.000 A 
ATOM      5  C   UNL     1      49.440   5.935  16.610  0.00  0.00    +0.000 A 
ATOM      6  C   UNL     1      50.191   6.977  16.065  0.00  0.00    +0.000 A 
ATOM      7  C   UNL     1      49.834   7.547  14.838  0.00  0.00    +0.000 A 
BRANCH   5   8
ATOM      8  O   UNL     1      49.865   5.470  17.825  0.00  0.00    +0.000 OA
BRANCH   8   9
ATOM      9  C   UNL     1      51.272   5.230  17.940  0.00  0.00    +0.000 C 
BRANCH   9  10
ATOM     10  C   UNL     1      51.558   3.751  17.773  0.00  0.00    +0.000 A 
ATOM     11  C   UNL     1      52.796   3.234  18.155  0.00  0.00    +0.000 A 
ATOM     12  C   UNL     1      53.024   1.867  18.029  0.00  0.00    +0.000 A 
ATOM     13  C   UNL     1      52.018   1.053  17.526  0.00  0.00    +0.000 A 
ATOM     14  C   UNL     1      50.817   1.642  17.173  0.00  0.00    +0.000 A 
ATOM     15  N   UNL     1      50.563   2.965  17.290  0.00  0.00    +0.000 NA
ENDBRANCH   9  10
ENDBRANCH   8   9
ENDBRANCH   5   8
ENDBRANCH   1   2
BRANCH   1  16
ATOM     16  N   UNL     1      47.581   6.658  12.031  0.00  0.00    +0.000 N 
ATOM     17  C   UNL     1      46.295   6.815  11.587  0.00  0.00    +0.000 C 
ATOM     18  O   UNL     1      45.666   7.856  11.744  0.00  0.00    +0.000 OA
ATOM     19  H   UNL     1      48.030   5.753  11.951  0.00  0.00    +0.000 HD
BRANCH  17  20
ATOM     20  C   UNL     1      45.716   5.668  10.874  0.00  0.00    +0.000 A 
ATOM     21  C   UNL     1      45.822   5.585   9.492  0.00  0.00    +0.000 A 
ATOM     22  S   UNL     1      45.069   4.204   8.832  0.00  0.00    +0.000 S 
ATOM     23  C   UNL     1      44.532   3.695  10.366  0.00  0.00    +0.000 A 
ATOM     24  N   UNL     1      43.762   2.583  10.507  0.00  0.00    +0.000 NA
ATOM     25  C   UNL     1      43.385   2.346  11.718  0.00  0.00    +0.000 A 
ATOM     26  N   UNL     1      43.730   3.105  12.807  0.00  0.00    +0.000 N 
ATOM     27  C   UNL     1      44.591   4.173  12.725  0.00  0.00    +0.000 A 
ATOM     28  O   UNL     1      45.020   4.713  13.737  0.00  0.00    +0.000 OA
ATOM     29  C   UNL     1      44.971   4.536  11.372  0.00  0.00    +0.000 A 
ATOM     30  H   UNL     1      43.444   2.838  13.738  0.00  0.00    +0.000 HD
ENDBRANCH  17  20
ENDBRANCH   1  16
BRANCH   1  31
ATOM     31  C   UNL     1      49.494   8.241  11.978  0.00  0.00    +0.000 C 
BRANCH  31  32
ATOM     32  N   UNL     1      50.434   7.221  11.496  0.00  0.00    +0.000 NA
ATOM     33  H   UNL     1      51.355   7.644  11.385  0.00  0.00    +0.000 HD
ATOM     34  H   UNL     1      50.150   6.908  10.567  0.00  0.00    +0.000 HD
ENDBRANCH  31  32
ENDBRANCH   1  31
TORSDOF 8
ENDMDL
MODEL 9
REMARK VINA RESULT:    -6.901      3.969      5.289
REMARK INTER + INTRA:         -10.753
REMARK INTER:                  -9.726
REMARK INTRA:                  -1.027
REMARK UNBOUND:                -0.827
REMARK  Name = 
REMARK  8 active torsions:
REMARK  status: ('A' for Active; 'I' for Inactive)
REMARK    1  A    between atoms: N_1  and  C_2
REMARK    2  A    between atoms: C_2  and  C_3
REMARK    3  A    between atoms: C_3  and  N_4
REMARK    4  A    between atoms: C_3  and  C_17
REMARK    5  A    between atoms: C_5  and  C_7
REMARK    6  A    between atoms: C_20  and  O_21
REMARK    7  A    between atoms: O_21  and  C_22
REMARK    8  A    between atoms: C_22  and  C_23
REMARK                            x       y       z     vdW  Elec       q    Type
REMARK                         _______ _______ _______ _____ _____    ______ ____
ROOT
ATOM      1  C   UNL     1      48.158   7.223  13.407  0.00  0.00    +0.000 C 
ENDROOT
BRANCH   1   2
ATOM      2  C   UNL     1      47.167   6.321  12.676  0.00  0.00    +0.000 A 
ATOM      3  C   UNL     1      46.742   5.129  13.281  0.00  0.00    +0.000 A 
ATOM      4  C   UNL     1      45.818   4.289  12.651  0.00  0.00    +0.000 A 
ATOM      5  C   UNL     1      45.293   4.629  11.404  0.00  0.00    +0.000 A 
ATOM      6  C   UNL     1      45.717   5.807  10.787  0.00  0.00    +0.000 A 
ATOM      7  C   UNL     1      46.638   6.651  11.418  0.00  0.00    +0.000 A 
BRANCH   5   8
ATOM      8  O   UNL     1      44.410   3.869  10.686  0.00  0.00    +0.000 OA
BRANCH   8   9
ATOM      9  C   UNL     1      44.315   4.180   9.291  0.00  0.00    +0.000 C 
BRANCH   9  10
ATOM     10  C   UNL     1      45.335   3.375   8.512  0.00  0.00    +0.000 A 
ATOM     11  C   UNL     1      45.473   2.007   8.753  0.00  0.00    +0.000 A 
ATOM     12  C   UNL     1      46.389   1.279   8.000  0.00  0.00    +0.000 A 
ATOM     13  C   UNL     1      47.143   1.928   7.032  0.00  0.00    +0.000 A 
ATOM     14  C   UNL     1      46.946   3.286   6.851  0.00  0.00    +0.000 A 
ATOM     15  N   UNL     1      46.059   4.019   7.562  0.00  0.00    +0.000 NA
ENDBRANCH   9  10
ENDBRANCH   8   9
ENDBRANCH   5   8
ENDBRANCH   1   2
BRANCH   1  16
ATOM     16  N   UNL     1      49.445   7.160  12.732  0.00  0.00    +0.000 N 
ATOM     17  C   UNL     1      50.053   8.251  12.171  0.00  0.00    +0.000 C 
ATOM     18  O   UNL     1      49.581   9.381  12.251  0.00  0.00    +0.000 OA
ATOM     19  H   UNL     1      49.829   6.236  12.569  0.00  0.00    +0.000 HD
BRANCH  17  20
ATOM     20  C   UNL     1      51.329   7.998  11.490  0.00  0.00    +0.000 A 
ATOM     21  C   UNL     1      51.343   7.346  10.264  0.00  0.00    +0.000 A 
ATOM     22  S   UNL     1      52.912   7.112   9.633  0.00  0.00    +0.000 S 
ATOM     23  C   UNL     1      53.629   7.830  11.001  0.00  0.00    +0.000 A 
ATOM     24  N   UNL     1      54.981   7.902  11.129  0.00  0.00    +0.000 NA
ATOM     25  C   UNL     1      55.384   8.424  12.238  0.00  0.00    +0.000 A 
ATOM     26  N   UNL     1      54.558   8.905  13.221  0.00  0.00    +0.000 N 
ATOM     27  C   UNL     1      53.191   8.950  13.087  0.00  0.00    +0.000 A 
ATOM     28  O   UNL     1      52.500   9.551  13.900  0.00  0.00    +0.000 OA
ATOM     29  C   UNL     1      52.683   8.293  11.897  0.00  0.00    +0.000 A 
ATOM     30  H   UNL     1      54.937   9.349  14.046  0.00  0.00    +0.000 HD
ENDBRANCH  17  20
ENDBRANCH   1  16
BRANCH   1  31
ATOM     31  C   UNL     1      48.301   6.873  14.917  0.00  0.00    +0.000 C 
BRANCH  31  32
ATOM     32  N   UNL     1      49.649   6.448  15.318  0.00  0.00    +0.000 NA
ATOM     33  H   UNL     1      50.336   6.939  14.746  0.00  0.00    +0.000 HD
ATOM     34  H   UNL     1      49.767   5.454  15.117  0.00  0.00    +0.000 HD
ENDBRANCH  31  32
ENDBRANCH   1  31
TORSDOF 8
ENDMDL
