MODEL 1
REMARK VINA RESULT:    -8.644      0.000      0.000
REMARK INTER + INTRA:         -13.224
REMARK INTER:                 -12.182
REMARK INTRA:                  -1.042
REMARK UNBOUND:                -1.042
REMARK  Name = 
REMARK  8 active torsions:
REMARK  status: ('A' for Active; 'I' for Inactive)
REMARK    1  A    between atoms: C_1  and  C_2
REMARK    2  A    between atoms: C_5  and  C_6
REMARK    3  A    between atoms: C_6  and  O_7
REMARK    4  A    between atoms: O_7  and  C_8
REMARK    5  A    between atoms: C_8  and  C_9
REMARK    6  A    between atoms: C_12  and  C_13
REMARK    7  A    between atoms: C_13  and  N_14
REMARK    8  A    between atoms: C_15  and  C_17
REMARK                            x       y       z     vdW  Elec       q    Type
REMARK                         _______ _______ _______ _____ _____    ______ ____
ROOT
ATOM      1  C   UNL     1      44.555   4.805  11.834  0.00  0.00    +0.000 A 
ATOM      2  C   UNL     1      45.090   4.446  13.079  0.00  0.00    +0.000 A 
ATOM      3  C   UNL     1      46.200   5.117  13.602  0.00  0.00    +0.000 A 
ATOM      4  C   UNL     1      46.791   6.171  12.894  0.00  0.00    +0.000 A 
ATOM      5  C   UNL     1      46.278   6.508  11.635  0.00  0.00    +0.000 A 
ATOM      6  C   UNL     1      45.168   5.836  11.112  0.00  0.00    +0.000 A 
ENDROOT
BRANCH   1   7
ATOM      7  C   UNL     1      43.343   4.091  11.293  0.00  0.00    +0.000 C 
BRANCH   7   8
ATOM      8  O   UNL     1      43.644   3.647   9.975  0.00  0.00    +0.000 OA
BRANCH   8   9
ATOM      9  C   UNL     1      44.465   2.479   9.975  0.00  0.00    +0.000 C 
BRANCH   9  14
ATOM     10  C   UNL     1      48.006   2.277   5.425  0.00  0.00    +0.000 C 
ATOM     11  C   UNL     1      47.088   2.385   6.600  0.00  0.00    +0.000 A 
ATOM     12  C   UNL     1      46.442   3.576   6.920  0.00  0.00    +0.000 A 
ATOM     13  C   UNL     1      45.586   3.622   8.017  0.00  0.00    +0.000 A 
ATOM     14  C   UNL     1      45.381   2.467   8.770  0.00  0.00    +0.000 A 
ATOM     15  N   UNL     1      46.019   1.301   8.490  0.00  0.00    +0.000 NA
ATOM     16  C   UNL     1      46.845   1.288   7.418  0.00  0.00    +0.000 A 
ENDBRANCH   9  14
ENDBRANCH   8   9
ENDBRANCH   7   8
ENDBRANCH   1   7
BRANCH   4  17
ATOM     17  C   UNL     1      47.980   6.908  13.454  0.00  0.00    +0.000 C 
BRANCH  17  18
ATOM     18  N   UNL     1      47.914   6.982  14.890  0.00  0.00    +0.000 N 
ATOM     19  C   UNL     1      49.035   6.835  15.666  0.00  0.00    +0.000 C 
ATOM     20  O   UNL     1      50.150   6.671  15.177  0.00  0.00    +0.000 OA
ATOM     21  H   UNL     1      46.996   6.886  15.312  0.00  0.00    +0.000 HD
BRANCH  19  22
ATOM     22  C   UNL     1      48.842   6.946  17.117  0.00  0.00    +0.000 A 
ATOM     23  C   UNL     1      48.604   8.189  17.686  0.00  0.00    +0.000 A 
ATOM     24  S   UNL     1      48.351   8.132  19.373  0.00  0.00    +0.000 S 
ATOM     25  C   UNL     1      48.609   6.450  19.405  0.00  0.00    +0.000 A 
ATOM     26  N   UNL     1      48.558   5.761  20.577  0.00  0.00    +0.000 NA
ATOM     27  C   UNL     1      48.802   4.497  20.466  0.00  0.00    +0.000 A 
ATOM     28  N   UNL     1      49.080   3.860  19.283  0.00  0.00    +0.000 N 
ATOM     29  C   UNL     1      49.109   4.510  18.074  0.00  0.00    +0.000 A 
ATOM     30  O   UNL     1      49.319   3.900  17.030  0.00  0.00    +0.000 OA
ATOM     31  C   UNL     1      48.859   5.936  18.148  0.00  0.00    +0.000 A 
ATOM     32  H   UNL     1      49.253   2.865  19.259  0.00  0.00    +0.000 HD
ENDBRANCH  19  22
ENDBRANCH  17  18
ENDBRANCH   4  17
TORSDOF 7
ENDMDL
MODEL 2
REMARK VINA RESULT:    -8.199      1.361      2.218
REMARK INTER + INTRA:         -12.596
REMARK INTER:                 -11.626
REMARK INTRA:                  -0.970
REMARK UNBOUND:                -1.042
REMARK  Name = 
REMARK  8 active torsions:
REMARK  status: ('A' for Active; 'I' for Inactive)
REMARK    1  A    between atoms: C_1  and  C_2
REMARK    2  A    between atoms: C_5  and  C_6
REMARK    3  A    between atoms: C_6  and  O_7
REMARK    4  A    between atoms: O_7  and  C_8
REMARK    5  A    between atoms: C_8  and  C_9
REMARK    6  A    between atoms: C_12  and  C_13
REMARK    7  A    between atoms: C_13  and  N_14
REMARK    8  A    between atoms: C_15  and  C_17
REMARK                            x       y       z     vdW  Elec       q    Type
REMARK                         _______ _______ _______ _____ _____    ______ ____
ROOT
ATOM      1  C   UNL     1      44.454   4.944  11.921  0.00  0.00    +0.000 A 
ATOM      2  C   UNL     1      45.263   5.928  11.336  0.00  0.00    +0.000 A 
ATOM      3  C   UNL     1      46.432   6.363  11.970  0.00  0.00    +0.000 A 
ATOM      4  C   UNL     1      46.821   5.814  13.198  0.00  0.00    +0.000 A 
ATOM      5  C   UNL     1      45.995   4.855  13.799  0.00  0.00    +0.000 A 
ATOM      6  C   UNL     1      44.826   4.420  13.165  0.00  0.00    +0.000 A 
ENDROOT
BRANCH   1   7
ATOM      7  C   UNL     1      43.211   4.464  11.216  0.00  0.00    +0.000 C 
BRANCH   7   8
ATOM      8  O   UNL     1      43.583   4.025   9.915  0.00  0.00    +0.000 OA
BRANCH   8   9
ATOM      9  C   UNL     1      44.252   2.764   9.943  0.00  0.00    +0.000 C 
BRANCH   9  14
ATOM     10  C   UNL     1      47.996   2.160   5.595  0.00  0.00    +0.000 C 
ATOM     11  C   UNL     1      47.024   2.370   6.712  0.00  0.00    +0.000 A 
ATOM     12  C   UNL     1      46.347   3.576   6.878  0.00  0.00    +0.000 A 
ATOM     13  C   UNL     1      45.442   3.719   7.927  0.00  0.00    +0.000 A 
ATOM     14  C   UNL     1      45.221   2.644   8.786  0.00  0.00    +0.000 A 
ATOM     15  N   UNL     1      45.887   1.469   8.657  0.00  0.00    +0.000 NA
ATOM     16  C   UNL     1      46.761   1.360   7.629  0.00  0.00    +0.000 A 
ENDBRANCH   9  14
ENDBRANCH   8   9
ENDBRANCH   7   8
ENDBRANCH   1   7
BRANCH   4  17
ATOM     17  C   UNL     1      48.083   6.268  13.883  0.00  0.00    +0.000 C 
BRANCH  17  18
ATOM     18  N   UNL     1      47.969   6.147  15.313  0.00  0.00    +0.000 N 
ATOM     19  C   UNL     1      49.064   6.261  16.130  0.00  0.00    +0.000 C 
ATOM     20  O   UNL     1      50.184   6.508  15.689  0.00  0.00    +0.000 OA
ATOM     21  H   UNL     1      47.120   5.723  15.671  0.00  0.00    +0.000 HD
BRANCH  19  22
ATOM     22  C   UNL     1      48.818   6.133  17.572  0.00  0.00    +0.000 A 
ATOM     23  C   UNL     1      49.034   4.916  18.202  0.00  0.00    +0.000 A 
ATOM     24  S   UNL     1      48.751   4.955  19.884  0.00  0.00    +0.000 S 
ATOM     25  C   UNL     1      48.274   6.588  19.815  0.00  0.00    +0.000 A 
ATOM     26  N   UNL     1      47.874   7.243  20.938  0.00  0.00    +0.000 NA
ATOM     27  C   UNL     1      47.510   8.468  20.743  0.00  0.00    +0.000 A 
ATOM     28  N   UNL     1      47.524   9.097  19.523  0.00  0.00    +0.000 N 
ATOM     29  C   UNL     1      47.951   8.485  18.372  0.00  0.00    +0.000 A 
ATOM     30  O   UNL     1      47.990   9.093  17.306  0.00  0.00    +0.000 OA
ATOM     31  C   UNL     1      48.354   7.102  18.536  0.00  0.00    +0.000 A 
ATOM     32  H   UNL     1      47.235  10.062  19.436  0.00  0.00    +0.000 HD
ENDBRANCH  19  22
ENDBRANCH  17  18
ENDBRANCH   4  17
TORSDOF 7
ENDMDL
MODEL 3
REMARK VINA RESULT:    -8.167      0.894      1.423
REMARK INTER + INTRA:         -12.551
REMARK INTER:                 -11.804
REMARK INTRA:                  -0.747
REMARK UNBOUND:                -1.042
REMARK  Name = 
REMARK  8 active torsions:
REMARK  status: ('A' for Active; 'I' for Inactive)
REMARK    1  A    between atoms: C_1  and  C_2
REMARK    2  A    between atoms: C_5  and  C_6
REMARK    3  A    between atoms: C_6  and  O_7
REMARK    4  A    between atoms: O_7  and  C_8
REMARK    5  A    between atoms: C_8  and  C_9
REMARK    6  A    between atoms: C_12  and  C_13
REMARK    7  A    between atoms: C_13  and  N_14
REMARK    8  A    between atoms: C_15  and  C_17
REMARK                            x       y       z     vdW  Elec       q    Type
REMARK                         _______ _______ _______ _____ _____    ______ ____
ROOT
ATOM      1  C   UNL     1      44.436   5.765  11.932  0.00  0.00    +0.000 A 
ATOM      2  C   UNL     1      45.202   6.871  11.535  0.00  0.00    +0.000 A 
ATOM      3  C   UNL     1      46.419   7.160  12.160  0.00  0.00    +0.000 A 
ATOM      4  C   UNL     1      46.901   6.342  13.190  0.00  0.00    +0.000 A 
ATOM      5  C   UNL     1      46.120   5.258  13.610  0.00  0.00    +0.000 A 
ATOM      6  C   UNL     1      44.903   4.968  12.984  0.00  0.00    +0.000 A 
ENDROOT
BRANCH   1   7
ATOM      7  C   UNL     1      43.139   5.449  11.232  0.00  0.00    +0.000 C 
BRANCH   7   8
ATOM      8  O   UNL     1      43.448   4.823   9.992  0.00  0.00    +0.000 OA
BRANCH   8   9
ATOM      9  C   UNL     1      43.904   3.481  10.164  0.00  0.00    +0.000 C 
BRANCH   9  14
ATOM     10  C   UNL     1      47.848   2.296   6.124  0.00  0.00    +0.000 C 
ATOM     11  C   UNL     1      46.817   2.549   7.177  0.00  0.00    +0.000 A 
ATOM     12  C   UNL     1      46.307   1.521   7.967  0.00  0.00    +0.000 A 
ATOM     13  C   UNL     1      45.357   1.810   8.943  0.00  0.00    +0.000 A 
ATOM     14  C   UNL     1      44.942   3.129   9.120  0.00  0.00    +0.000 A 
ATOM     15  N   UNL     1      45.408   4.141   8.345  0.00  0.00    +0.000 NA
ATOM     16  C   UNL     1      46.329   3.830   7.405  0.00  0.00    +0.000 A 
ENDBRANCH   9  14
ENDBRANCH   8   9
ENDBRANCH   7   8
ENDBRANCH   1   7
BRANCH   4  17
ATOM     17  C   UNL     1      48.216   6.639  13.862  0.00  0.00    +0.000 C 
BRANCH  17  18
ATOM     18  N   UNL     1      48.053   6.760  15.287  0.00  0.00    +0.000 N 
ATOM     19  C   UNL     1      49.119   6.639  16.142  0.00  0.00    +0.000 C 
ATOM     20  O   UNL     1      50.264   6.460  15.735  0.00  0.00    +0.000 OA
ATOM     21  H   UNL     1      47.109   6.678  15.650  0.00  0.00    +0.000 HD
BRANCH  19  22
ATOM     22  C   UNL     1      48.829   6.798  17.573  0.00  0.00    +0.000 A 
ATOM     23  C   UNL     1      48.634   8.067  18.099  0.00  0.00    +0.000 A 
ATOM     24  S   UNL     1      48.256   8.068  19.762  0.00  0.00    +0.000 S 
ATOM     25  C   UNL     1      48.397   6.373  19.846  0.00  0.00    +0.000 A 
ATOM     26  N   UNL     1      48.214   5.718  21.023  0.00  0.00    +0.000 NA
ATOM     27  C   UNL     1      48.379   4.438  20.956  0.00  0.00    +0.000 A 
ATOM     28  N   UNL     1      48.700   3.756  19.809  0.00  0.00    +0.000 N 
ATOM     29  C   UNL     1      48.861   4.373  18.593  0.00  0.00    +0.000 A 
ATOM     30  O   UNL     1      49.105   3.726  17.580  0.00  0.00    +0.000 OA
ATOM     31  C   UNL     1      48.702   5.814  18.621  0.00  0.00    +0.000 A 
ATOM     32  H   UNL     1      48.806   2.751  19.817  0.00  0.00    +0.000 HD
ENDBRANCH  19  22
ENDBRANCH  17  18
ENDBRANCH   4  17
TORSDOF 7
ENDMDL
MODEL 4
REMARK VINA RESULT:    -7.499      2.388      3.226
REMARK INTER + INTRA:         -11.610
REMARK INTER:                 -10.892
REMARK INTRA:                  -0.718
REMARK UNBOUND:                -1.042
REMARK  Name = 
REMARK  8 active torsions:
REMARK  status: ('A' for Active; 'I' for Inactive)
REMARK    1  A    between atoms: C_1  and  C_2
REMARK    2  A    between atoms: C_5  and  C_6
REMARK    3  A    between atoms: C_6  and  O_7
REMARK    4  A    between atoms: O_7  and  C_8
REMARK    5  A    between atoms: C_8  and  C_9
REMARK    6  A    between atoms: C_12  and  C_13
REMARK    7  A    between atoms: C_13  and  N_14
REMARK    8  A    between atoms: C_15  and  C_17
REMARK                            x       y       z     vdW  Elec       q    Type
REMARK                         _______ _______ _______ _____ _____    ______ ____
ROOT
ATOM      1  C   UNL     1      46.650   6.317  12.067  0.00  0.00    +0.000 A 
ATOM      2  C   UNL     1      47.142   7.625  12.187  0.00  0.00    +0.000 A 
ATOM      3  C   UNL     1      47.827   8.030  13.338  0.00  0.00    +0.000 A 
ATOM      4  C   UNL     1      48.042   7.130  14.389  0.00  0.00    +0.000 A 
ATOM      5  C   UNL     1      47.521   5.834  14.284  0.00  0.00    +0.000 A 
ATOM      6  C   UNL     1      46.837   5.429  13.133  0.00  0.00    +0.000 A 
ENDROOT
BRANCH   1   7
ATOM      7  C   UNL     1      45.937   5.886  10.811  0.00  0.00    +0.000 C 
BRANCH   7   8
ATOM      8  O   UNL     1      44.911   4.971  11.178  0.00  0.00    +0.000 OA
BRANCH   8   9
ATOM      9  C   UNL     1      44.163   4.519  10.048  0.00  0.00    +0.000 C 
BRANCH   9  14
ATOM     10  C   UNL     1      47.523   1.624   6.360  0.00  0.00    +0.000 C 
ATOM     11  C   UNL     1      46.635   2.326   7.336  0.00  0.00    +0.000 A 
ATOM     12  C   UNL     1      46.016   1.649   8.385  0.00  0.00    +0.000 A 
ATOM     13  C   UNL     1      45.207   2.350   9.275  0.00  0.00    +0.000 A 
ATOM     14  C   UNL     1      45.041   3.724   9.107  0.00  0.00    +0.000 A 
ATOM     15  N   UNL     1      45.615   4.399   8.078  0.00  0.00    +0.000 NA
ATOM     16  C   UNL     1      46.395   3.691   7.229  0.00  0.00    +0.000 A 
ENDBRANCH   9  14
ENDBRANCH   8   9
ENDBRANCH   7   8
ENDBRANCH   1   7
BRANCH   4  17
ATOM     17  C   UNL     1      48.788   7.552  15.628  0.00  0.00    +0.000 C 
BRANCH  17  18
ATOM     18  N   UNL     1      49.770   6.569  16.002  0.00  0.00    +0.000 N 
ATOM     19  C   UNL     1      50.126   6.376  17.312  0.00  0.00    +0.000 C 
ATOM     20  O   UNL     1      49.602   7.002  18.229  0.00  0.00    +0.000 OA
ATOM     21  H   UNL     1      50.368   6.214  15.263  0.00  0.00    +0.000 HD
BRANCH  19  22
ATOM     22  C   UNL     1      51.128   5.334  17.568  0.00  0.00    +0.000 A 
ATOM     23  C   UNL     1      52.404   5.692  17.981  0.00  0.00    +0.000 A 
ATOM     24  S   UNL     1      53.424   4.359  18.284  0.00  0.00    +0.000 S 
ATOM     25  C   UNL     1      52.211   3.260  17.818  0.00  0.00    +0.000 A 
ATOM     26  N   UNL     1      52.446   1.920  17.825  0.00  0.00    +0.000 NA
ATOM     27  C   UNL     1      51.452   1.200  17.420  0.00  0.00    +0.000 A 
ATOM     28  N   UNL     1      50.239   1.703  17.022  0.00  0.00    +0.000 N 
ATOM     29  C   UNL     1      49.948   3.045  17.032  0.00  0.00    +0.000 A 
ATOM     30  O   UNL     1      48.837   3.455  16.710  0.00  0.00    +0.000 OA
ATOM     31  C   UNL     1      51.039   3.897  17.462  0.00  0.00    +0.000 A 
ATOM     32  H   UNL     1      49.496   1.086  16.724  0.00  0.00    +0.000 HD
ENDBRANCH  19  22
ENDBRANCH  17  18
ENDBRANCH   4  17
TORSDOF 7
ENDMDL
MODEL 5
REMARK VINA RESULT:    -7.108      4.876      6.893
REMARK INTER + INTRA:         -11.060
REMARK INTER:                 -10.042
REMARK INTRA:                  -1.018
REMARK UNBOUND:                -1.042
REMARK  Name = 
REMARK  8 active torsions:
REMARK  status: ('A' for Active; 'I' for Inactive)
REMARK    1  A    between atoms: C_1  and  C_2
REMARK    2  A    between atoms: C_5  and  C_6
REMARK    3  A    between atoms: C_6  and  O_7
REMARK    4  A    between atoms: O_7  and  C_8
REMARK    5  A    between atoms: C_8  and  C_9
REMARK    6  A    between atoms: C_12  and  C_13
REMARK    7  A    between atoms: C_13  and  N_14
REMARK    8  A    between atoms: C_15  and  C_17
REMARK                            x       y       z     vdW  Elec       q    Type
REMARK                         _______ _______ _______ _____ _____    ______ ____
ROOT
ATOM      1  C   UNL     1      46.059   5.632  12.335  0.00  0.00    +0.000 A 
ATOM      2  C   UNL     1      46.598   6.491  11.366  0.00  0.00    +0.000 A 
ATOM      3  C   UNL     1      47.802   7.164  11.597  0.00  0.00    +0.000 A 
ATOM      4  C   UNL     1      48.499   6.982  12.798  0.00  0.00    +0.000 A 
ATOM      5  C   UNL     1      47.944   6.150  13.779  0.00  0.00    +0.000 A 
ATOM      6  C   UNL     1      46.739   5.477  13.549  0.00  0.00    +0.000 A 
ENDROOT
BRANCH   1   7
ATOM      7  C   UNL     1      44.774   4.893  12.064  0.00  0.00    +0.000 C 
BRANCH   7   8
ATOM      8  O   UNL     1      44.376   5.174  10.727  0.00  0.00    +0.000 OA
BRANCH   8   9
ATOM      9  C   UNL     1      43.882   4.014  10.057  0.00  0.00    +0.000 C 
BRANCH   9  14
ATOM     10  C   UNL     1      47.852   2.059   6.355  0.00  0.00    +0.000 C 
ATOM     11  C   UNL     1      46.808   2.514   7.325  0.00  0.00    +0.000 A 
ATOM     12  C   UNL     1      46.154   1.622   8.171  0.00  0.00    +0.000 A 
ATOM     13  C   UNL     1      45.197   2.096   9.065  0.00  0.00    +0.000 A 
ATOM     14  C   UNL     1      44.921   3.462   9.105  0.00  0.00    +0.000 A 
ATOM     15  N   UNL     1      45.529   4.345   8.273  0.00  0.00    +0.000 NA
ATOM     16  C   UNL     1      46.453   3.854   7.414  0.00  0.00    +0.000 A 
ENDBRANCH   9  14
ENDBRANCH   8   9
ENDBRANCH   7   8
ENDBRANCH   1   7
BRANCH   4  17
ATOM     17  C   UNL     1      49.802   7.693  13.051  0.00  0.00    +0.000 C 
BRANCH  17  18
ATOM     18  N   UNL     1      50.367   8.192  11.825  0.00  0.00    +0.000 N 
ATOM     19  C   UNL     1      51.690   8.541  11.736  0.00  0.00    +0.000 C 
ATOM     20  O   UNL     1      52.463   8.412  12.682  0.00  0.00    +0.000 OA
ATOM     21  H   UNL     1      49.715   8.518  11.119  0.00  0.00    +0.000 HD
BRANCH  19  22
ATOM     22  C   UNL     1      52.152   9.022  10.428  0.00  0.00    +0.000 A 
ATOM     23  C   UNL     1      52.023  10.365  10.104  0.00  0.00    +0.000 A 
ATOM     24  S   UNL     1      52.656  10.763   8.570  0.00  0.00    +0.000 S 
ATOM     25  C   UNL     1      53.071   9.141   8.265  0.00  0.00    +0.000 A 
ATOM     26  N   UNL     1      53.645   8.780   7.087  0.00  0.00    +0.000 NA
ATOM     27  C   UNL     1      53.882   7.515   6.971  0.00  0.00    +0.000 A 
ATOM     28  N   UNL     1      53.604   6.581   7.937  0.00  0.00    +0.000 N 
ATOM     29  C   UNL     1      53.055   6.905   9.153  0.00  0.00    +0.000 A 
ATOM     30  O   UNL     1      52.860   6.049  10.011  0.00  0.00    +0.000 OA
ATOM     31  C   UNL     1      52.755   8.314   9.325  0.00  0.00    +0.000 A 
ATOM     32  H   UNL     1      53.821   5.605   7.791  0.00  0.00    +0.000 HD
ENDBRANCH  19  22
ENDBRANCH  17  18
ENDBRANCH   4  17
TORSDOF 7
ENDMDL
MODEL 6
REMARK VINA RESULT:    -7.077      2.861      8.973
REMARK INTER + INTRA:         -11.015
REMARK INTER:                  -9.562
REMARK INTRA:                  -1.453
REMARK UNBOUND:                -1.042
REMARK  Name = 
REMARK  8 active torsions:
REMARK  status: ('A' for Active; 'I' for Inactive)
REMARK    1  A    between atoms: C_1  and  C_2
REMARK    2  A    between atoms: C_5  and  C_6
REMARK    3  A    between atoms: C_6  and  O_7
REMARK    4  A    between atoms: O_7  and  C_8
REMARK    5  A    between atoms: C_8  and  C_9
REMARK    6  A    between atoms: C_12  and  C_13
REMARK    7  A    between atoms: C_13  and  N_14
REMARK    8  A    between atoms: C_15  and  C_17
REMARK                            x       y       z     vdW  Elec       q    Type
REMARK                         _______ _______ _______ _____ _____    ______ ____
ROOT
ATOM      1  C   UNL     1      48.786   8.045  16.126  0.00  0.00    +0.000 A 
ATOM      2  C   UNL     1      48.098   9.114  15.534  0.00  0.00    +0.000 A 
ATOM      3  C   UNL     1      47.667   9.039  14.205  0.00  0.00    +0.000 A 
ATOM      4  C   UNL     1      47.906   7.888  13.444  0.00  0.00    +0.000 A 
ATOM      5  C   UNL     1      48.622   6.834  14.025  0.00  0.00    +0.000 A 
ATOM      6  C   UNL     1      49.053   6.908  15.354  0.00  0.00    +0.000 A 
ENDROOT
BRANCH   1   7
ATOM      7  C   UNL     1      49.222   8.128  17.566  0.00  0.00    +0.000 C 
BRANCH   7   8
ATOM      8  O   UNL     1      48.080   7.907  18.387  0.00  0.00    +0.000 OA
BRANCH   8   9
ATOM      9  C   UNL     1      48.276   6.828  19.302  0.00  0.00    +0.000 C 
BRANCH   9  14
ATOM     10  C   UNL     1      49.057   1.851  16.491  0.00  0.00    +0.000 C 
ATOM     11  C   UNL     1      48.804   3.144  17.199  0.00  0.00    +0.000 A 
ATOM     12  C   UNL     1      47.531   3.702  17.272  0.00  0.00    +0.000 A 
ATOM     13  C   UNL     1      47.344   4.903  17.953  0.00  0.00    +0.000 A 
ATOM     14  C   UNL     1      48.437   5.518  18.561  0.00  0.00    +0.000 A 
ATOM     15  N   UNL     1      49.691   5.003  18.480  0.00  0.00    +0.000 NA
ATOM     16  C   UNL     1      49.841   3.836  17.812  0.00  0.00    +0.000 A 
ENDBRANCH   9  14
ENDBRANCH   8   9
ENDBRANCH   7   8
ENDBRANCH   1   7
BRANCH   4  17
ATOM     17  C   UNL     1      47.435   7.793  12.016  0.00  0.00    +0.000 C 
BRANCH  17  18
ATOM     18  N   UNL     1      46.772   6.540  11.771  0.00  0.00    +0.000 N 
ATOM     19  C   UNL     1      45.404   6.443  11.764  0.00  0.00    +0.000 C 
ATOM     20  O   UNL     1      44.681   7.422  11.928  0.00  0.00    +0.000 OA
ATOM     21  H   UNL     1      47.333   5.699  11.863  0.00  0.00    +0.000 HD
BRANCH  19  22
ATOM     22  C   UNL     1      44.846   5.114  11.487  0.00  0.00    +0.000 A 
ATOM     23  C   UNL     1      44.127   4.451  12.472  0.00  0.00    +0.000 A 
ATOM     24  S   UNL     1      43.506   2.944  11.969  0.00  0.00    +0.000 S 
ATOM     25  C   UNL     1      44.226   3.103  10.434  0.00  0.00    +0.000 A 
ATOM     26  N   UNL     1      44.097   2.123   9.501  0.00  0.00    +0.000 NA
ATOM     27  C   UNL     1      44.717   2.355   8.391  0.00  0.00    +0.000 A 
ATOM     28  N   UNL     1      45.444   3.489   8.130  0.00  0.00    +0.000 N 
ATOM     29  C   UNL     1      45.572   4.518   9.030  0.00  0.00    +0.000 A 
ATOM     30  O   UNL     1      46.194   5.537   8.746  0.00  0.00    +0.000 OA
ATOM     31  C   UNL     1      44.907   4.297  10.299  0.00  0.00    +0.000 A 
ATOM     32  H   UNL     1      45.899   3.617   7.237  0.00  0.00    +0.000 HD
ENDBRANCH  19  22
ENDBRANCH  17  18
ENDBRANCH   4  17
TORSDOF 7
ENDMDL
MODEL 7
REMARK VINA RESULT:    -7.066      5.148      9.513
REMARK INTER + INTRA:         -11.000
REMARK INTER:                 -10.021
REMARK INTRA:                  -0.979
REMARK UNBOUND:                -1.042
REMARK  Name = 
REMARK  8 active torsions:
REMARK  status: ('A' for Active; 'I' for Inactive)
REMARK    1  A    between atoms: C_1  and  C_2
REMARK    2  A    between atoms: C_5  and  C_6
REMARK    3  A    between atoms: C_6  and  O_7
REMARK    4  A    between atoms: O_7  and  C_8
REMARK    5  A    between atoms: C_8  and  C_9
REMARK    6  A    between atoms: C_12  and  C_13
REMARK    7  A    between atoms: C_13  and  N_14
REMARK    8  A    between atoms: C_15  and  C_17
REMARK                            x       y       z     vdW  Elec       q    Type
REMARK                         _______ _______ _______ _____ _____    ______ ____
ROOT
ATOM      1  C   UNL     1      51.023   2.310  17.489  0.00  0.00    +0.000 A 
ATOM      2  C   UNL     1      51.684   3.547  17.537  0.00  0.00    +0.000 A 
ATOM      3  C   UNL     1      50.971   4.744  17.414  0.00  0.00    +0.000 A 
ATOM      4  C   UNL     1      49.581   4.729  17.250  0.00  0.00    +0.000 A 
ATOM      5  C   UNL     1      48.925   3.494  17.168  0.00  0.00    +0.000 A 
ATOM      6  C   UNL     1      49.637   2.297  17.292  0.00  0.00    +0.000 A 
ENDROOT
BRANCH   1   7
ATOM      7  C   UNL     1      51.799   1.028  17.649  0.00  0.00    +0.000 C 
BRANCH   7   8
ATOM      8  O   UNL     1      53.161   1.293  17.333  0.00  0.00    +0.000 OA
BRANCH   8   9
ATOM      9  C   UNL     1      54.051   0.819  18.344  0.00  0.00    +0.000 C 
BRANCH   9  14
ATOM     10  C   UNL     1      54.871  -4.879  17.960  0.00  0.00    +0.000 C 
ATOM     11  C   UNL     1      54.691  -3.396  18.016  0.00  0.00    +0.000 A 
ATOM     12  C   UNL     1      55.111  -2.566  16.979  0.00  0.00    +0.000 A 
ATOM     13  C   UNL     1      54.910  -1.192  17.072  0.00  0.00    +0.000 A 
ATOM     14  C   UNL     1      54.279  -0.671  18.201  0.00  0.00    +0.000 A 
ATOM     15  N   UNL     1      53.884  -1.459  19.234  0.00  0.00    +0.000 NA
ATOM     16  C   UNL     1      54.093  -2.790  19.115  0.00  0.00    +0.000 A 
ENDBRANCH   9  14
ENDBRANCH   8   9
ENDBRANCH   7   8
ENDBRANCH   1   7
BRANCH   4  17
ATOM     17  C   UNL     1      48.803   6.014  17.128  0.00  0.00    +0.000 C 
BRANCH  17  18
ATOM     18  N   UNL     1      47.900   5.968  16.008  0.00  0.00    +0.000 N 
ATOM     19  C   UNL     1      48.300   6.344  14.751  0.00  0.00    +0.000 C 
ATOM     20  O   UNL     1      49.451   6.700  14.512  0.00  0.00    +0.000 OA
ATOM     21  H   UNL     1      46.910   5.902  16.219  0.00  0.00    +0.000 HD
BRANCH  19  22
ATOM     22  C   UNL     1      47.292   6.239  13.688  0.00  0.00    +0.000 A 
ATOM     23  C   UNL     1      46.870   7.382  13.025  0.00  0.00    +0.000 A 
ATOM     24  S   UNL     1      45.738   7.076  11.786  0.00  0.00    +0.000 S 
ATOM     25  C   UNL     1      45.733   5.409  12.133  0.00  0.00    +0.000 A 
ATOM     26  N   UNL     1      44.939   4.556  11.434  0.00  0.00    +0.000 NA
ATOM     27  C   UNL     1      45.007   3.324  11.818  0.00  0.00    +0.000 A 
ATOM     28  N   UNL     1      45.811   2.870  12.834  0.00  0.00    +0.000 N 
ATOM     29  C   UNL     1      46.652   3.691  13.543  0.00  0.00    +0.000 A 
ATOM     30  O   UNL     1      47.389   3.243  14.416  0.00  0.00    +0.000 OA
ATOM     31  C   UNL     1      46.599   5.088  13.160  0.00  0.00    +0.000 A 
ATOM     32  H   UNL     1      45.828   1.891  13.082  0.00  0.00    +0.000 HD
ENDBRANCH  19  22
ENDBRANCH  17  18
ENDBRANCH   4  17
TORSDOF 7
ENDMDL
MODEL 8
REMARK VINA RESULT:    -6.960      3.206      4.266
REMARK INTER + INTRA:         -10.850
REMARK INTER:                  -9.979
REMARK INTRA:                  -0.871
REMARK UNBOUND:                -1.042
REMARK  Name = 
REMARK  8 active torsions:
REMARK  status: ('A' for Active; 'I' for Inactive)
REMARK    1  A    between atoms: C_1  and  C_2
REMARK    2  A    between atoms: C_5  and  C_6
REMARK    3  A    between atoms: C_6  and  O_7
REMARK    4  A    between atoms: O_7  and  C_8
REMARK    5  A    between atoms: C_8  and  C_9
REMARK    6  A    between atoms: C_12  and  C_13
REMARK    7  A    between atoms: C_13  and  N_14
REMARK    8  A    between atoms: C_15  and  C_17
REMARK                            x       y       z     vdW  Elec       q    Type
REMARK                         _______ _______ _______ _____ _____    ______ ____
ROOT
ATOM      1  C   UNL     1      46.959   5.605  13.407  0.00  0.00    +0.000 A 
ATOM      2  C   UNL     1      47.888   6.498  13.960  0.00  0.00    +0.000 A 
ATOM      3  C   UNL     1      48.399   6.292  15.246  0.00  0.00    +0.000 A 
ATOM      4  C   UNL     1      47.999   5.182  16.000  0.00  0.00    +0.000 A 
ATOM      5  C   UNL     1      47.046   4.309  15.461  0.00  0.00    +0.000 A 
ATOM      6  C   UNL     1      46.535   4.514  14.175  0.00  0.00    +0.000 A 
ENDROOT
BRANCH   1   7
ATOM      7  C   UNL     1      46.435   5.823  12.010  0.00  0.00    +0.000 C 
BRANCH   7   8
ATOM      8  O   UNL     1      45.315   4.966  11.820  0.00  0.00    +0.000 OA
BRANCH   8   9
ATOM      9  C   UNL     1      44.690   5.170  10.552  0.00  0.00    +0.000 C 
BRANCH   9  14
ATOM     10  C   UNL     1      46.966   1.580   6.652  0.00  0.00    +0.000 C 
ATOM     11  C   UNL     1      46.404   2.552   7.639  0.00  0.00    +0.000 A 
ATOM     12  C   UNL     1      46.536   3.928   7.471  0.00  0.00    +0.000 A 
ATOM     13  C   UNL     1      45.984   4.793   8.413  0.00  0.00    +0.000 A 
ATOM     14  C   UNL     1      45.296   4.263   9.503  0.00  0.00    +0.000 A 
ATOM     15  N   UNL     1      45.176   2.925   9.699  0.00  0.00    +0.000 NA
ATOM     16  C   UNL     1      45.724   2.110   8.768  0.00  0.00    +0.000 A 
ENDBRANCH   9  14
ENDBRANCH   8   9
ENDBRANCH   7   8
ENDBRANCH   1   7
BRANCH   4  17
ATOM     17  C   UNL     1      48.553   4.945  17.381  0.00  0.00    +0.000 C 
BRANCH  17  18
ATOM     18  N   UNL     1      49.887   4.407  17.320  0.00  0.00    +0.000 N 
ATOM     19  C   UNL     1      50.796   4.633  18.321  0.00  0.00    +0.000 C 
ATOM     20  O   UNL     1      50.509   5.269  19.331  0.00  0.00    +0.000 OA
ATOM     21  H   UNL     1      50.210   4.085  16.413  0.00  0.00    +0.000 HD
BRANCH  19  22
ATOM     22  C   UNL     1      52.119   4.018  18.150  0.00  0.00    +0.000 A 
ATOM     23  C   UNL     1      53.261   4.787  18.322  0.00  0.00    +0.000 A 
ATOM     24  S   UNL     1      54.712   3.907  18.139  0.00  0.00    +0.000 S 
ATOM     25  C   UNL     1      53.859   2.482  17.768  0.00  0.00    +0.000 A 
ATOM     26  N   UNL     1      54.522   1.331  17.478  0.00  0.00    +0.000 NA
ATOM     27  C   UNL     1      53.758   0.331  17.184  0.00  0.00    +0.000 A 
ATOM     28  N   UNL     1      52.386   0.381  17.169  0.00  0.00    +0.000 N 
ATOM     29  C   UNL     1      51.676   1.511  17.487  0.00  0.00    +0.000 A 
ATOM     30  O   UNL     1      50.449   1.507  17.505  0.00  0.00    +0.000 OA
ATOM     31  C   UNL     1      52.491   2.667  17.808  0.00  0.00    +0.000 A 
ATOM     32  H   UNL     1      51.841  -0.440  16.940  0.00  0.00    +0.000 HD
ENDBRANCH  19  22
ENDBRANCH  17  18
ENDBRANCH   4  17
TORSDOF 7
ENDMDL
MODEL 9
REMARK VINA RESULT:    -6.413      4.774      8.401
REMARK INTER + INTRA:         -10.080
REMARK INTER:                  -9.161
REMARK INTRA:                  -0.919
REMARK UNBOUND:                -1.042
REMARK  Name = 
REMARK  8 active torsions:
REMARK  status: ('A' for Active; 'I' for Inactive)
REMARK    1  A    between atoms: C_1  and  C_2
REMARK    2  A    between atoms: C_5  and  C_6
REMARK    3  A    between atoms: C_6  and  O_7
REMARK    4  A    between atoms: O_7  and  C_8
REMARK    5  A    between atoms: C_8  and  C_9
REMARK    6  A    between atoms: C_12  and  C_13
REMARK    7  A    between atoms: C_13  and  N_14
REMARK    8  A    between atoms: C_15  and  C_17
REMARK                            x       y       z     vdW  Elec       q    Type
REMARK                         _______ _______ _______ _____ _____    ______ ____
ROOT
ATOM      1  C   UNL     1      50.264   8.956  11.350  0.00  0.00    +0.000 A 
ATOM      2  C   UNL     1      49.294   9.954  11.521  0.00  0.00    +0.000 A 
ATOM      3  C   UNL     1      48.042   9.649  12.067  0.00  0.00    +0.000 A 
ATOM      4  C   UNL     1      47.740   8.341  12.464  0.00  0.00    +0.000 A 
ATOM      5  C   UNL     1      48.696   7.337  12.261  0.00  0.00    +0.000 A 
ATOM      6  C   UNL     1      49.948   7.642  11.715  0.00  0.00    +0.000 A 
ENDROOT
BRANCH   1   7
ATOM      7  C   UNL     1      51.618   9.301  10.785  0.00  0.00    +0.000 C 
BRANCH   7   8
ATOM      8  O   UNL     1      52.523   8.261  11.138  0.00  0.00    +0.000 OA
BRANCH   8   9
ATOM      9  C   UNL     1      53.727   8.312  10.372  0.00  0.00    +0.000 C 
BRANCH   9  14
ATOM     10  C   UNL     1      53.756   4.173   6.353  0.00  0.00    +0.000 C 
ATOM     11  C   UNL     1      53.759   5.207   7.433  0.00  0.00    +0.000 A 
ATOM     12  C   UNL     1      54.221   4.927   8.716  0.00  0.00    +0.000 A 
ATOM     13  C   UNL     1      54.215   5.928   9.684  0.00  0.00    +0.000 A 
ATOM     14  C   UNL     1      53.757   7.200   9.345  0.00  0.00    +0.000 A 
ATOM     15  N   UNL     1      53.280   7.488   8.107  0.00  0.00    +0.000 NA
ATOM     16  C   UNL     1      53.298   6.495   7.188  0.00  0.00    +0.000 A 
ENDBRANCH   9  14
ENDBRANCH   8   9
ENDBRANCH   7   8
ENDBRANCH   1   7
BRANCH   4  17
ATOM     17  C   UNL     1      46.399   8.005  13.063  0.00  0.00    +0.000 C 
BRANCH  17  18
ATOM     18  N   UNL     1      45.962   6.696  12.654  0.00  0.00    +0.000 N 
ATOM     19  C   UNL     1      44.891   6.529  11.815  0.00  0.00    +0.000 C 
ATOM     20  O   UNL     1      44.278   7.482  11.343  0.00  0.00    +0.000 OA
ATOM     21  H   UNL     1      46.298   5.909  13.201  0.00  0.00    +0.000 HD
BRANCH  19  22
ATOM     22  C   UNL     1      44.552   5.145  11.458  0.00  0.00    +0.000 A 
ATOM     23  C   UNL     1      43.806   4.372  12.336  0.00  0.00    +0.000 A 
ATOM     24  S   UNL     1      43.457   2.810  11.745  0.00  0.00    +0.000 S 
ATOM     25  C   UNL     1      44.341   3.097  10.319  0.00  0.00    +0.000 A 
ATOM     26  N   UNL     1      44.463   2.131   9.370  0.00  0.00    +0.000 NA
ATOM     27  C   UNL     1      45.184   2.468   8.352  0.00  0.00    +0.000 A 
ATOM     28  N   UNL     1      45.784   3.693   8.196  0.00  0.00    +0.000 N 
ATOM     29  C   UNL     1      45.659   4.707   9.112  0.00  0.00    +0.000 A 
ATOM     30  O   UNL     1      46.174   5.804   8.919  0.00  0.00    +0.000 OA
ATOM     31  C   UNL     1      44.872   4.372  10.283  0.00  0.00    +0.000 A 
ATOM     32  H   UNL     1      46.329   3.900   7.371  0.00  0.00    +0.000 HD
ENDBRANCH  19  22
ENDBRANCH  17  18
ENDBRANCH   4  17
TORSDOF 7
ENDMDL
