MODEL 1
REMARK VINA RESULT:    -7.257      0.000      0.000
REMARK INTER + INTRA:          -9.353
REMARK INTER:                  -8.953
REMARK INTRA:                  -0.399
REMARK UNBOUND:                -0.399
REMARK  Name = 
REMARK  5 active torsions:
REMARK  status: ('A' for Active; 'I' for Inactive)
REMARK    1  A    between atoms: C_1  and  O_2
REMARK    2  A    between atoms: O_2  and  C_3
REMARK    3  A    between atoms: C_3  and  C_5
REMARK    4  A    between atoms: N_9  and  C_10
REMARK    5  A    between atoms: C_10  and  C_11
REMARK                            x       y       z     vdW  Elec       q    Type
REMARK                         _______ _______ _______ _____ _____    ______ ____
ROOT
ATOM      1  C   UNL     1      46.617   4.944  13.553  0.00  0.00    +0.000 A 
ATOM      2  C   UNL     1      46.991   5.826  12.566  0.00  0.00    +0.000 A 
ATOM      3  N   UNL     1      46.379   5.904  11.359  0.00  0.00    +0.000 NA
ATOM      4  C   UNL     1      45.354   5.069  11.139  0.00  0.00    +0.000 A 
ATOM      5  N   UNL     1      44.681   5.225   9.945  0.00  0.00    +0.000 N 
ATOM      6  N   UNL     1      44.933   4.160  12.030  0.00  0.00    +0.000 NA
ATOM      7  C   UNL     1      45.570   4.119  13.221  0.00  0.00    +0.000 A 
ATOM      8  H   UNL     1      45.254   5.787   9.326  0.00  0.00    +0.000 HD
ENDROOT
BRANCH   1   9
ATOM      9  C   UNL     1      47.304   4.919  14.852  0.00  0.00    +0.000 C 
ATOM     10  O   UNL     1      48.240   5.647  15.134  0.00  0.00    +0.000 OA
BRANCH   9  12
ATOM     11  C   UNL     1      47.180   4.012  17.011  0.00  0.00    +0.000 C 
ATOM     12  O   UNL     1      46.743   3.981  15.651  0.00  0.00    +0.000 OA
ENDBRANCH   9  12
ENDBRANCH   1   9
BRANCH   5  13
ATOM     13  C   UNL     1      44.112   4.028   9.362  0.00  0.00    +0.000 C 
BRANCH  13  14
ATOM     14  C   UNL     1      45.189   3.256   8.649  0.00  0.00    +0.000 A 
ATOM     15  C   UNL     1      46.009   3.872   7.694  0.00  0.00    +0.000 A 
ATOM     16  C   UNL     1      46.970   3.128   7.020  0.00  0.00    +0.000 A 
ATOM     17  C   UNL     1      47.081   1.781   7.320  0.00  0.00    +0.000 A 
ATOM     18  N   UNL     1      46.307   1.146   8.227  0.00  0.00    +0.000 NA
ATOM     19  C   UNL     1      45.380   1.897   8.867  0.00  0.00    +0.000 A 
ENDBRANCH  13  14
ENDBRANCH   5  13
TORSDOF 4
ENDMDL
MODEL 2
REMARK VINA RESULT:    -6.736      3.450      6.453
REMARK INTER + INTRA:          -8.710
REMARK INTER:                  -8.493
REMARK INTRA:                  -0.217
REMARK UNBOUND:                -0.399
REMARK  Name = 
REMARK  5 active torsions:
REMARK  status: ('A' for Active; 'I' for Inactive)
REMARK    1  A    between atoms: C_1  and  O_2
REMARK    2  A    between atoms: O_2  and  C_3
REMARK    3  A    between atoms: C_3  and  C_5
REMARK    4  A    between atoms: N_9  and  C_10
REMARK    5  A    between atoms: C_10  and  C_11
REMARK                            x       y       z     vdW  Elec       q    Type
REMARK                         _______ _______ _______ _____ _____    ______ ____
ROOT
ATOM      1  C   UNL     1      46.316   2.322   7.930  0.00  0.00    +0.000 A 
ATOM      2  C   UNL     1      45.365   1.800   8.776  0.00  0.00    +0.000 A 
ATOM      3  N   UNL     1      44.544   2.561   9.540  0.00  0.00    +0.000 NA
ATOM      4  C   UNL     1      44.681   3.890   9.448  0.00  0.00    +0.000 A 
ATOM      5  N   UNL     1      43.775   4.651  10.158  0.00  0.00    +0.000 N 
ATOM      6  N   UNL     1      45.593   4.490   8.670  0.00  0.00    +0.000 NA
ATOM      7  C   UNL     1      46.390   3.694   7.923  0.00  0.00    +0.000 A 
ATOM      8  H   UNL     1      43.319   4.054  10.837  0.00  0.00    +0.000 HD
ENDROOT
BRANCH   1   9
ATOM      9  C   UNL     1      47.164   1.449   7.108  0.00  0.00    +0.000 C 
ATOM     10  O   UNL     1      46.991   0.247   6.999  0.00  0.00    +0.000 OA
BRANCH   9  12
ATOM     11  C   UNL     1      47.934   2.439   5.125  0.00  0.00    +0.000 C 
ATOM     12  O   UNL     1      48.139   2.179   6.515  0.00  0.00    +0.000 OA
ENDBRANCH   9  12
ENDBRANCH   1   9
BRANCH   5  13
ATOM     13  C   UNL     1      44.252   5.923  10.659  0.00  0.00    +0.000 C 
BRANCH  13  14
ATOM     14  C   UNL     1      45.190   5.689  11.812  0.00  0.00    +0.000 A 
ATOM     15  C   UNL     1      46.457   6.284  11.846  0.00  0.00    +0.000 A 
ATOM     16  C   UNL     1      47.321   6.021  12.903  0.00  0.00    +0.000 A 
ATOM     17  C   UNL     1      46.891   5.161  13.898  0.00  0.00    +0.000 A 
ATOM     18  N   UNL     1      45.681   4.560  13.901  0.00  0.00    +0.000 NA
ATOM     19  C   UNL     1      44.862   4.836  12.859  0.00  0.00    +0.000 A 
ENDBRANCH  13  14
ENDBRANCH   5  13
TORSDOF 4
ENDMDL
MODEL 3
REMARK VINA RESULT:    -6.604      1.978      2.661
REMARK INTER + INTRA:          -8.548
REMARK INTER:                  -8.363
REMARK INTRA:                  -0.184
REMARK UNBOUND:                -0.399
REMARK  Name = 
REMARK  5 active torsions:
REMARK  status: ('A' for Active; 'I' for Inactive)
REMARK    1  A    between atoms: C_1  and  O_2
REMARK    2  A    between atoms: O_2  and  C_3
REMARK    3  A    between atoms: C_3  and  C_5
REMARK    4  A    between atoms: N_9  and  C_10
REMARK    5  A    between atoms: C_10  and  C_11
REMARK                            x       y       z     vdW  Elec       q    Type
REMARK                         _______ _______ _______ _____ _____    ______ ____
ROOT
ATOM      1  C   UNL     1      45.696   6.194  12.228  0.00  0.00    +0.000 A 
ATOM      2  C   UNL     1      45.316   5.076  12.933  0.00  0.00    +0.000 A 
ATOM      3  N   UNL     1      45.058   3.877  12.354  0.00  0.00    +0.000 NA
ATOM      4  C   UNL     1      45.191   3.801  11.023  0.00  0.00    +0.000 A 
ATOM      5  N   UNL     1      45.018   2.553  10.460  0.00  0.00    +0.000 N 
ATOM      6  N   UNL     1      45.534   4.842  10.250  0.00  0.00    +0.000 NA
ATOM      7  C   UNL     1      45.785   6.016  10.869  0.00  0.00    +0.000 A 
ATOM      8  H   UNL     1      44.563   1.956  11.140  0.00  0.00    +0.000 HD
ENDROOT
BRANCH   1   9
ATOM      9  C   UNL     1      45.985   7.462  12.912  0.00  0.00    +0.000 C 
ATOM     10  O   UNL     1      45.291   8.458  12.808  0.00  0.00    +0.000 OA
BRANCH   9  12
ATOM     11  C   UNL     1      48.328   7.576  12.929  0.00  0.00    +0.000 C 
ATOM     12  O   UNL     1      47.116   7.341  13.648  0.00  0.00    +0.000 OA
ENDBRANCH   9  12
ENDBRANCH   1   9
BRANCH   5  13
ATOM     13  C   UNL     1      44.466   2.519   9.122  0.00  0.00    +0.000 C 
BRANCH  13  14
ATOM     14  C   UNL     1      45.579   2.341   8.124  0.00  0.00    +0.000 A 
ATOM     15  C   UNL     1      45.856   3.325   7.167  0.00  0.00    +0.000 A 
ATOM     16  C   UNL     1      46.863   3.120   6.231  0.00  0.00    +0.000 A 
ATOM     17  C   UNL     1      47.565   1.929   6.278  0.00  0.00    +0.000 A 
ATOM     18  N   UNL     1      47.326   0.950   7.179  0.00  0.00    +0.000 NA
ATOM     19  C   UNL     1      46.339   1.179   8.077  0.00  0.00    +0.000 A 
ENDBRANCH  13  14
ENDBRANCH   5  13
TORSDOF 4
ENDMDL
MODEL 4
REMARK VINA RESULT:    -6.149      3.351      7.012
REMARK INTER + INTRA:          -7.987
REMARK INTER:                  -7.653
REMARK INTRA:                  -0.333
REMARK UNBOUND:                -0.399
REMARK  Name = 
REMARK  5 active torsions:
REMARK  status: ('A' for Active; 'I' for Inactive)
REMARK    1  A    between atoms: C_1  and  O_2
REMARK    2  A    between atoms: O_2  and  C_3
REMARK    3  A    between atoms: C_3  and  C_5
REMARK    4  A    between atoms: N_9  and  C_10
REMARK    5  A    between atoms: C_10  and  C_11
REMARK                            x       y       z     vdW  Elec       q    Type
REMARK                         _______ _______ _______ _____ _____    ______ ____
ROOT
ATOM      1  C   UNL     1      44.994   4.460  11.692  0.00  0.00    +0.000 A 
ATOM      2  C   UNL     1      45.402   5.704  12.115  0.00  0.00    +0.000 A 
ATOM      3  N   UNL     1      46.112   5.913  13.250  0.00  0.00    +0.000 NA
ATOM      4  C   UNL     1      46.427   4.836  13.981  0.00  0.00    +0.000 A 
ATOM      5  N   UNL     1      47.231   5.054  15.081  0.00  0.00    +0.000 N 
ATOM      6  N   UNL     1      46.055   3.588  13.662  0.00  0.00    +0.000 NA
ATOM      7  C   UNL     1      45.350   3.424  12.521  0.00  0.00    +0.000 A 
ATOM      8  H   UNL     1      47.229   6.046  15.286  0.00  0.00    +0.000 HD
ENDROOT
BRANCH   1   9
ATOM      9  C   UNL     1      44.245   4.290  10.439  0.00  0.00    +0.000 C 
ATOM     10  O   UNL     1      43.379   5.060  10.062  0.00  0.00    +0.000 OA
BRANCH   9  12
ATOM     11  C   UNL     1      44.945   3.342   8.411  0.00  0.00    +0.000 C 
ATOM     12  O   UNL     1      44.662   3.171   9.801  0.00  0.00    +0.000 OA
ENDBRANCH   9  12
ENDBRANCH   1   9
BRANCH   5  13
ATOM     13  C   UNL     1      47.027   4.177  16.215  0.00  0.00    +0.000 C 
BRANCH  13  14
ATOM     14  C   UNL     1      48.349   3.600  16.647  0.00  0.00    +0.000 A 
ATOM     15  C   UNL     1      49.255   4.356  17.401  0.00  0.00    +0.000 A 
ATOM     16  C   UNL     1      50.486   3.815  17.755  0.00  0.00    +0.000 A 
ATOM     17  C   UNL     1      50.777   2.528  17.337  0.00  0.00    +0.000 A 
ATOM     18  N   UNL     1      49.936   1.768  16.602  0.00  0.00    +0.000 NA
ATOM     19  C   UNL     1      48.745   2.322  16.274  0.00  0.00    +0.000 A 
ENDBRANCH  13  14
ENDBRANCH   5  13
TORSDOF 4
ENDMDL
MODEL 5
REMARK VINA RESULT:    -6.068      1.666      2.421
REMARK INTER + INTRA:          -7.887
REMARK INTER:                  -7.816
REMARK INTRA:                  -0.070
REMARK UNBOUND:                -0.399
REMARK  Name = 
REMARK  5 active torsions:
REMARK  status: ('A' for Active; 'I' for Inactive)
REMARK    1  A    between atoms: C_1  and  O_2
REMARK    2  A    between atoms: O_2  and  C_3
REMARK    3  A    between atoms: C_3  and  C_5
REMARK    4  A    between atoms: N_9  and  C_10
REMARK    5  A    between atoms: C_10  and  C_11
REMARK                            x       y       z     vdW  Elec       q    Type
REMARK                         _______ _______ _______ _____ _____    ______ ____
ROOT
ATOM      1  C   UNL     1      47.350   5.947  13.803  0.00  0.00    +0.000 A 
ATOM      2  C   UNL     1      46.858   4.844  14.461  0.00  0.00    +0.000 A 
ATOM      3  N   UNL     1      46.085   3.901  13.869  0.00  0.00    +0.000 NA
ATOM      4  C   UNL     1      45.800   4.072  12.571  0.00  0.00    +0.000 A 
ATOM      5  N   UNL     1      45.093   3.057  11.959  0.00  0.00    +0.000 N 
ATOM      6  N   UNL     1      46.214   5.125  11.853  0.00  0.00    +0.000 NA
ATOM      7  C   UNL     1      46.986   6.039  12.482  0.00  0.00    +0.000 A 
ATOM      8  H   UNL     1      44.689   2.471  12.679  0.00  0.00    +0.000 HD
ENDROOT
BRANCH   1   9
ATOM      9  C   UNL     1      48.203   6.925  14.491  0.00  0.00    +0.000 C 
ATOM     10  O   UNL     1      47.956   8.117  14.543  0.00  0.00    +0.000 OA
BRANCH   9  12
ATOM     11  C   UNL     1      49.499   6.583  16.417  0.00  0.00    +0.000 C 
ATOM     12  O   UNL     1      49.275   6.300  15.034  0.00  0.00    +0.000 OA
ENDBRANCH   9  12
ENDBRANCH   1   9
BRANCH   5  13
ATOM     13  C   UNL     1      44.199   3.447  10.889  0.00  0.00    +0.000 C 
BRANCH  13  14
ATOM     14  C   UNL     1      44.902   3.293   9.567  0.00  0.00    +0.000 A 
ATOM     15  C   UNL     1      45.346   2.041   9.125  0.00  0.00    +0.000 A 
ATOM     16  C   UNL     1      46.028   1.931   7.919  0.00  0.00    +0.000 A 
ATOM     17  C   UNL     1      46.251   3.085   7.188  0.00  0.00    +0.000 A 
ATOM     18  N   UNL     1      45.847   4.313   7.580  0.00  0.00    +0.000 NA
ATOM     19  C   UNL     1      45.186   4.388   8.759  0.00  0.00    +0.000 A 
ENDBRANCH  13  14
ENDBRANCH   5  13
TORSDOF 4
ENDMDL
MODEL 6
REMARK VINA RESULT:    -5.570      3.394      6.238
REMARK INTER + INTRA:          -7.272
REMARK INTER:                  -6.862
REMARK INTRA:                  -0.410
REMARK UNBOUND:                -0.399
REMARK  Name = 
REMARK  5 active torsions:
REMARK  status: ('A' for Active; 'I' for Inactive)
REMARK    1  A    between atoms: C_1  and  O_2
REMARK    2  A    between atoms: O_2  and  C_3
REMARK    3  A    between atoms: C_3  and  C_5
REMARK    4  A    between atoms: N_9  and  C_10
REMARK    5  A    between atoms: C_10  and  C_11
REMARK                            x       y       z     vdW  Elec       q    Type
REMARK                         _______ _______ _______ _____ _____    ______ ____
ROOT
ATOM      1  C   UNL     1      44.312   4.205  11.589  0.00  0.00    +0.000 A 
ATOM      2  C   UNL     1      45.040   4.118  12.753  0.00  0.00    +0.000 A 
ATOM      3  N   UNL     1      45.644   5.180  13.339  0.00  0.00    +0.000 NA
ATOM      4  C   UNL     1      45.508   6.370  12.738  0.00  0.00    +0.000 A 
ATOM      5  N   UNL     1      46.047   7.456  13.396  0.00  0.00    +0.000 N 
ATOM      6  N   UNL     1      44.838   6.548  11.590  0.00  0.00    +0.000 NA
ATOM      7  C   UNL     1      44.249   5.463  11.041  0.00  0.00    +0.000 A 
ATOM      8  H   UNL     1      46.683   7.115  14.107  0.00  0.00    +0.000 HD
ENDROOT
BRANCH   1   9
ATOM      9  C   UNL     1      43.660   3.023  11.010  0.00  0.00    +0.000 C 
ATOM     10  O   UNL     1      43.008   2.225  11.661  0.00  0.00    +0.000 OA
BRANCH   9  12
ATOM     11  C   UNL     1      45.100   2.284   9.312  0.00  0.00    +0.000 C 
ATOM     12  O   UNL     1      43.901   2.970   9.678  0.00  0.00    +0.000 OA
ENDBRANCH   9  12
ENDBRANCH   1   9
BRANCH   5  13
ATOM     13  C   UNL     1      46.548   8.531  12.566  0.00  0.00    +0.000 C 
BRANCH  13  14
ATOM     14  C   UNL     1      48.052   8.470  12.519  0.00  0.00    +0.000 A 
ATOM     15  C   UNL     1      48.715   7.787  11.492  0.00  0.00    +0.000 A 
ATOM     16  C   UNL     1      50.103   7.711  11.492  0.00  0.00    +0.000 A 
ATOM     17  C   UNL     1      50.790   8.319  12.528  0.00  0.00    +0.000 A 
ATOM     18  N   UNL     1      50.190   8.981  13.541  0.00  0.00    +0.000 NA
ATOM     19  C   UNL     1      48.838   9.038  13.514  0.00  0.00    +0.000 A 
ENDBRANCH  13  14
ENDBRANCH   5  13
TORSDOF 4
ENDMDL
MODEL 7
REMARK VINA RESULT:    -5.550      1.752      2.382
REMARK INTER + INTRA:          -7.247
REMARK INTER:                  -6.949
REMARK INTRA:                  -0.298
REMARK UNBOUND:                -0.399
REMARK  Name = 
REMARK  5 active torsions:
REMARK  status: ('A' for Active; 'I' for Inactive)
REMARK    1  A    between atoms: C_1  and  O_2
REMARK    2  A    between atoms: O_2  and  C_3
REMARK    3  A    between atoms: C_3  and  C_5
REMARK    4  A    between atoms: N_9  and  C_10
REMARK    5  A    between atoms: C_10  and  C_11
REMARK                            x       y       z     vdW  Elec       q    Type
REMARK                         _______ _______ _______ _____ _____    ______ ____
ROOT
ATOM      1  C   UNL     1      47.842   5.646  15.069  0.00  0.00    +0.000 A 
ATOM      2  C   UNL     1      47.615   6.552  14.060  0.00  0.00    +0.000 A 
ATOM      3  N   UNL     1      46.675   6.382  13.098  0.00  0.00    +0.000 NA
ATOM      4  C   UNL     1      45.938   5.265  13.154  0.00  0.00    +0.000 A 
ATOM      5  N   UNL     1      44.924   5.151  12.226  0.00  0.00    +0.000 N 
ATOM      6  N   UNL     1      46.103   4.314  14.085  0.00  0.00    +0.000 NA
ATOM      7  C   UNL     1      47.048   4.526  15.027  0.00  0.00    +0.000 A 
ATOM      8  H   UNL     1      45.084   5.831  11.493  0.00  0.00    +0.000 HD
ENDROOT
BRANCH   1   9
ATOM      9  C   UNL     1      48.860   5.894  16.099  0.00  0.00    +0.000 C 
ATOM     10  O   UNL     1      49.994   6.266  15.851  0.00  0.00    +0.000 OA
BRANCH   9  12
ATOM     11  C   UNL     1      48.989   4.593  18.047  0.00  0.00    +0.000 C 
ATOM     12  O   UNL     1      48.344   5.644  17.326  0.00  0.00    +0.000 OA
ENDBRANCH   9  12
ENDBRANCH   1   9
BRANCH   5  13
ATOM     13  C   UNL     1      44.600   3.811  11.783  0.00  0.00    +0.000 C 
BRANCH  13  14
ATOM     14  C   UNL     1      44.925   3.674  10.320  0.00  0.00    +0.000 A 
ATOM     15  C   UNL     1      44.869   2.429   9.680  0.00  0.00    +0.000 A 
ATOM     16  C   UNL     1      45.211   2.323   8.337  0.00  0.00    +0.000 A 
ATOM     17  C   UNL     1      45.606   3.469   7.671  0.00  0.00    +0.000 A 
ATOM     18  N   UNL     1      45.681   4.687   8.251  0.00  0.00    +0.000 NA
ATOM     19  C   UNL     1      45.341   4.760   9.559  0.00  0.00    +0.000 A 
ENDBRANCH  13  14
ENDBRANCH   5  13
TORSDOF 4
ENDMDL
MODEL 8
REMARK VINA RESULT:    -5.428      3.418      7.750
REMARK INTER + INTRA:          -7.096
REMARK INTER:                  -6.806
REMARK INTRA:                  -0.290
REMARK UNBOUND:                -0.399
REMARK  Name = 
REMARK  5 active torsions:
REMARK  status: ('A' for Active; 'I' for Inactive)
REMARK    1  A    between atoms: C_1  and  O_2
REMARK    2  A    between atoms: O_2  and  C_3
REMARK    3  A    between atoms: C_3  and  C_5
REMARK    4  A    between atoms: N_9  and  C_10
REMARK    5  A    between atoms: C_10  and  C_11
REMARK                            x       y       z     vdW  Elec       q    Type
REMARK                         _______ _______ _______ _____ _____    ______ ____
ROOT
ATOM      1  C   UNL     1      44.730   4.466  11.748  0.00  0.00    +0.000 A 
ATOM      2  C   UNL     1      45.299   3.273  12.128  0.00  0.00    +0.000 A 
ATOM      3  N   UNL     1      46.096   3.136  13.216  0.00  0.00    +0.000 NA
ATOM      4  C   UNL     1      46.325   4.234  13.948  0.00  0.00    +0.000 A 
ATOM      5  N   UNL     1      47.059   4.060  15.103  0.00  0.00    +0.000 N 
ATOM      6  N   UNL     1      45.833   5.444  13.644  0.00  0.00    +0.000 NA
ATOM      7  C   UNL     1      45.042   5.535  12.553  0.00  0.00    +0.000 A 
ATOM      8  H   UNL     1      47.517   3.158  15.057  0.00  0.00    +0.000 HD
ENDROOT
BRANCH   1   9
ATOM      9  C   UNL     1      43.855   4.551  10.570  0.00  0.00    +0.000 C 
ATOM     10  O   UNL     1      42.962   5.371  10.451  0.00  0.00    +0.000 OA
BRANCH   9  12
ATOM     11  C   UNL     1      44.844   4.078   8.496  0.00  0.00    +0.000 C 
ATOM     12  O   UNL     1      44.196   3.594   9.674  0.00  0.00    +0.000 OA
ENDBRANCH   9  12
ENDBRANCH   1   9
BRANCH   5  13
ATOM     13  C   UNL     1      47.893   5.170  15.513  0.00  0.00    +0.000 C 
BRANCH  13  14
ATOM     14  C   UNL     1      48.239   5.026  16.971  0.00  0.00    +0.000 A 
ATOM     15  C   UNL     1      48.402   3.764  17.554  0.00  0.00    +0.000 A 
ATOM     16  C   UNL     1      48.683   3.656  18.911  0.00  0.00    +0.000 A 
ATOM     17  C   UNL     1      48.789   4.821  19.650  0.00  0.00    +0.000 A 
ATOM     18  N   UNL     1      48.632   6.058  19.129  0.00  0.00    +0.000 NA
ATOM     19  C   UNL     1      48.359   6.131  17.805  0.00  0.00    +0.000 A 
ENDBRANCH  13  14
ENDBRANCH   5  13
TORSDOF 4
ENDMDL
MODEL 9
REMARK VINA RESULT:    -5.426      3.622      5.278
REMARK INTER + INTRA:          -7.094
REMARK INTER:                  -6.793
REMARK INTRA:                  -0.302
REMARK UNBOUND:                -0.399
REMARK  Name = 
REMARK  5 active torsions:
REMARK  status: ('A' for Active; 'I' for Inactive)
REMARK    1  A    between atoms: C_1  and  O_2
REMARK    2  A    between atoms: O_2  and  C_3
REMARK    3  A    between atoms: C_3  and  C_5
REMARK    4  A    between atoms: N_9  and  C_10
REMARK    5  A    between atoms: C_10  and  C_11
REMARK                            x       y       z     vdW  Elec       q    Type
REMARK                         _______ _______ _______ _____ _____    ______ ____
ROOT
ATOM      1  C   UNL     1      48.297   4.954  17.947  0.00  0.00    +0.000 A 
ATOM      2  C   UNL     1      47.315   3.996  17.843  0.00  0.00    +0.000 A 
ATOM      3  N   UNL     1      46.773   3.603  16.664  0.00  0.00    +0.000 NA
ATOM      4  C   UNL     1      47.235   4.192  15.553  0.00  0.00    +0.000 A 
ATOM      5  N   UNL     1      46.743   3.715  14.356  0.00  0.00    +0.000 N 
ATOM      6  N   UNL     1      48.173   5.151  15.556  0.00  0.00    +0.000 NA
ATOM      7  C   UNL     1      48.688   5.509  16.753  0.00  0.00    +0.000 A 
ATOM      8  H   UNL     1      45.913   3.167  14.547  0.00  0.00    +0.000 HD
ENDROOT
BRANCH   1   9
ATOM      9  C   UNL     1      48.864   5.323  19.251  0.00  0.00    +0.000 C 
ATOM     10  O   UNL     1      48.838   4.596  20.228  0.00  0.00    +0.000 OA
BRANCH   9  12
ATOM     11  C   UNL     1      50.699   6.693  19.763  0.00  0.00    +0.000 C 
ATOM     12  O   UNL     1      49.398   6.566  19.185  0.00  0.00    +0.000 OA
ENDBRANCH   9  12
ENDBRANCH   1   9
BRANCH   5  13
ATOM     13  C   UNL     1      46.629   4.673  13.276  0.00  0.00    +0.000 C 
BRANCH  13  14
ATOM     14  C   UNL     1      45.247   4.601  12.685  0.00  0.00    +0.000 A 
ATOM     15  C   UNL     1      44.722   3.388  12.220  0.00  0.00    +0.000 A 
ATOM     16  C   UNL     1      43.458   3.354  11.642  0.00  0.00    +0.000 A 
ATOM     17  C   UNL     1      42.755   4.542  11.539  0.00  0.00    +0.000 A 
ATOM     18  N   UNL     1      43.227   5.734  11.967  0.00  0.00    +0.000 NA
ATOM     19  C   UNL     1      44.460   5.735  12.526  0.00  0.00    +0.000 A 
ENDBRANCH  13  14
ENDBRANCH   5  13
TORSDOF 4
ENDMDL
