MODEL 1
REMARK VINA RESULT:    -8.038      0.000      0.000
REMARK INTER + INTRA:         -11.169
REMARK INTER:                 -10.388
REMARK INTRA:                  -0.781
REMARK UNBOUND:                -0.781
REMARK  Name = 
REMARK  6 active torsions:
REMARK  status: ('A' for Active; 'I' for Inactive)
REMARK    1  A    between atoms: C_1  and  C_2
REMARK    2  A    between atoms: C_2  and  C_3
REMARK    3  A    between atoms: C_2  and  C_14
REMARK    4  A    between atoms: C_3  and  N_4
REMARK    5  A    between atoms: C_8  and  C_9
REMARK    6  A    between atoms: C_18  and  C_19
REMARK                            x       y       z     vdW  Elec       q    Type
REMARK                         _______ _______ _______ _____ _____    ______ ____
ROOT
ATOM      1  C   UNL     1      43.629   4.698  10.544  0.00  0.00    +0.000 C 
ENDROOT
BRANCH   1   2
ATOM      2  N   UNL     1      43.973   3.289  10.365  0.00  0.00    +0.000 N 
ATOM      3  C   UNL     1      44.870   3.073   9.304  0.00  0.00    +0.000 A 
ATOM      4  C   UNL     1      45.297   1.773   8.992  0.00  0.00    +0.000 A 
ATOM      5  N   UNL     1      46.174   1.474   7.994  0.00  0.00    +0.000 NA
ATOM      6  C   UNL     1      46.630   2.560   7.309  0.00  0.00    +0.000 A 
ATOM      7  C   UNL     1      46.227   3.849   7.608  0.00  0.00    +0.000 A 
ATOM      8  N   UNL     1      45.352   4.124   8.606  0.00  0.00    +0.000 NA
ATOM      9  H   UNL     1      43.140   2.723  10.224  0.00  0.00    +0.000 HD
BRANCH   6  10
ATOM     10  C   UNL     1      47.596   2.344   6.200  0.00  0.00    +0.000 C 
ATOM     11  N   UNL     1      47.494   3.196   5.136  0.00  0.00    +0.000 N 
ATOM     12  O   UNL     1      48.435   1.452   6.229  0.00  0.00    +0.000 OA
ATOM     13  H   UNL     1      46.783   3.920   5.128  0.00  0.00    +0.000 HD
ATOM     14  H   UNL     1      48.116   3.080   4.350  0.00  0.00    +0.000 HD
ENDBRANCH   6  10
ENDBRANCH   1   2
BRANCH   1  16
ATOM     15  C   UNL     1      42.672   5.320  12.851  0.00  0.00    +0.000 C 
ATOM     16  C   UNL     1      43.859   5.038  11.984  0.00  0.00    +0.000 C 
BRANCH  16  17
ATOM     17  C   UNL     1      45.212   5.326  12.474  0.00  0.00    +0.000 A 
ATOM     18  C   UNL     1      46.065   6.222  11.818  0.00  0.00    +0.000 A 
ATOM     19  C   UNL     1      47.346   6.482  12.317  0.00  0.00    +0.000 A 
ATOM     20  C   UNL     1      47.783   5.862  13.487  0.00  0.00    +0.000 A 
ATOM     21  C   UNL     1      46.944   4.971  14.165  0.00  0.00    +0.000 A 
ATOM     22  C   UNL     1      45.671   4.701  13.639  0.00  0.00    +0.000 A 
BRANCH  21  23
ATOM     23  C   UNL     1      47.356   4.312  15.457  0.00  0.00    +0.000 C 
ATOM     24  F   UNL     1      47.733   3.012  15.317  0.00  0.00    +0.000 F 
ATOM     25  F   UNL     1      48.411   4.947  16.041  0.00  0.00    +0.000 F 
ATOM     26  F   UNL     1      46.360   4.317  16.387  0.00  0.00    +0.000 F 
ENDBRANCH  21  23
ENDBRANCH  16  17
ENDBRANCH   1  16
TORSDOF 5
ENDMDL
MODEL 2
REMARK VINA RESULT:    -7.671      2.055      2.646
REMARK INTER + INTRA:         -10.694
REMARK INTER:                  -9.913
REMARK INTRA:                  -0.782
REMARK UNBOUND:                -0.781
REMARK  Name = 
REMARK  6 active torsions:
REMARK  status: ('A' for Active; 'I' for Inactive)
REMARK    1  A    between atoms: C_1  and  C_2
REMARK    2  A    between atoms: C_2  and  C_3
REMARK    3  A    between atoms: C_2  and  C_14
REMARK    4  A    between atoms: C_3  and  N_4
REMARK    5  A    between atoms: C_8  and  C_9
REMARK    6  A    between atoms: C_18  and  C_19
REMARK                            x       y       z     vdW  Elec       q    Type
REMARK                         _______ _______ _______ _____ _____    ______ ____
ROOT
ATOM      1  C   UNL     1      43.627   4.796  10.610  0.00  0.00    +0.000 C 
ENDROOT
BRANCH   1   2
ATOM      2  N   UNL     1      43.937   3.379  10.434  0.00  0.00    +0.000 N 
ATOM      3  C   UNL     1      44.840   3.141   9.383  0.00  0.00    +0.000 A 
ATOM      4  C   UNL     1      45.239   1.830   9.076  0.00  0.00    +0.000 A 
ATOM      5  N   UNL     1      46.120   1.511   8.087  0.00  0.00    +0.000 NA
ATOM      6  C   UNL     1      46.609   2.585   7.407  0.00  0.00    +0.000 A 
ATOM      7  C   UNL     1      46.235   3.883   7.702  0.00  0.00    +0.000 A 
ATOM      8  N   UNL     1      45.355   4.180   8.690  0.00  0.00    +0.000 NA
ATOM      9  H   UNL     1      43.092   2.833  10.284  0.00  0.00    +0.000 HD
BRANCH   6  10
ATOM     10  C   UNL     1      47.582   2.346   6.308  0.00  0.00    +0.000 C 
ATOM     11  N   UNL     1      47.542   3.228   5.265  0.00  0.00    +0.000 N 
ATOM     12  O   UNL     1      48.373   1.410   6.328  0.00  0.00    +0.000 OA
ATOM     13  H   UNL     1      46.870   3.987   5.263  0.00  0.00    +0.000 HD
ATOM     14  H   UNL     1      48.171   3.098   4.486  0.00  0.00    +0.000 HD
ENDBRANCH   6  10
ENDBRANCH   1   2
BRANCH   1  16
ATOM     15  C   UNL     1      42.613   5.429  12.889  0.00  0.00    +0.000 C 
ATOM     16  C   UNL     1      43.820   5.123  12.058  0.00  0.00    +0.000 C 
BRANCH  16  17
ATOM     17  C   UNL     1      45.163   5.375  12.591  0.00  0.00    +0.000 A 
ATOM     18  C   UNL     1      45.780   4.501  13.494  0.00  0.00    +0.000 A 
ATOM     19  C   UNL     1      47.067   4.766  13.976  0.00  0.00    +0.000 A 
ATOM     20  C   UNL     1      47.758   5.899  13.549  0.00  0.00    +0.000 A 
ATOM     21  C   UNL     1      47.165   6.782  12.639  0.00  0.00    +0.000 A 
ATOM     22  C   UNL     1      45.865   6.516  12.182  0.00  0.00    +0.000 A 
BRANCH  21  23
ATOM     23  C   UNL     1      47.890   7.994  12.113  0.00  0.00    +0.000 C 
ATOM     24  F   UNL     1      48.691   7.737  11.043  0.00  0.00    +0.000 F 
ATOM     25  F   UNL     1      47.028   8.969  11.708  0.00  0.00    +0.000 F 
ATOM     26  F   UNL     1      48.689   8.573  13.052  0.00  0.00    +0.000 F 
ENDBRANCH  21  23
ENDBRANCH  16  17
ENDBRANCH   1  16
TORSDOF 5
ENDMDL
MODEL 3
REMARK VINA RESULT:    -7.435      3.471      4.037
REMARK INTER + INTRA:         -10.390
REMARK INTER:                  -9.759
REMARK INTRA:                  -0.631
REMARK UNBOUND:                -0.781
REMARK  Name = 
REMARK  6 active torsions:
REMARK  status: ('A' for Active; 'I' for Inactive)
REMARK    1  A    between atoms: C_1  and  C_2
REMARK    2  A    between atoms: C_2  and  C_3
REMARK    3  A    between atoms: C_2  and  C_14
REMARK    4  A    between atoms: C_3  and  N_4
REMARK    5  A    between atoms: C_8  and  C_9
REMARK    6  A    between atoms: C_18  and  C_19
REMARK                            x       y       z     vdW  Elec       q    Type
REMARK                         _______ _______ _______ _____ _____    ______ ____
ROOT
ATOM      1  C   UNL     1      43.523   5.041  10.482  0.00  0.00    +0.000 C 
ENDROOT
BRANCH   1   2
ATOM      2  N   UNL     1      43.864   3.622  10.416  0.00  0.00    +0.000 N 
ATOM      3  C   UNL     1      44.773   3.323   9.386  0.00  0.00    +0.000 A 
ATOM      4  C   UNL     1      45.200   2.002   9.180  0.00  0.00    +0.000 A 
ATOM      5  N   UNL     1      46.088   1.626   8.218  0.00  0.00    +0.000 NA
ATOM      6  C   UNL     1      46.555   2.655   7.457  0.00  0.00    +0.000 A 
ATOM      7  C   UNL     1      46.152   3.964   7.652  0.00  0.00    +0.000 A 
ATOM      8  N   UNL     1      45.266   4.317   8.615  0.00  0.00    +0.000 NA
ATOM      9  H   UNL     1      43.031   3.048  10.309  0.00  0.00    +0.000 HD
BRANCH   6  10
ATOM     10  C   UNL     1      47.533   2.353   6.379  0.00  0.00    +0.000 C 
ATOM     11  N   UNL     1      47.488   3.163   5.279  0.00  0.00    +0.000 N 
ATOM     12  O   UNL     1      48.333   1.429   6.464  0.00  0.00    +0.000 OA
ATOM     13  H   UNL     1      46.809   3.914   5.225  0.00  0.00    +0.000 HD
ATOM     14  H   UNL     1      48.121   2.988   4.513  0.00  0.00    +0.000 HD
ENDBRANCH   6  10
ENDBRANCH   1   2
BRANCH   1  16
ATOM     15  C   UNL     1      43.122   4.961  13.024  0.00  0.00    +0.000 C 
ATOM     16  C   UNL     1      43.871   5.524  11.856  0.00  0.00    +0.000 C 
BRANCH  16  17
ATOM     17  C   UNL     1      44.747   6.688  12.036  0.00  0.00    +0.000 A 
ATOM     18  C   UNL     1      45.980   6.595  12.693  0.00  0.00    +0.000 A 
ATOM     19  C   UNL     1      46.796   7.723  12.839  0.00  0.00    +0.000 A 
ATOM     20  C   UNL     1      46.396   8.952  12.316  0.00  0.00    +0.000 A 
ATOM     21  C   UNL     1      45.172   9.066  11.647  0.00  0.00    +0.000 A 
ATOM     22  C   UNL     1      44.353   7.932  11.529  0.00  0.00    +0.000 A 
BRANCH  21  23
ATOM     23  C   UNL     1      44.718  10.362  11.025  0.00  0.00    +0.000 C 
ATOM     24  F   UNL     1      45.727  11.249  10.802  0.00  0.00    +0.000 F 
ATOM     25  F   UNL     1      44.118  10.167   9.817  0.00  0.00    +0.000 F 
ATOM     26  F   UNL     1      43.803  11.017  11.792  0.00  0.00    +0.000 F 
ENDBRANCH  21  23
ENDBRANCH  16  17
ENDBRANCH   1  16
TORSDOF 5
ENDMDL
MODEL 4
REMARK VINA RESULT:    -7.356      2.195      2.840
REMARK INTER + INTRA:         -10.288
REMARK INTER:                  -9.570
REMARK INTRA:                  -0.718
REMARK UNBOUND:                -0.781
REMARK  Name = 
REMARK  6 active torsions:
REMARK  status: ('A' for Active; 'I' for Inactive)
REMARK    1  A    between atoms: C_1  and  C_2
REMARK    2  A    between atoms: C_2  and  C_3
REMARK    3  A    between atoms: C_2  and  C_14
REMARK    4  A    between atoms: C_3  and  N_4
REMARK    5  A    between atoms: C_8  and  C_9
REMARK    6  A    between atoms: C_18  and  C_19
REMARK                            x       y       z     vdW  Elec       q    Type
REMARK                         _______ _______ _______ _____ _____    ______ ____
ROOT
ATOM      1  C   UNL     1      43.746   5.398  10.638  0.00  0.00    +0.000 C 
ENDROOT
BRANCH   1   2
ATOM      2  N   UNL     1      43.861   3.951  10.474  0.00  0.00    +0.000 N 
ATOM      3  C   UNL     1      44.755   3.583   9.454  0.00  0.00    +0.000 A 
ATOM      4  C   UNL     1      44.977   2.228   9.161  0.00  0.00    +0.000 A 
ATOM      5  N   UNL     1      45.835   1.782   8.202  0.00  0.00    +0.000 NA
ATOM      6  C   UNL     1      46.492   2.773   7.537  0.00  0.00    +0.000 A 
ATOM      7  C   UNL     1      46.293   4.113   7.818  0.00  0.00    +0.000 A 
ATOM      8  N   UNL     1      45.433   4.536   8.777  0.00  0.00    +0.000 NA
ATOM      9  H   UNL     1      42.953   3.528  10.297  0.00  0.00    +0.000 HD
BRANCH   6  10
ATOM     10  C   UNL     1      47.456   2.394   6.472  0.00  0.00    +0.000 C 
ATOM     11  N   UNL     1      47.318   3.040   5.275  0.00  0.00    +0.000 N 
ATOM     12  O   UNL     1      48.325   1.548   6.648  0.00  0.00    +0.000 OA
ATOM     13  H   UNL     1      46.584   3.728   5.147  0.00  0.00    +0.000 HD
ATOM     14  H   UNL     1      47.938   2.805   4.514  0.00  0.00    +0.000 HD
ENDBRANCH   6  10
ENDBRANCH   1   2
BRANCH   1  16
ATOM     15  C   UNL     1      44.153   5.052  13.155  0.00  0.00    +0.000 C 
ATOM     16  C   UNL     1      44.486   5.771  11.885  0.00  0.00    +0.000 C 
BRANCH  16  17
ATOM     17  C   UNL     1      45.336   6.966  11.918  0.00  0.00    +0.000 A 
ATOM     18  C   UNL     1      44.801   8.259  11.886  0.00  0.00    +0.000 A 
ATOM     19  C   UNL     1      45.640   9.379  11.928  0.00  0.00    +0.000 A 
ATOM     20  C   UNL     1      47.022   9.218  12.020  0.00  0.00    +0.000 A 
ATOM     21  C   UNL     1      47.579   7.935  12.065  0.00  0.00    +0.000 A 
ATOM     22  C   UNL     1      46.727   6.822  11.996  0.00  0.00    +0.000 A 
BRANCH  21  23
ATOM     23  C   UNL     1      49.062   7.712  12.210  0.00  0.00    +0.000 C 
ATOM     24  F   UNL     1      49.385   6.575  12.885  0.00  0.00    +0.000 F 
ATOM     25  F   UNL     1      49.686   7.619  11.001  0.00  0.00    +0.000 F 
ATOM     26  F   UNL     1      49.682   8.731  12.868  0.00  0.00    +0.000 F 
ENDBRANCH  21  23
ENDBRANCH  16  17
ENDBRANCH   1  16
TORSDOF 5
ENDMDL
MODEL 5
REMARK VINA RESULT:    -6.927      4.905      7.451
REMARK INTER + INTRA:          -9.733
REMARK INTER:                  -9.316
REMARK INTRA:                  -0.417
REMARK UNBOUND:                -0.781
REMARK  Name = 
REMARK  6 active torsions:
REMARK  status: ('A' for Active; 'I' for Inactive)
REMARK    1  A    between atoms: C_1  and  C_2
REMARK    2  A    between atoms: C_2  and  C_3
REMARK    3  A    between atoms: C_2  and  C_14
REMARK    4  A    between atoms: C_3  and  N_4
REMARK    5  A    between atoms: C_8  and  C_9
REMARK    6  A    between atoms: C_18  and  C_19
REMARK                            x       y       z     vdW  Elec       q    Type
REMARK                         _______ _______ _______ _____ _____    ______ ____
ROOT
ATOM      1  C   UNL     1      47.861   6.935  12.089  0.00  0.00    +0.000 C 
ENDROOT
BRANCH   1   2
ATOM      2  N   UNL     1      48.371   7.320  13.402  0.00  0.00    +0.000 N 
ATOM      3  C   UNL     1      48.134   6.349  14.391  0.00  0.00    +0.000 A 
ATOM      4  C   UNL     1      48.555   6.566  15.712  0.00  0.00    +0.000 A 
ATOM      5  N   UNL     1      48.380   5.674  16.727  0.00  0.00    +0.000 NA
ATOM      6  C   UNL     1      47.762   4.519  16.354  0.00  0.00    +0.000 A 
ATOM      7  C   UNL     1      47.348   4.285  15.055  0.00  0.00    +0.000 A 
ATOM      8  N   UNL     1      47.531   5.186  14.060  0.00  0.00    +0.000 NA
ATOM      9  H   UNL     1      47.981   8.210  13.702  0.00  0.00    +0.000 HD
BRANCH   6  10
ATOM     10  C   UNL     1      47.526   3.476  17.387  0.00  0.00    +0.000 C 
ATOM     11  N   UNL     1      48.553   3.248  18.260  0.00  0.00    +0.000 N 
ATOM     12  O   UNL     1      46.476   2.849  17.454  0.00  0.00    +0.000 OA
ATOM     13  H   UNL     1      49.419   3.771  18.177  0.00  0.00    +0.000 HD
ATOM     14  H   UNL     1      48.448   2.538  18.968  0.00  0.00    +0.000 HD
ENDBRANCH   6  10
ENDBRANCH   1   2
BRANCH   1  16
ATOM     15  C   UNL     1      45.964   8.527  12.789  0.00  0.00    +0.000 C 
ATOM     16  C   UNL     1      46.412   7.311  12.041  0.00  0.00    +0.000 C 
BRANCH  16  17
ATOM     17  C   UNL     1      45.421   6.385  11.481  0.00  0.00    +0.000 A 
ATOM     18  C   UNL     1      44.107   6.325  11.959  0.00  0.00    +0.000 A 
ATOM     19  C   UNL     1      43.183   5.437  11.396  0.00  0.00    +0.000 A 
ATOM     20  C   UNL     1      43.559   4.610  10.339  0.00  0.00    +0.000 A 
ATOM     21  C   UNL     1      44.865   4.659   9.838  0.00  0.00    +0.000 A 
ATOM     22  C   UNL     1      45.787   5.537  10.428  0.00  0.00    +0.000 A 
BRANCH  21  23
ATOM     23  C   UNL     1      45.304   3.817   8.667  0.00  0.00    +0.000 C 
ATOM     24  F   UNL     1      46.352   4.341   7.974  0.00  0.00    +0.000 F 
ATOM     25  F   UNL     1      45.696   2.570   9.053  0.00  0.00    +0.000 F 
ATOM     26  F   UNL     1      44.308   3.627   7.757  0.00  0.00    +0.000 F 
ENDBRANCH  21  23
ENDBRANCH  16  17
ENDBRANCH   1  16
TORSDOF 5
ENDMDL
MODEL 6
REMARK VINA RESULT:    -6.865      5.437      8.108
REMARK INTER + INTRA:          -9.653
REMARK INTER:                  -9.083
REMARK INTRA:                  -0.570
REMARK UNBOUND:                -0.781
REMARK  Name = 
REMARK  6 active torsions:
REMARK  status: ('A' for Active; 'I' for Inactive)
REMARK    1  A    between atoms: C_1  and  C_2
REMARK    2  A    between atoms: C_2  and  C_3
REMARK    3  A    between atoms: C_2  and  C_14
REMARK    4  A    between atoms: C_3  and  N_4
REMARK    5  A    between atoms: C_8  and  C_9
REMARK    6  A    between atoms: C_18  and  C_19
REMARK                            x       y       z     vdW  Elec       q    Type
REMARK                         _______ _______ _______ _____ _____    ______ ____
ROOT
ATOM      1  C   UNL     1      47.425   6.218  13.501  0.00  0.00    +0.000 C 
ENDROOT
BRANCH   1   2
ATOM      2  N   UNL     1      46.875   5.114  14.283  0.00  0.00    +0.000 N 
ATOM      3  C   UNL     1      47.515   4.946  15.523  0.00  0.00    +0.000 A 
ATOM      4  C   UNL     1      47.111   3.923  16.396  0.00  0.00    +0.000 A 
ATOM      5  N   UNL     1      47.664   3.700  17.621  0.00  0.00    +0.000 NA
ATOM      6  C   UNL     1      48.657   4.572  17.952  0.00  0.00    +0.000 A 
ATOM      7  C   UNL     1      49.061   5.591  17.109  0.00  0.00    +0.000 A 
ATOM      8  N   UNL     1      48.497   5.796  15.893  0.00  0.00    +0.000 NA
ATOM      9  H   UNL     1      46.912   4.240  13.763  0.00  0.00    +0.000 HD
BRANCH   6  10
ATOM     10  C   UNL     1      49.325   4.417  19.271  0.00  0.00    +0.000 C 
ATOM     11  N   UNL     1      48.615   3.754  20.233  0.00  0.00    +0.000 N 
ATOM     12  O   UNL     1      50.445   4.861  19.492  0.00  0.00    +0.000 OA
ATOM     13  H   UNL     1      47.683   3.407  20.032  0.00  0.00    +0.000 HD
ATOM     14  H   UNL     1      49.018   3.639  21.151  0.00  0.00    +0.000 HD
ENDBRANCH   6  10
ENDBRANCH   1   2
BRANCH   1  16
ATOM     15  C   UNL     1      46.029   8.320  12.995  0.00  0.00    +0.000 C 
ATOM     16  C   UNL     1      46.289   6.863  12.770  0.00  0.00    +0.000 C 
BRANCH  16  17
ATOM     17  C   UNL     1      45.310   6.045  12.045  0.00  0.00    +0.000 A 
ATOM     18  C   UNL     1      43.994   5.888  12.494  0.00  0.00    +0.000 A 
ATOM     19  C   UNL     1      43.083   5.108  11.773  0.00  0.00    +0.000 A 
ATOM     20  C   UNL     1      43.473   4.490  10.586  0.00  0.00    +0.000 A 
ATOM     21  C   UNL     1      44.781   4.641  10.111  0.00  0.00    +0.000 A 
ATOM     22  C   UNL     1      45.690   5.406  10.858  0.00  0.00    +0.000 A 
BRANCH  21  23
ATOM     23  C   UNL     1      45.235   4.029   8.811  0.00  0.00    +0.000 C 
ATOM     24  F   UNL     1      45.625   2.730   8.919  0.00  0.00    +0.000 F 
ATOM     25  F   UNL     1      44.251   4.046   7.867  0.00  0.00    +0.000 F 
ATOM     26  F   UNL     1      46.288   4.695   8.260  0.00  0.00    +0.000 F 
ENDBRANCH  21  23
ENDBRANCH  16  17
ENDBRANCH   1  16
TORSDOF 5
ENDMDL
MODEL 7
REMARK VINA RESULT:    -6.244      3.758      5.721
REMARK INTER + INTRA:          -8.850
REMARK INTER:                  -7.983
REMARK INTRA:                  -0.867
REMARK UNBOUND:                -0.781
REMARK  Name = 
REMARK  6 active torsions:
REMARK  status: ('A' for Active; 'I' for Inactive)
REMARK    1  A    between atoms: C_1  and  C_2
REMARK    2  A    between atoms: C_2  and  C_3
REMARK    3  A    between atoms: C_2  and  C_14
REMARK    4  A    between atoms: C_3  and  N_4
REMARK    5  A    between atoms: C_8  and  C_9
REMARK    6  A    between atoms: C_18  and  C_19
REMARK                            x       y       z     vdW  Elec       q    Type
REMARK                         _______ _______ _______ _____ _____    ______ ____
ROOT
ATOM      1  C   UNL     1      48.440   7.270  14.036  0.00  0.00    +0.000 C 
ENDROOT
BRANCH   1   2
ATOM      2  N   UNL     1      47.094   7.691  13.656  0.00  0.00    +0.000 N 
ATOM      3  C   UNL     1      46.303   6.633  13.173  0.00  0.00    +0.000 A 
ATOM      4  C   UNL     1      44.983   6.868  12.757  0.00  0.00    +0.000 A 
ATOM      5  N   UNL     1      44.144   5.901  12.291  0.00  0.00    +0.000 NA
ATOM      6  C   UNL     1      44.688   4.653  12.270  0.00  0.00    +0.000 A 
ATOM      7  C   UNL     1      45.984   4.401  12.685  0.00  0.00    +0.000 A 
ATOM      8  N   UNL     1      46.803   5.378  13.144  0.00  0.00    +0.000 NA
ATOM      9  H   UNL     1      47.123   8.434  12.962  0.00  0.00    +0.000 HD
BRANCH   6  10
ATOM     10  C   UNL     1      43.853   3.524  11.782  0.00  0.00    +0.000 C 
ATOM     11  N   UNL     1      43.762   2.440  12.610  0.00  0.00    +0.000 N 
ATOM     12  O   UNL     1      43.281   3.554  10.699  0.00  0.00    +0.000 OA
ATOM     13  H   UNL     1      44.255   2.431  13.497  0.00  0.00    +0.000 HD
ATOM     14  H   UNL     1      43.221   1.640  12.316  0.00  0.00    +0.000 HD
ENDBRANCH   6  10
ENDBRANCH   1   2
BRANCH   1  16
ATOM     15  C   UNL     1      49.066   9.104  15.730  0.00  0.00    +0.000 C 
ATOM     16  C   UNL     1      48.658   7.690  15.457  0.00  0.00    +0.000 C 
BRANCH  16  17
ATOM     17  C   UNL     1      48.710   6.689  16.529  0.00  0.00    +0.000 A 
ATOM     18  C   UNL     1      48.983   7.037  17.857  0.00  0.00    +0.000 A 
ATOM     19  C   UNL     1      49.015   6.059  18.858  0.00  0.00    +0.000 A 
ATOM     20  C   UNL     1      48.758   4.725  18.545  0.00  0.00    +0.000 A 
ATOM     21  C   UNL     1      48.471   4.355  17.226  0.00  0.00    +0.000 A 
ATOM     22  C   UNL     1      48.467   5.343  16.229  0.00  0.00    +0.000 A 
BRANCH  21  23
ATOM     23  C   UNL     1      48.142   2.934  16.848  0.00  0.00    +0.000 C 
ATOM     24  F   UNL     1      49.188   2.073  16.976  0.00  0.00    +0.000 F 
ATOM     25  F   UNL     1      47.139   2.421  17.616  0.00  0.00    +0.000 F 
ATOM     26  F   UNL     1      47.716   2.821  15.559  0.00  0.00    +0.000 F 
ENDBRANCH  21  23
ENDBRANCH  16  17
ENDBRANCH   1  16
TORSDOF 5
ENDMDL
MODEL 8
REMARK VINA RESULT:    -6.120      5.214      7.823
REMARK INTER + INTRA:          -8.690
REMARK INTER:                  -7.882
REMARK INTRA:                  -0.808
REMARK UNBOUND:                -0.781
REMARK  Name = 
REMARK  6 active torsions:
REMARK  status: ('A' for Active; 'I' for Inactive)
REMARK    1  A    between atoms: C_1  and  C_2
REMARK    2  A    between atoms: C_2  and  C_3
REMARK    3  A    between atoms: C_2  and  C_14
REMARK    4  A    between atoms: C_3  and  N_4
REMARK    5  A    between atoms: C_8  and  C_9
REMARK    6  A    between atoms: C_18  and  C_19
REMARK                            x       y       z     vdW  Elec       q    Type
REMARK                         _______ _______ _______ _____ _____    ______ ____
ROOT
ATOM      1  C   UNL     1      48.864   6.810  12.767  0.00  0.00    +0.000 C 
ENDROOT
BRANCH   1   2
ATOM      2  N   UNL     1      49.331   7.528  13.951  0.00  0.00    +0.000 N 
ATOM      3  C   UNL     1      48.979   6.891  15.154  0.00  0.00    +0.000 A 
ATOM      4  C   UNL     1      49.346   7.454  16.387  0.00  0.00    +0.000 A 
ATOM      5  N   UNL     1      49.060   6.898  17.597  0.00  0.00    +0.000 NA
ATOM      6  C   UNL     1      48.386   5.717  17.523  0.00  0.00    +0.000 A 
ATOM      7  C   UNL     1      48.025   5.143  16.318  0.00  0.00    +0.000 A 
ATOM      8  N   UNL     1      48.318   5.713  15.123  0.00  0.00    +0.000 NA
ATOM      9  H   UNL     1      48.985   8.484  13.961  0.00  0.00    +0.000 HD
BRANCH   6  10
ATOM     10  C   UNL     1      48.028   5.025  18.789  0.00  0.00    +0.000 C 
ATOM     11  N   UNL     1      46.820   5.354  19.337  0.00  0.00    +0.000 N 
ATOM     12  O   UNL     1      48.772   4.208  19.319  0.00  0.00    +0.000 OA
ATOM     13  H   UNL     1      46.226   6.042  18.887  0.00  0.00    +0.000 HD
ATOM     14  H   UNL     1      46.540   4.924  20.205  0.00  0.00    +0.000 HD
ENDBRANCH   6  10
ENDBRANCH   1   2
BRANCH   1  16
ATOM     15  C   UNL     1      47.802   9.058  12.104  0.00  0.00    +0.000 C 
ATOM     16  C   UNL     1      47.700   7.569  12.210  0.00  0.00    +0.000 C 
BRANCH  16  17
ATOM     17  C   UNL     1      46.408   6.904  12.002  0.00  0.00    +0.000 A 
ATOM     18  C   UNL     1      45.256   7.614  11.647  0.00  0.00    +0.000 A 
ATOM     19  C   UNL     1      44.042   6.948  11.446  0.00  0.00    +0.000 A 
ATOM     20  C   UNL     1      43.970   5.562  11.583  0.00  0.00    +0.000 A 
ATOM     21  C   UNL     1      45.112   4.830  11.927  0.00  0.00    +0.000 A 
ATOM     22  C   UNL     1      46.317   5.514  12.149  0.00  0.00    +0.000 A 
BRANCH  21  23
ATOM     23  C   UNL     1      45.093   3.327  12.041  0.00  0.00    +0.000 C 
ATOM     24  F   UNL     1      46.085   2.822  12.824  0.00  0.00    +0.000 F 
ATOM     25  F   UNL     1      43.925   2.870  12.575  0.00  0.00    +0.000 F 
ATOM     26  F   UNL     1      45.215   2.709  10.833  0.00  0.00    +0.000 F 
ENDBRANCH  21  23
ENDBRANCH  16  17
ENDBRANCH   1  16
TORSDOF 5
ENDMDL
MODEL 9
REMARK VINA RESULT:    -6.041      3.214      5.181
REMARK INTER + INTRA:          -8.588
REMARK INTER:                  -7.810
REMARK INTRA:                  -0.778
REMARK UNBOUND:                -0.781
REMARK  Name = 
REMARK  6 active torsions:
REMARK  status: ('A' for Active; 'I' for Inactive)
REMARK    1  A    between atoms: C_1  and  C_2
REMARK    2  A    between atoms: C_2  and  C_3
REMARK    3  A    between atoms: C_2  and  C_14
REMARK    4  A    between atoms: C_3  and  N_4
REMARK    5  A    between atoms: C_8  and  C_9
REMARK    6  A    between atoms: C_18  and  C_19
REMARK                            x       y       z     vdW  Elec       q    Type
REMARK                         _______ _______ _______ _____ _____    ______ ____
ROOT
ATOM      1  C   UNL     1      47.450   8.052  13.596  0.00  0.00    +0.000 C 
ENDROOT
BRANCH   1   2
ATOM      2  N   UNL     1      47.095   7.790  12.203  0.00  0.00    +0.000 N 
ATOM      3  C   UNL     1      46.345   6.612  12.040  0.00  0.00    +0.000 A 
ATOM      4  C   UNL     1      45.927   6.209  10.762  0.00  0.00    +0.000 A 
ATOM      5  N   UNL     1      45.186   5.094  10.515  0.00  0.00    +0.000 NA
ATOM      6  C   UNL     1      44.858   4.384  11.630  0.00  0.00    +0.000 A 
ATOM      7  C   UNL     1      45.251   4.771  12.898  0.00  0.00    +0.000 A 
ATOM      8  N   UNL     1      45.991   5.885  13.122  0.00  0.00    +0.000 NA
ATOM      9  H   UNL     1      47.924   7.746  11.615  0.00  0.00    +0.000 HD
BRANCH   6  10
ATOM     10  C   UNL     1      44.045   3.150  11.471  0.00  0.00    +0.000 C 
ATOM     11  N   UNL     1      43.733   2.481  12.621  0.00  0.00    +0.000 N 
ATOM     12  O   UNL     1      43.676   2.747  10.374  0.00  0.00    +0.000 OA
ATOM     13  H   UNL     1      44.059   2.825  13.517  0.00  0.00    +0.000 HD
ATOM     14  H   UNL     1      43.197   1.627  12.564  0.00  0.00    +0.000 HD
ENDBRANCH   6  10
ENDBRANCH   1   2
BRANCH   1  16
ATOM     15  C   UNL     1      49.809   7.791  12.601  0.00  0.00    +0.000 C 
ATOM     16  C   UNL     1      48.887   7.673  13.774  0.00  0.00    +0.000 C 
BRANCH  16  17
ATOM     17  C   UNL     1      49.328   6.977  14.989  0.00  0.00    +0.000 A 
ATOM     18  C   UNL     1      50.573   7.225  15.577  0.00  0.00    +0.000 A 
ATOM     19  C   UNL     1      50.959   6.551  16.741  0.00  0.00    +0.000 A 
ATOM     20  C   UNL     1      50.098   5.633  17.339  0.00  0.00    +0.000 A 
ATOM     21  C   UNL     1      48.843   5.376  16.775  0.00  0.00    +0.000 A 
ATOM     22  C   UNL     1      48.479   6.041  15.594  0.00  0.00    +0.000 A 
BRANCH  21  23
ATOM     23  C   UNL     1      47.860   4.426  17.411  0.00  0.00    +0.000 C 
ATOM     24  F   UNL     1      46.769   4.165  16.640  0.00  0.00    +0.000 F 
ATOM     25  F   UNL     1      48.423   3.216  17.685  0.00  0.00    +0.000 F 
ATOM     26  F   UNL     1      47.380   4.889  18.599  0.00  0.00    +0.000 F 
ENDBRANCH  21  23
ENDBRANCH  16  17
ENDBRANCH   1  16
TORSDOF 5
ENDMDL
