MODEL 1
REMARK VINA RESULT:    -8.490      0.000      0.000
REMARK INTER + INTRA:         -13.489
REMARK INTER:                 -12.461
REMARK INTRA:                  -1.028
REMARK UNBOUND:                -1.028
REMARK  Name = 
REMARK  10 active torsions:
REMARK  status: ('A' for Active; 'I' for Inactive)
REMARK    1  A    between atoms: C_1  and  O_2
REMARK    2  A    between atoms: O_2  and  C_3
REMARK    3  A    between atoms: C_6  and  C_7
REMARK    4  A    between atoms: C_7  and  C_8
REMARK    5  A    between atoms: C_7  and  C_9
REMARK    6  A    between atoms: C_9  and  N_10
REMARK    7  A    between atoms: N_10  and  C_11
REMARK    8  A    between atoms: C_14  and  C_15
REMARK    9  A    between atoms: C_21  and  O_22
REMARK   10  A    between atoms: O_22  and  C_23
REMARK                            x       y       z     vdW  Elec       q    Type
REMARK                         _______ _______ _______ _____ _____    ______ ____
ROOT
ATOM      1  C   UNL     1      43.721   4.422  12.627  0.00  0.00    +0.000 C 
ATOM      2  C   UNL     1      42.739   5.541  12.252  0.00  0.00    +0.000 C 
ENDROOT
BRANCH   1   6
ATOM      3  C   UNL     1      47.765   5.963  13.212  0.00  0.00    +0.000 A 
ATOM      4  C   UNL     1      47.017   6.376  12.108  0.00  0.00    +0.000 A 
ATOM      5  C   UNL     1      45.719   5.905  11.902  0.00  0.00    +0.000 A 
ATOM      6  C   UNL     1      45.134   4.995  12.797  0.00  0.00    +0.000 A 
ATOM      7  C   UNL     1      45.898   4.589  13.904  0.00  0.00    +0.000 A 
ATOM      8  C   UNL     1      47.185   5.090  14.143  0.00  0.00    +0.000 A 
BRANCH   3  10
ATOM      9  C   UNL     1      49.229   7.643  12.416  0.00  0.00    +0.000 C 
ATOM     10  O   UNL     1      49.012   6.524  13.267  0.00  0.00    +0.000 OA
ENDBRANCH   3  10
BRANCH   8  11
ATOM     11  O   UNL     1      47.898   4.739  15.265  0.00  0.00    +0.000 OA
BRANCH  11  12
ATOM     12  C   UNL     1      47.204   4.129  16.379  0.00  0.00    +0.000 C 
ATOM     13  C   UNL     1      47.361   4.769  17.773  0.00  0.00    +0.000 C 
ATOM     14  N   UNL     1      47.771   3.475  18.338  0.00  0.00    +0.000 NA
ATOM     15  C   UNL     1      47.896   2.899  16.992  0.00  0.00    +0.000 C 
ATOM     16  H   UNL     1      47.063   3.027  18.919  0.00  0.00    +0.000 HD
ENDBRANCH  11  12
ENDBRANCH   8  11
ENDBRANCH   1   6
BRANCH   1  17
ATOM     17  C   UNL     1      43.678   3.255  11.618  0.00  0.00    +0.000 C 
BRANCH  17  18
ATOM     18  N   UNL     1      43.497   3.667  10.221  0.00  0.00    +0.000 N 
ATOM     19  H   UNL     1      43.282   4.658  10.131  0.00  0.00    +0.000 HD
BRANCH  18  20
ATOM     20  C   UNL     1      44.553   3.314   9.354  0.00  0.00    +0.000 A 
ATOM     21  C   UNL     1      45.029   2.006   9.223  0.00  0.00    +0.000 A 
ATOM     22  C   UNL     1      46.031   1.697   8.306  0.00  0.00    +0.000 A 
ATOM     23  C   UNL     1      46.514   2.714   7.500  0.00  0.00    +0.000 A 
ATOM     24  N   UNL     1      46.069   4.000   7.553  0.00  0.00    +0.000 NA
ATOM     25  C   UNL     1      45.094   4.251   8.463  0.00  0.00    +0.000 A 
BRANCH  23  26
ATOM     26  C   UNL     1      47.570   2.401   6.486  0.00  0.00    +0.000 C 
ATOM     27  N   UNL     1      47.564   3.190   5.368  0.00  0.00    +0.000 N 
ATOM     28  O   UNL     1      48.382   1.497   6.631  0.00  0.00    +0.000 OA
ATOM     29  H   UNL     1      46.856   3.910   5.271  0.00  0.00    +0.000 HD
ATOM     30  H   UNL     1      48.224   3.006   4.629  0.00  0.00    +0.000 HD
ENDBRANCH  23  26
ENDBRANCH  18  20
ENDBRANCH  17  18
ENDBRANCH   1  17
TORSDOF 8
ENDMDL
MODEL 2
REMARK VINA RESULT:    -7.483      1.618      1.713
REMARK INTER + INTRA:         -12.010
REMARK INTER:                 -11.010
REMARK INTRA:                  -1.000
REMARK UNBOUND:                -1.028
REMARK  Name = 
REMARK  10 active torsions:
REMARK  status: ('A' for Active; 'I' for Inactive)
REMARK    1  A    between atoms: C_1  and  O_2
REMARK    2  A    between atoms: O_2  and  C_3
REMARK    3  A    between atoms: C_6  and  C_7
REMARK    4  A    between atoms: C_7  and  C_8
REMARK    5  A    between atoms: C_7  and  C_9
REMARK    6  A    between atoms: C_9  and  N_10
REMARK    7  A    between atoms: N_10  and  C_11
REMARK    8  A    between atoms: C_14  and  C_15
REMARK    9  A    between atoms: C_21  and  O_22
REMARK   10  A    between atoms: O_22  and  C_23
REMARK                            x       y       z     vdW  Elec       q    Type
REMARK                         _______ _______ _______ _____ _____    ______ ____
ROOT
ATOM      1  C   UNL     1      44.404   4.534  12.927  0.00  0.00    +0.000 C 
ATOM      2  C   UNL     1      43.087   5.287  12.688  0.00  0.00    +0.000 C 
ENDROOT
BRANCH   1   6
ATOM      3  C   UNL     1      47.857   7.194  12.668  0.00  0.00    +0.000 A 
ATOM      4  C   UNL     1      46.772   7.379  11.810  0.00  0.00    +0.000 A 
ATOM      5  C   UNL     1      45.652   6.548  11.878  0.00  0.00    +0.000 A 
ATOM      6  C   UNL     1      45.593   5.497  12.806  0.00  0.00    +0.000 A 
ATOM      7  C   UNL     1      46.692   5.323  13.664  0.00  0.00    +0.000 A 
ATOM      8  C   UNL     1      47.801   6.180  13.634  0.00  0.00    +0.000 A 
BRANCH   3  10
ATOM      9  C   UNL     1      49.880   7.712  11.554  0.00  0.00    +0.000 C 
ATOM     10  O   UNL     1      48.867   8.098  12.474  0.00  0.00    +0.000 OA
ENDBRANCH   3  10
BRANCH   8  11
ATOM     11  O   UNL     1      48.841   6.042  14.523  0.00  0.00    +0.000 OA
BRANCH  11  12
ATOM     12  C   UNL     1      48.615   6.332  15.923  0.00  0.00    +0.000 C 
ATOM     13  C   UNL     1      49.064   7.704  16.464  0.00  0.00    +0.000 C 
ATOM     14  N   UNL     1      49.831   7.048  17.533  0.00  0.00    +0.000 NA
ATOM     15  C   UNL     1      49.651   5.737  16.893  0.00  0.00    +0.000 C 
ATOM     16  H   UNL     1      49.409   7.121  18.458  0.00  0.00    +0.000 HD
ENDBRANCH  11  12
ENDBRANCH   8  11
ENDBRANCH   1   6
BRANCH   1  17
ATOM     17  C   UNL     1      44.545   3.309  11.999  0.00  0.00    +0.000 C 
BRANCH  17  18
ATOM     18  N   UNL     1      43.961   3.488  10.665  0.00  0.00    +0.000 N 
ATOM     19  H   UNL     1      43.496   4.387  10.559  0.00  0.00    +0.000 HD
BRANCH  18  20
ATOM     20  C   UNL     1      44.851   3.269   9.591  0.00  0.00    +0.000 A 
ATOM     21  C   UNL     1      45.252   1.993   9.180  0.00  0.00    +0.000 A 
ATOM     22  C   UNL     1      46.081   1.826   8.073  0.00  0.00    +0.000 A 
ATOM     23  C   UNL     1      46.466   2.954   7.369  0.00  0.00    +0.000 A 
ATOM     24  N   UNL     1      46.082   4.219   7.695  0.00  0.00    +0.000 NA
ATOM     25  C   UNL     1      45.275   4.331   8.781  0.00  0.00    +0.000 A 
BRANCH  23  26
ATOM     26  C   UNL     1      47.332   2.797   6.158  0.00  0.00    +0.000 C 
ATOM     27  N   UNL     1      48.628   2.436   6.406  0.00  0.00    +0.000 N 
ATOM     28  O   UNL     1      46.923   2.986   5.021  0.00  0.00    +0.000 OA
ATOM     29  H   UNL     1      48.937   2.317   7.365  0.00  0.00    +0.000 HD
ATOM     30  H   UNL     1      49.275   2.351   5.637  0.00  0.00    +0.000 HD
ENDBRANCH  23  26
ENDBRANCH  18  20
ENDBRANCH  17  18
ENDBRANCH   1  17
TORSDOF 8
ENDMDL
MODEL 3
REMARK VINA RESULT:    -7.141      2.911      4.644
REMARK INTER + INTRA:         -11.508
REMARK INTER:                 -10.558
REMARK INTRA:                  -0.951
REMARK UNBOUND:                -1.028
REMARK  Name = 
REMARK  10 active torsions:
REMARK  status: ('A' for Active; 'I' for Inactive)
REMARK    1  A    between atoms: C_1  and  O_2
REMARK    2  A    between atoms: O_2  and  C_3
REMARK    3  A    between atoms: C_6  and  C_7
REMARK    4  A    between atoms: C_7  and  C_8
REMARK    5  A    between atoms: C_7  and  C_9
REMARK    6  A    between atoms: C_9  and  N_10
REMARK    7  A    between atoms: N_10  and  C_11
REMARK    8  A    between atoms: C_14  and  C_15
REMARK    9  A    between atoms: C_21  and  O_22
REMARK   10  A    between atoms: O_22  and  C_23
REMARK                            x       y       z     vdW  Elec       q    Type
REMARK                         _______ _______ _______ _____ _____    ______ ____
ROOT
ATOM      1  C   UNL     1      44.234   4.807  12.718  0.00  0.00    +0.000 C 
ATOM      2  C   UNL     1      42.812   5.289  12.399  0.00  0.00    +0.000 C 
ENDROOT
BRANCH   1   6
ATOM      3  C   UNL     1      47.004   8.105  12.000  0.00  0.00    +0.000 A 
ATOM      4  C   UNL     1      47.498   6.818  12.218  0.00  0.00    +0.000 A 
ATOM      5  C   UNL     1      46.634   5.745  12.442  0.00  0.00    +0.000 A 
ATOM      6  C   UNL     1      45.244   5.934  12.462  0.00  0.00    +0.000 A 
ATOM      7  C   UNL     1      44.760   7.234  12.239  0.00  0.00    +0.000 A 
ATOM      8  C   UNL     1      45.618   8.309  11.969  0.00  0.00    +0.000 A 
BRANCH   3  10
ATOM      9  C   UNL     1      48.461   9.710  12.949  0.00  0.00    +0.000 C 
ATOM     10  O   UNL     1      47.984   9.038  11.790  0.00  0.00    +0.000 OA
ENDBRANCH   3  10
BRANCH   8  11
ATOM     11  O   UNL     1      45.132   9.564  11.685  0.00  0.00    +0.000 OA
BRANCH  11  12
ATOM     12  C   UNL     1      43.865   9.691  10.997  0.00  0.00    +0.000 C 
ATOM     13  C   UNL     1      43.833  10.471   9.668  0.00  0.00    +0.000 C 
ATOM     14  N   UNL     1      42.746  11.322  10.177  0.00  0.00    +0.000 NA
ATOM     15  C   UNL     1      42.931  10.790  11.534  0.00  0.00    +0.000 C 
ATOM     16  H   UNL     1      41.832  11.123   9.772  0.00  0.00    +0.000 HD
ENDBRANCH  11  12
ENDBRANCH   8  11
ENDBRANCH   1   6
BRANCH   1  17
ATOM     17  C   UNL     1      44.591   3.515  11.953  0.00  0.00    +0.000 C 
BRANCH  17  18
ATOM     18  N   UNL     1      43.968   3.403  10.628  0.00  0.00    +0.000 N 
ATOM     19  H   UNL     1      43.342   4.179  10.424  0.00  0.00    +0.000 HD
BRANCH  18  20
ATOM     20  C   UNL     1      44.870   3.208   9.560  0.00  0.00    +0.000 A 
ATOM     21  C   UNL     1      45.265   1.942   9.114  0.00  0.00    +0.000 A 
ATOM     22  C   UNL     1      46.107   1.802   8.014  0.00  0.00    +0.000 A 
ATOM     23  C   UNL     1      46.512   2.947   7.351  0.00  0.00    +0.000 A 
ATOM     24  N   UNL     1      46.136   4.205   7.712  0.00  0.00    +0.000 NA
ATOM     25  C   UNL     1      45.316   4.291   8.790  0.00  0.00    +0.000 A 
BRANCH  23  26
ATOM     26  C   UNL     1      47.394   2.820   6.148  0.00  0.00    +0.000 C 
ATOM     27  N   UNL     1      48.702   2.517   6.407  0.00  0.00    +0.000 N 
ATOM     28  O   UNL     1      46.985   2.983   5.006  0.00  0.00    +0.000 OA
ATOM     29  H   UNL     1      49.008   2.419   7.369  0.00  0.00    +0.000 HD
ATOM     30  H   UNL     1      49.357   2.456   5.643  0.00  0.00    +0.000 HD
ENDBRANCH  23  26
ENDBRANCH  18  20
ENDBRANCH  17  18
ENDBRANCH   1  17
TORSDOF 8
ENDMDL
MODEL 4
REMARK VINA RESULT:    -6.605      2.920      4.800
REMARK INTER + INTRA:         -10.722
REMARK INTER:                  -9.484
REMARK INTRA:                  -1.238
REMARK UNBOUND:                -1.028
REMARK  Name = 
REMARK  10 active torsions:
REMARK  status: ('A' for Active; 'I' for Inactive)
REMARK    1  A    between atoms: C_1  and  O_2
REMARK    2  A    between atoms: O_2  and  C_3
REMARK    3  A    between atoms: C_6  and  C_7
REMARK    4  A    between atoms: C_7  and  C_8
REMARK    5  A    between atoms: C_7  and  C_9
REMARK    6  A    between atoms: C_9  and  N_10
REMARK    7  A    between atoms: N_10  and  C_11
REMARK    8  A    between atoms: C_14  and  C_15
REMARK    9  A    between atoms: C_21  and  O_22
REMARK   10  A    between atoms: O_22  and  C_23
REMARK                            x       y       z     vdW  Elec       q    Type
REMARK                         _______ _______ _______ _____ _____    ______ ____
ROOT
ATOM      1  C   UNL     1      48.202   8.514  12.687  0.00  0.00    +0.000 C 
ATOM      2  C   UNL     1      48.915   7.455  11.835  0.00  0.00    +0.000 C 
ENDROOT
BRANCH   1   6
ATOM      3  C   UNL     1      48.861   7.569  16.899  0.00  0.00    +0.000 A 
ATOM      4  C   UNL     1      48.627   8.890  16.512  0.00  0.00    +0.000 A 
ATOM      5  C   UNL     1      48.405   9.218  15.173  0.00  0.00    +0.000 A 
ATOM      6  C   UNL     1      48.420   8.227  14.179  0.00  0.00    +0.000 A 
ATOM      7  C   UNL     1      48.656   6.902  14.583  0.00  0.00    +0.000 A 
ATOM      8  C   UNL     1      48.835   6.557  15.930  0.00  0.00    +0.000 A 
BRANCH   3  10
ATOM      9  C   UNL     1      47.941   7.751  19.072  0.00  0.00    +0.000 C 
ATOM     10  O   UNL     1      49.051   7.421  18.247  0.00  0.00    +0.000 OA
ENDBRANCH   3  10
BRANCH   8  11
ATOM     11  O   UNL     1      48.996   5.249  16.322  0.00  0.00    +0.000 OA
BRANCH  11  12
ATOM     12  C   UNL     1      47.833   4.395  16.428  0.00  0.00    +0.000 C 
ATOM     13  C   UNL     1      47.013   4.440  17.733  0.00  0.00    +0.000 C 
ATOM     14  N   UNL     1      47.122   2.980  17.870  0.00  0.00    +0.000 NA
ATOM     15  C   UNL     1      48.124   2.930  16.795  0.00  0.00    +0.000 C 
ATOM     16  H   UNL     1      46.263   2.473  17.662  0.00  0.00    +0.000 HD
ENDBRANCH  11  12
ENDBRANCH   8  11
ENDBRANCH   1   6
BRANCH   1  17
ATOM     17  C   UNL     1      46.706   8.634  12.326  0.00  0.00    +0.000 C 
BRANCH  17  18
ATOM     18  N   UNL     1      45.809   7.862  13.194  0.00  0.00    +0.000 N 
ATOM     19  H   UNL     1      44.987   8.393  13.477  0.00  0.00    +0.000 HD
BRANCH  18  20
ATOM     20  C   UNL     1      45.425   6.602  12.686  0.00  0.00    +0.000 A 
ATOM     21  C   UNL     1      45.623   5.405  13.384  0.00  0.00    +0.000 A 
ATOM     22  C   UNL     1      45.169   4.194  12.868  0.00  0.00    +0.000 A 
ATOM     23  C   UNL     1      44.483   4.212  11.666  0.00  0.00    +0.000 A 
ATOM     24  N   UNL     1      44.228   5.345  10.956  0.00  0.00    +0.000 NA
ATOM     25  C   UNL     1      44.691   6.500  11.498  0.00  0.00    +0.000 A 
BRANCH  23  26
ATOM     26  C   UNL     1      43.960   2.925  11.106  0.00  0.00    +0.000 C 
ATOM     27  N   UNL     1      44.690   2.390  10.081  0.00  0.00    +0.000 N 
ATOM     28  O   UNL     1      42.944   2.386  11.524  0.00  0.00    +0.000 OA
ATOM     29  H   UNL     1      45.509   2.883   9.744  0.00  0.00    +0.000 HD
ATOM     30  H   UNL     1      44.369   1.545   9.633  0.00  0.00    +0.000 HD
ENDBRANCH  23  26
ENDBRANCH  18  20
ENDBRANCH  17  18
ENDBRANCH   1  17
TORSDOF 8
ENDMDL
MODEL 5
REMARK VINA RESULT:    -6.579      2.765      4.269
REMARK INTER + INTRA:         -10.684
REMARK INTER:                  -9.869
REMARK INTRA:                  -0.815
REMARK UNBOUND:                -1.028
REMARK  Name = 
REMARK  10 active torsions:
REMARK  status: ('A' for Active; 'I' for Inactive)
REMARK    1  A    between atoms: C_1  and  O_2
REMARK    2  A    between atoms: O_2  and  C_3
REMARK    3  A    between atoms: C_6  and  C_7
REMARK    4  A    between atoms: C_7  and  C_8
REMARK    5  A    between atoms: C_7  and  C_9
REMARK    6  A    between atoms: C_9  and  N_10
REMARK    7  A    between atoms: N_10  and  C_11
REMARK    8  A    between atoms: C_14  and  C_15
REMARK    9  A    between atoms: C_21  and  O_22
REMARK   10  A    between atoms: O_22  and  C_23
REMARK                            x       y       z     vdW  Elec       q    Type
REMARK                         _______ _______ _______ _____ _____    ______ ____
ROOT
ATOM      1  C   UNL     1      45.701   5.466  11.811  0.00  0.00    +0.000 C 
ATOM      2  C   UNL     1      45.396   4.681  13.095  0.00  0.00    +0.000 C 
ENDROOT
BRANCH   1   6
ATOM      3  C   UNL     1      47.802   9.179  12.739  0.00  0.00    +0.000 A 
ATOM      4  C   UNL     1      46.411   9.125  12.839  0.00  0.00    +0.000 A 
ATOM      5  C   UNL     1      45.716   7.948  12.555  0.00  0.00    +0.000 A 
ATOM      6  C   UNL     1      46.398   6.789  12.154  0.00  0.00    +0.000 A 
ATOM      7  C   UNL     1      47.798   6.858  12.060  0.00  0.00    +0.000 A 
ATOM      8  C   UNL     1      48.509   8.022  12.386  0.00  0.00    +0.000 A 
BRANCH   3  10
ATOM      9  C   UNL     1      48.857  10.530  14.372  0.00  0.00    +0.000 C 
ATOM     10  O   UNL     1      48.325  10.404  13.059  0.00  0.00    +0.000 OA
ENDBRANCH   3  10
BRANCH   8  11
ATOM     11  O   UNL     1      49.883   8.058  12.356  0.00  0.00    +0.000 OA
BRANCH  11  12
ATOM     12  C   UNL     1      50.553   8.407  11.121  0.00  0.00    +0.000 C 
ATOM     13  C   UNL     1      52.007   7.934  10.924  0.00  0.00    +0.000 C 
ATOM     14  N   UNL     1      52.429   9.310  10.623  0.00  0.00    +0.000 NA
ATOM     15  C   UNL     1      51.128   9.833  11.065  0.00  0.00    +0.000 C 
ATOM     16  H   UNL     1      52.634   9.481   9.639  0.00  0.00    +0.000 HD
ENDBRANCH  11  12
ENDBRANCH   8  11
ENDBRANCH   1   6
BRANCH   1  17
ATOM     17  C   UNL     1      44.438   5.675  10.949  0.00  0.00    +0.000 C 
BRANCH  17  18
ATOM     18  N   UNL     1      43.957   4.464  10.274  0.00  0.00    +0.000 N 
ATOM     19  H   UNL     1      43.070   4.608   9.797  0.00  0.00    +0.000 HD
BRANCH  18  20
ATOM     20  C   UNL     1      44.888   3.856   9.404  0.00  0.00    +0.000 A 
ATOM     21  C   UNL     1      45.064   2.471   9.320  0.00  0.00    +0.000 A 
ATOM     22  C   UNL     1      45.950   1.917   8.399  0.00  0.00    +0.000 A 
ATOM     23  C   UNL     1      46.621   2.773   7.542  0.00  0.00    +0.000 A 
ATOM     24  N   UNL     1      46.468   4.126   7.549  0.00  0.00    +0.000 NA
ATOM     25  C   UNL     1      45.595   4.618   8.465  0.00  0.00    +0.000 A 
BRANCH  23  26
ATOM     26  C   UNL     1      47.556   2.199   6.523  0.00  0.00    +0.000 C 
ATOM     27  N   UNL     1      47.768   2.975   5.417  0.00  0.00    +0.000 N 
ATOM     28  O   UNL     1      48.091   1.107   6.656  0.00  0.00    +0.000 OA
ATOM     29  H   UNL     1      47.282   3.861   5.331  0.00  0.00    +0.000 HD
ATOM     30  H   UNL     1      48.356   2.629   4.675  0.00  0.00    +0.000 HD
ENDBRANCH  23  26
ENDBRANCH  18  20
ENDBRANCH  17  18
ENDBRANCH   1  17
TORSDOF 8
ENDMDL
MODEL 6
REMARK VINA RESULT:    -6.124      4.432      8.089
REMARK INTER + INTRA:         -10.017
REMARK INTER:                  -8.373
REMARK INTRA:                  -1.643
REMARK UNBOUND:                -1.028
REMARK  Name = 
REMARK  10 active torsions:
REMARK  status: ('A' for Active; 'I' for Inactive)
REMARK    1  A    between atoms: C_1  and  O_2
REMARK    2  A    between atoms: O_2  and  C_3
REMARK    3  A    between atoms: C_6  and  C_7
REMARK    4  A    between atoms: C_7  and  C_8
REMARK    5  A    between atoms: C_7  and  C_9
REMARK    6  A    between atoms: C_9  and  N_10
REMARK    7  A    between atoms: N_10  and  C_11
REMARK    8  A    between atoms: C_14  and  C_15
REMARK    9  A    between atoms: C_21  and  O_22
REMARK   10  A    between atoms: O_22  and  C_23
REMARK                            x       y       z     vdW  Elec       q    Type
REMARK                         _______ _______ _______ _____ _____    ______ ____
ROOT
ATOM      1  C   UNL     1      49.022   7.520  12.681  0.00  0.00    +0.000 C 
ATOM      2  C   UNL     1      48.708   8.643  11.682  0.00  0.00    +0.000 C 
ENDROOT
BRANCH   1   6
ATOM      3  C   UNL     1      45.698   4.714  13.052  0.00  0.00    +0.000 A 
ATOM      4  C   UNL     1      45.814   5.506  11.908  0.00  0.00    +0.000 A 
ATOM      5  C   UNL     1      46.871   6.405  11.762  0.00  0.00    +0.000 A 
ATOM      6  C   UNL     1      47.843   6.542  12.765  0.00  0.00    +0.000 A 
ATOM      7  C   UNL     1      47.714   5.737  13.910  0.00  0.00    +0.000 A 
ATOM      8  C   UNL     1      46.681   4.800  14.046  0.00  0.00    +0.000 A 
BRANCH   3  10
ATOM      9  C   UNL     1      43.339   4.520  13.097  0.00  0.00    +0.000 C 
ATOM     10  O   UNL     1      44.609   3.883  13.032  0.00  0.00    +0.000 OA
ENDBRANCH   3  10
BRANCH   8  11
ATOM     11  O   UNL     1      46.603   3.969  15.139  0.00  0.00    +0.000 OA
BRANCH  11  12
ATOM     12  C   UNL     1      47.583   4.099  16.196  0.00  0.00    +0.000 C 
ATOM     13  C   UNL     1      48.197   2.812  16.782  0.00  0.00    +0.000 C 
ATOM     14  N   UNL     1      47.833   3.239  18.141  0.00  0.00    +0.000 NA
ATOM     15  C   UNL     1      47.007   4.329  17.604  0.00  0.00    +0.000 C 
ATOM     16  H   UNL     1      48.619   3.552  18.708  0.00  0.00    +0.000 HD
ENDBRANCH  11  12
ENDBRANCH   8  11
ENDBRANCH   1   6
BRANCH   1  17
ATOM     17  C   UNL     1      49.424   8.074  14.064  0.00  0.00    +0.000 C 
BRANCH  17  18
ATOM     18  N   UNL     1      50.578   7.403  14.675  0.00  0.00    +0.000 N 
ATOM     19  H   UNL     1      51.421   7.972  14.646  0.00  0.00    +0.000 HD
BRANCH  18  20
ATOM     20  C   UNL     1      50.360   6.917  15.982  0.00  0.00    +0.000 A 
ATOM     21  C   UNL     1      51.166   5.940  16.578  0.00  0.00    +0.000 A 
ATOM     22  C   UNL     1      50.950   5.540  17.894  0.00  0.00    +0.000 A 
ATOM     23  C   UNL     1      49.941   6.162  18.609  0.00  0.00    +0.000 A 
ATOM     24  N   UNL     1      49.145   7.142  18.100  0.00  0.00    +0.000 NA
ATOM     25  C   UNL     1      49.393   7.497  16.813  0.00  0.00    +0.000 A 
BRANCH  23  26
ATOM     26  C   UNL     1      49.709   5.769  20.035  0.00  0.00    +0.000 C 
ATOM     27  N   UNL     1      49.786   4.428  20.295  0.00  0.00    +0.000 N 
ATOM     28  O   UNL     1      49.457   6.582  20.913  0.00  0.00    +0.000 OA
ATOM     29  H   UNL     1      49.968   3.783  19.534  0.00  0.00    +0.000 HD
ATOM     30  H   UNL     1      49.601   4.093  21.228  0.00  0.00    +0.000 HD
ENDBRANCH  23  26
ENDBRANCH  18  20
ENDBRANCH  17  18
ENDBRANCH   1  17
TORSDOF 8
ENDMDL
MODEL 7
REMARK VINA RESULT:    -6.101      3.244      5.591
REMARK INTER + INTRA:          -9.982
REMARK INTER:                  -9.414
REMARK INTRA:                  -0.568
REMARK UNBOUND:                -1.028
REMARK  Name = 
REMARK  10 active torsions:
REMARK  status: ('A' for Active; 'I' for Inactive)
REMARK    1  A    between atoms: C_1  and  O_2
REMARK    2  A    between atoms: O_2  and  C_3
REMARK    3  A    between atoms: C_6  and  C_7
REMARK    4  A    between atoms: C_7  and  C_8
REMARK    5  A    between atoms: C_7  and  C_9
REMARK    6  A    between atoms: C_9  and  N_10
REMARK    7  A    between atoms: N_10  and  C_11
REMARK    8  A    between atoms: C_14  and  C_15
REMARK    9  A    between atoms: C_21  and  O_22
REMARK   10  A    between atoms: O_22  and  C_23
REMARK                            x       y       z     vdW  Elec       q    Type
REMARK                         _______ _______ _______ _____ _____    ______ ____
ROOT
ATOM      1  C   UNL     1      49.355   7.579  14.435  0.00  0.00    +0.000 C 
ATOM      2  C   UNL     1      50.375   8.344  13.578  0.00  0.00    +0.000 C 
ENDROOT
BRANCH   1   6
ATOM      3  C   UNL     1      51.277   5.423  17.709  0.00  0.00    +0.000 A 
ATOM      4  C   UNL     1      52.017   6.324  16.942  0.00  0.00    +0.000 A 
ATOM      5  C   UNL     1      51.425   7.032  15.895  0.00  0.00    +0.000 A 
ATOM      6  C   UNL     1      50.070   6.849  15.580  0.00  0.00    +0.000 A 
ATOM      7  C   UNL     1      49.336   5.940  16.362  0.00  0.00    +0.000 A 
ATOM      8  C   UNL     1      49.911   5.258  17.443  0.00  0.00    +0.000 A 
BRANCH   3  10
ATOM      9  C   UNL     1      51.974   5.454  19.971  0.00  0.00    +0.000 C 
ATOM     10  O   UNL     1      52.007   4.819  18.699  0.00  0.00    +0.000 OA
ENDBRANCH   3  10
BRANCH   8  11
ATOM     11  O   UNL     1      49.168   4.423  18.244  0.00  0.00    +0.000 OA
BRANCH  11  12
ATOM     12  C   UNL     1      49.076   3.019  17.905  0.00  0.00    +0.000 C 
ATOM     13  C   UNL     1      50.261   2.370  17.162  0.00  0.00    +0.000 C 
ATOM     14  N   UNL     1      49.353   1.874  16.117  0.00  0.00    +0.000 NA
ATOM     15  C   UNL     1      48.256   2.699  16.643  0.00  0.00    +0.000 C 
ATOM     16  H   UNL     1      49.176   0.871  16.156  0.00  0.00    +0.000 HD
ENDBRANCH  11  12
ENDBRANCH   8  11
ENDBRANCH   1   6
BRANCH   1  17
ATOM     17  C   UNL     1      48.486   6.628  13.585  0.00  0.00    +0.000 C 
BRANCH  17  18
ATOM     18  N   UNL     1      47.044   6.890  13.664  0.00  0.00    +0.000 N 
ATOM     19  H   UNL     1      46.801   7.833  13.368  0.00  0.00    +0.000 HD
BRANCH  18  20
ATOM     20  C   UNL     1      46.230   5.945  13.004  0.00  0.00    +0.000 A 
ATOM     21  C   UNL     1      45.899   6.037  11.648  0.00  0.00    +0.000 A 
ATOM     22  C   UNL     1      45.145   5.045  11.026  0.00  0.00    +0.000 A 
ATOM     23  C   UNL     1      44.764   3.947  11.778  0.00  0.00    +0.000 A 
ATOM     24  N   UNL     1      45.083   3.780  13.091  0.00  0.00    +0.000 NA
ATOM     25  C   UNL     1      45.818   4.774  13.652  0.00  0.00    +0.000 A 
BRANCH  23  26
ATOM     26  C   UNL     1      43.978   2.853  11.124  0.00  0.00    +0.000 C 
ATOM     27  N   UNL     1      44.557   2.294  10.017  0.00  0.00    +0.000 N 
ATOM     28  O   UNL     1      42.888   2.483  11.536  0.00  0.00    +0.000 OA
ATOM     29  H   UNL     1      45.449   2.649   9.689  0.00  0.00    +0.000 HD
ATOM     30  H   UNL     1      44.062   1.580   9.507  0.00  0.00    +0.000 HD
ENDBRANCH  23  26
ENDBRANCH  18  20
ENDBRANCH  17  18
ENDBRANCH   1  17
TORSDOF 8
ENDMDL
MODEL 8
REMARK VINA RESULT:    -5.658      3.615      6.046
REMARK INTER + INTRA:          -9.331
REMARK INTER:                  -8.598
REMARK INTRA:                  -0.734
REMARK UNBOUND:                -1.028
REMARK  Name = 
REMARK  10 active torsions:
REMARK  status: ('A' for Active; 'I' for Inactive)
REMARK    1  A    between atoms: C_1  and  O_2
REMARK    2  A    between atoms: O_2  and  C_3
REMARK    3  A    between atoms: C_6  and  C_7
REMARK    4  A    between atoms: C_7  and  C_8
REMARK    5  A    between atoms: C_7  and  C_9
REMARK    6  A    between atoms: C_9  and  N_10
REMARK    7  A    between atoms: N_10  and  C_11
REMARK    8  A    between atoms: C_14  and  C_15
REMARK    9  A    between atoms: C_21  and  O_22
REMARK   10  A    between atoms: O_22  and  C_23
REMARK                            x       y       z     vdW  Elec       q    Type
REMARK                         _______ _______ _______ _____ _____    ______ ____
ROOT
ATOM      1  C   UNL     1      49.056   7.343  15.365  0.00  0.00    +0.000 C 
ATOM      2  C   UNL     1      50.389   7.837  14.785  0.00  0.00    +0.000 C 
ENDROOT
BRANCH   1   6
ATOM      3  C   UNL     1      49.818   5.517  19.257  0.00  0.00    +0.000 A 
ATOM      4  C   UNL     1      48.742   6.391  19.099  0.00  0.00    +0.000 A 
ATOM      5  C   UNL     1      48.472   6.982  17.863  0.00  0.00    +0.000 A 
ATOM      6  C   UNL     1      49.282   6.718  16.748  0.00  0.00    +0.000 A 
ATOM      7  C   UNL     1      50.361   5.835  16.921  0.00  0.00    +0.000 A 
ATOM      8  C   UNL     1      50.613   5.202  18.147  0.00  0.00    +0.000 A 
BRANCH   3  10
ATOM      9  C   UNL     1      48.740   4.529  21.118  0.00  0.00    +0.000 C 
ATOM     10  O   UNL     1      49.937   5.021  20.528  0.00  0.00    +0.000 OA
ENDBRANCH   3  10
BRANCH   8  11
ATOM     11  O   UNL     1      51.630   4.288  18.288  0.00  0.00    +0.000 OA
BRANCH  11  12
ATOM     12  C   UNL     1      51.658   3.125  17.427  0.00  0.00    +0.000 C 
ATOM     13  C   UNL     1      50.424   2.201  17.411  0.00  0.00    +0.000 C 
ATOM     14  N   UNL     1      51.274   1.035  17.695  0.00  0.00    +0.000 NA
ATOM     15  C   UNL     1      52.419   1.910  17.987  0.00  0.00    +0.000 C 
ATOM     16  H   UNL     1      51.416   0.415  16.900  0.00  0.00    +0.000 HD
ENDBRANCH  11  12
ENDBRANCH   8  11
ENDBRANCH   1   6
BRANCH   1  17
ATOM     17  C   UNL     1      48.328   6.384  14.400  0.00  0.00    +0.000 C 
BRANCH  17  18
ATOM     18  N   UNL     1      47.151   6.964  13.741  0.00  0.00    +0.000 N 
ATOM     19  H   UNL     1      47.394   7.718  13.101  0.00  0.00    +0.000 HD
BRANCH  18  20
ATOM     20  C   UNL     1      46.307   6.032  13.100  0.00  0.00    +0.000 A 
ATOM     21  C   UNL     1      45.574   6.331  11.947  0.00  0.00    +0.000 A 
ATOM     22  C   UNL     1      44.805   5.358  11.315  0.00  0.00    +0.000 A 
ATOM     23  C   UNL     1      44.816   4.076  11.837  0.00  0.00    +0.000 A 
ATOM     24  N   UNL     1      45.534   3.711  12.935  0.00  0.00    +0.000 NA
ATOM     25  C   UNL     1      46.267   4.694  13.516  0.00  0.00    +0.000 A 
BRANCH  23  26
ATOM     26  C   UNL     1      44.020   3.005  11.158  0.00  0.00    +0.000 C 
ATOM     27  N   UNL     1      43.460   2.073  11.987  0.00  0.00    +0.000 N 
ATOM     28  O   UNL     1      43.882   2.952   9.943  0.00  0.00    +0.000 OA
ATOM     29  H   UNL     1      43.623   2.135  12.986  0.00  0.00    +0.000 HD
ATOM     30  H   UNL     1      42.944   1.303  11.590  0.00  0.00    +0.000 HD
ENDBRANCH  23  26
ENDBRANCH  18  20
ENDBRANCH  17  18
ENDBRANCH   1  17
TORSDOF 8
ENDMDL
