MODEL 1
REMARK VINA RESULT:    -7.773      0.000      0.000
REMARK INTER + INTRA:         -10.021
REMARK INTER:                  -9.591
REMARK INTRA:                  -0.430
REMARK UNBOUND:                -0.430
REMARK  Name = 
REMARK  4 active torsions:
REMARK  status: ('A' for Active; 'I' for Inactive)
REMARK    1  A    between atoms: C_2  and  C_4
REMARK    2  A    between atoms: C_7  and  N_8
REMARK    3  A    between atoms: N_8  and  C_9
REMARK    4  A    between atoms: C_9  and  C_10
REMARK                            x       y       z     vdW  Elec       q    Type
REMARK                         _______ _______ _______ _____ _____    ______ ____
ROOT
ATOM      1  C   UNL     1      46.389   2.326   7.826  0.00  0.00    +0.000 A 
ATOM      2  C   UNL     1      46.380   3.683   7.563  0.00  0.00    +0.000 A 
ATOM      3  N   UNL     1      45.524   4.536   8.187  0.00  0.00    +0.000 NA
ATOM      4  C   UNL     1      44.645   3.996   9.056  0.00  0.00    +0.000 A 
ATOM      5  C   UNL     1      44.704   2.624   9.334  0.00  0.00    +0.000 A 
ATOM      6  N   UNL     1      45.554   1.753   8.735  0.00  0.00    +0.000 NA
ENDROOT
BRANCH   1   8
ATOM      7  N   UNL     1      48.439   2.027   6.587  0.00  0.00    +0.000 N 
ATOM      8  C   UNL     1      47.326   1.423   7.108  0.00  0.00    +0.000 C 
ATOM      9  O   UNL     1      47.126   0.222   6.990  0.00  0.00    +0.000 OA
ATOM     10  H   UNL     1      49.127   1.474   6.093  0.00  0.00    +0.000 HD
ATOM     11  H   UNL     1      48.579   3.024   6.717  0.00  0.00    +0.000 HD
ENDBRANCH   1   8
BRANCH   4  12
ATOM     12  N   UNL     1      43.761   4.879   9.658  0.00  0.00    +0.000 N 
ATOM     13  H   UNL     1      44.002   5.829   9.382  0.00  0.00    +0.000 HD
BRANCH  12  14
ATOM     14  C   UNL     1      43.527   4.749  11.084  0.00  0.00    +0.000 C 
BRANCH  14  15
ATOM     15  C   UNL     1      44.714   5.279  11.853  0.00  0.00    +0.000 A 
ATOM     16  C   UNL     1      45.290   4.508  12.877  0.00  0.00    +0.000 A 
ATOM     17  C   UNL     1      46.421   4.960  13.558  0.00  0.00    +0.000 A 
ATOM     18  C   UNL     1      46.983   6.188  13.220  0.00  0.00    +0.000 A 
ATOM     19 CL   UNL     1      48.381   6.747  14.053  0.00  0.00    +0.000 Cl
ATOM     20  C   UNL     1      46.424   6.966  12.208  0.00  0.00    +0.000 A 
ATOM     21  C   UNL     1      45.293   6.513  11.524  0.00  0.00    +0.000 A 
ENDBRANCH  14  15
ENDBRANCH  12  14
ENDBRANCH   4  12
TORSDOF 4
ENDMDL
MODEL 2
REMARK VINA RESULT:    -7.524      3.880      6.159
REMARK INTER + INTRA:          -9.714
REMARK INTER:                  -9.290
REMARK INTRA:                  -0.424
REMARK UNBOUND:                -0.430
REMARK  Name = 
REMARK  4 active torsions:
REMARK  status: ('A' for Active; 'I' for Inactive)
REMARK    1  A    between atoms: C_2  and  C_4
REMARK    2  A    between atoms: C_7  and  N_8
REMARK    3  A    between atoms: N_8  and  C_9
REMARK    4  A    between atoms: C_9  and  C_10
REMARK                            x       y       z     vdW  Elec       q    Type
REMARK                         _______ _______ _______ _____ _____    ______ ____
ROOT
ATOM      1  C   UNL     1      46.569   4.764  14.091  0.00  0.00    +0.000 A 
ATOM      2  C   UNL     1      47.094   5.688  13.207  0.00  0.00    +0.000 A 
ATOM      3  N   UNL     1      46.433   6.067  12.080  0.00  0.00    +0.000 NA
ATOM      4  C   UNL     1      45.248   5.469  11.833  0.00  0.00    +0.000 A 
ATOM      5  C   UNL     1      44.723   4.567  12.767  0.00  0.00    +0.000 A 
ATOM      6  N   UNL     1      45.354   4.181  13.903  0.00  0.00    +0.000 NA
ENDROOT
BRANCH   1   8
ATOM      7  N   UNL     1      47.622   5.373  16.177  0.00  0.00    +0.000 N 
ATOM      8  C   UNL     1      47.332   4.360  15.302  0.00  0.00    +0.000 C 
ATOM      9  O   UNL     1      47.676   3.205  15.511  0.00  0.00    +0.000 OA
ATOM     10  H   UNL     1      48.130   5.172  17.028  0.00  0.00    +0.000 HD
ATOM     11  H   UNL     1      47.308   6.317  15.977  0.00  0.00    +0.000 HD
ENDBRANCH   1   8
BRANCH   4  12
ATOM     12  N   UNL     1      44.606   5.848  10.664  0.00  0.00    +0.000 N 
ATOM     13  H   UNL     1      44.118   6.727  10.823  0.00  0.00    +0.000 HD
BRANCH  12  14
ATOM     14  C   UNL     1      43.785   4.864   9.983  0.00  0.00    +0.000 C 
BRANCH  14  15
ATOM     15  C   UNL     1      44.658   3.922   9.190  0.00  0.00    +0.000 A 
ATOM     16  C   UNL     1      45.564   4.430   8.243  0.00  0.00    +0.000 A 
ATOM     17  C   UNL     1      46.417   3.576   7.543  0.00  0.00    +0.000 A 
ATOM     18  C   UNL     1      46.369   2.206   7.785  0.00  0.00    +0.000 A 
ATOM     19 CL   UNL     1      47.423   1.149   6.928  0.00  0.00    +0.000 Cl
ATOM     20  C   UNL     1      45.477   1.685   8.719  0.00  0.00    +0.000 A 
ATOM     21  C   UNL     1      44.623   2.540   9.421  0.00  0.00    +0.000 A 
ENDBRANCH  14  15
ENDBRANCH  12  14
ENDBRANCH   4  12
TORSDOF 4
ENDMDL
MODEL 3
REMARK VINA RESULT:    -7.453      3.964      6.288
REMARK INTER + INTRA:          -9.627
REMARK INTER:                  -9.313
REMARK INTRA:                  -0.313
REMARK UNBOUND:                -0.430
REMARK  Name = 
REMARK  4 active torsions:
REMARK  status: ('A' for Active; 'I' for Inactive)
REMARK    1  A    between atoms: C_2  and  C_4
REMARK    2  A    between atoms: C_7  and  N_8
REMARK    3  A    between atoms: N_8  and  C_9
REMARK    4  A    between atoms: C_9  and  C_10
REMARK                            x       y       z     vdW  Elec       q    Type
REMARK                         _______ _______ _______ _____ _____    ______ ____
ROOT
ATOM      1  C   UNL     1      46.901   5.454  13.399  0.00  0.00    +0.000 A 
ATOM      2  C   UNL     1      46.848   4.110  13.719  0.00  0.00    +0.000 A 
ATOM      3  N   UNL     1      46.067   3.234  13.032  0.00  0.00    +0.000 NA
ATOM      4  C   UNL     1      45.306   3.738  12.039  0.00  0.00    +0.000 A 
ATOM      5  C   UNL     1      45.411   5.096  11.711  0.00  0.00    +0.000 A 
ATOM      6  N   UNL     1      46.189   5.989  12.371  0.00  0.00    +0.000 NA
ENDROOT
BRANCH   1   8
ATOM      7  N   UNL     1      47.452   7.714  14.049  0.00  0.00    +0.000 N 
ATOM      8  C   UNL     1      47.752   6.385  14.187  0.00  0.00    +0.000 C 
ATOM      9  O   UNL     1      48.656   5.998  14.915  0.00  0.00    +0.000 OA
ATOM     10  H   UNL     1      47.982   8.405  14.562  0.00  0.00    +0.000 HD
ATOM     11  H   UNL     1      46.685   7.997  13.448  0.00  0.00    +0.000 HD
ENDBRANCH   1   8
BRANCH   4  12
ATOM     12  N   UNL     1      44.494   2.833  11.372  0.00  0.00    +0.000 N 
ATOM     13  H   UNL     1      44.943   1.919  11.378  0.00  0.00    +0.000 HD
BRANCH  12  14
ATOM     14  C   UNL     1      43.986   3.201  10.064  0.00  0.00    +0.000 C 
BRANCH  14  15
ATOM     15  C   UNL     1      45.043   2.959   9.012  0.00  0.00    +0.000 A 
ATOM     16  C   UNL     1      45.550   1.664   8.809  0.00  0.00    +0.000 A 
ATOM     17  C   UNL     1      46.485   1.415   7.804  0.00  0.00    +0.000 A 
ATOM     18  C   UNL     1      46.920   2.461   6.994  0.00  0.00    +0.000 A 
ATOM     19 CL   UNL     1      48.069   2.158   5.749  0.00  0.00    +0.000 Cl
ATOM     20  C   UNL     1      46.428   3.751   7.181  0.00  0.00    +0.000 A 
ATOM     21  C   UNL     1      45.490   4.000   8.187  0.00  0.00    +0.000 A 
ENDBRANCH  14  15
ENDBRANCH  12  14
ENDBRANCH   4  12
TORSDOF 4
ENDMDL
MODEL 4
REMARK VINA RESULT:    -7.173      3.994      6.474
REMARK INTER + INTRA:          -9.280
REMARK INTER:                  -8.889
REMARK INTRA:                  -0.392
REMARK UNBOUND:                -0.430
REMARK  Name = 
REMARK  4 active torsions:
REMARK  status: ('A' for Active; 'I' for Inactive)
REMARK    1  A    between atoms: C_2  and  C_4
REMARK    2  A    between atoms: C_7  and  N_8
REMARK    3  A    between atoms: N_8  and  C_9
REMARK    4  A    between atoms: C_9  and  C_10
REMARK                            x       y       z     vdW  Elec       q    Type
REMARK                         _______ _______ _______ _____ _____    ______ ____
ROOT
ATOM      1  C   UNL     1      45.653   7.007  12.719  0.00  0.00    +0.000 A 
ATOM      2  C   UNL     1      44.569   6.724  11.908  0.00  0.00    +0.000 A 
ATOM      3  N   UNL     1      44.269   5.456  11.519  0.00  0.00    +0.000 NA
ATOM      4  C   UNL     1      45.102   4.475  11.925  0.00  0.00    +0.000 A 
ATOM      5  C   UNL     1      46.168   4.786  12.779  0.00  0.00    +0.000 A 
ATOM      6  N   UNL     1      46.483   6.038  13.192  0.00  0.00    +0.000 NA
ENDROOT
BRANCH   1   8
ATOM      7  N   UNL     1      45.018   9.336  12.750  0.00  0.00    +0.000 N 
ATOM      8  C   UNL     1      45.961   8.409  13.106  0.00  0.00    +0.000 C 
ATOM      9  O   UNL     1      46.980   8.720  13.706  0.00  0.00    +0.000 OA
ATOM     10  H   UNL     1      45.155  10.310  12.989  0.00  0.00    +0.000 HD
ATOM     11  H   UNL     1      44.177   9.040  12.265  0.00  0.00    +0.000 HD
ENDBRANCH   1   8
BRANCH   4  12
ATOM     12  N   UNL     1      44.794   3.194  11.492  0.00  0.00    +0.000 N 
ATOM     13  H   UNL     1      45.627   2.613  11.559  0.00  0.00    +0.000 HD
BRANCH  12  14
ATOM     14  C   UNL     1      44.106   3.046  10.223  0.00  0.00    +0.000 C 
BRANCH  14  15
ATOM     15  C   UNL     1      45.109   2.889   9.106  0.00  0.00    +0.000 A 
ATOM     16  C   UNL     1      45.626   1.619   8.797  0.00  0.00    +0.000 A 
ATOM     17  C   UNL     1      46.511   1.450   7.732  0.00  0.00    +0.000 A 
ATOM     18  C   UNL     1      46.885   2.551   6.966  0.00  0.00    +0.000 A 
ATOM     19 CL   UNL     1      47.972   2.346   5.647  0.00  0.00    +0.000 Cl
ATOM     20  C   UNL     1      46.383   3.817   7.258  0.00  0.00    +0.000 A 
ATOM     21  C   UNL     1      45.496   3.987   8.325  0.00  0.00    +0.000 A 
ENDBRANCH  14  15
ENDBRANCH  12  14
ENDBRANCH   4  12
TORSDOF 4
ENDMDL
MODEL 5
REMARK VINA RESULT:    -6.109      4.313      5.959
REMARK INTER + INTRA:          -7.968
REMARK INTER:                  -7.641
REMARK INTRA:                  -0.327
REMARK UNBOUND:                -0.430
REMARK  Name = 
REMARK  4 active torsions:
REMARK  status: ('A' for Active; 'I' for Inactive)
REMARK    1  A    between atoms: C_2  and  C_4
REMARK    2  A    between atoms: C_7  and  N_8
REMARK    3  A    between atoms: N_8  and  C_9
REMARK    4  A    between atoms: C_9  and  C_10
REMARK                            x       y       z     vdW  Elec       q    Type
REMARK                         _______ _______ _______ _____ _____    ______ ____
ROOT
ATOM      1  C   UNL     1      45.172   4.276  11.683  0.00  0.00    +0.000 A 
ATOM      2  C   UNL     1      45.629   3.266  12.509  0.00  0.00    +0.000 A 
ATOM      3  N   UNL     1      46.283   3.523  13.673  0.00  0.00    +0.000 NA
ATOM      4  C   UNL     1      46.508   4.819  13.977  0.00  0.00    +0.000 A 
ATOM      5  C   UNL     1      45.998   5.822  13.143  0.00  0.00    +0.000 A 
ATOM      6  N   UNL     1      45.332   5.594  11.984  0.00  0.00    +0.000 NA
ENDROOT
BRANCH   1   8
ATOM      7  N   UNL     1      43.728   4.969   9.876  0.00  0.00    +0.000 N 
ATOM      8  C   UNL     1      44.479   3.954  10.408  0.00  0.00    +0.000 C 
ATOM      9  O   UNL     1      44.572   2.863   9.863  0.00  0.00    +0.000 OA
ATOM     10  H   UNL     1      43.235   4.826   9.005  0.00  0.00    +0.000 HD
ATOM     11  H   UNL     1      43.685   5.866  10.349  0.00  0.00    +0.000 HD
ENDBRANCH   1   8
BRANCH   4  12
ATOM     12  N   UNL     1      47.203   5.058  15.153  0.00  0.00    +0.000 N 
ATOM     13  H   UNL     1      48.171   5.278  14.927  0.00  0.00    +0.000 HD
BRANCH  12  14
ATOM     14  C   UNL     1      47.083   4.092  16.230  0.00  0.00    +0.000 C 
BRANCH  14  15
ATOM     15  C   UNL     1      48.451   3.737  16.761  0.00  0.00    +0.000 A 
ATOM     16  C   UNL     1      48.905   2.408  16.705  0.00  0.00    +0.000 A 
ATOM     17  C   UNL     1      50.188   2.075  17.141  0.00  0.00    +0.000 A 
ATOM     18  C   UNL     1      51.027   3.069  17.636  0.00  0.00    +0.000 A 
ATOM     19 CL   UNL     1      52.612   2.664  18.170  0.00  0.00    +0.000 Cl
ATOM     20  C   UNL     1      50.593   4.392  17.700  0.00  0.00    +0.000 A 
ATOM     21  C   UNL     1      49.308   4.726  17.262  0.00  0.00    +0.000 A 
ENDBRANCH  14  15
ENDBRANCH  12  14
ENDBRANCH   4  12
TORSDOF 4
ENDMDL
MODEL 6
REMARK VINA RESULT:    -6.099      4.289      6.596
REMARK INTER + INTRA:          -7.955
REMARK INTER:                  -7.728
REMARK INTRA:                  -0.227
REMARK UNBOUND:                -0.430
REMARK  Name = 
REMARK  4 active torsions:
REMARK  status: ('A' for Active; 'I' for Inactive)
REMARK    1  A    between atoms: C_2  and  C_4
REMARK    2  A    between atoms: C_7  and  N_8
REMARK    3  A    between atoms: N_8  and  C_9
REMARK    4  A    between atoms: C_9  and  C_10
REMARK                            x       y       z     vdW  Elec       q    Type
REMARK                         _______ _______ _______ _____ _____    ______ ____
ROOT
ATOM      1  C   UNL     1      47.447   7.141  13.485  0.00  0.00    +0.000 A 
ATOM      2  C   UNL     1      46.581   8.077  12.951  0.00  0.00    +0.000 A 
ATOM      3  N   UNL     1      45.660   7.754  12.004  0.00  0.00    +0.000 NA
ATOM      4  C   UNL     1      45.649   6.476  11.570  0.00  0.00    +0.000 A 
ATOM      5  C   UNL     1      46.510   5.540  12.158  0.00  0.00    +0.000 A 
ATOM      6  N   UNL     1      47.429   5.833  13.111  0.00  0.00    +0.000 NA
ENDROOT
BRANCH   1   8
ATOM      7  N   UNL     1      48.217   7.080  15.772  0.00  0.00    +0.000 N 
ATOM      8  C   UNL     1      48.454   7.538  14.504  0.00  0.00    +0.000 C 
ATOM      9  O   UNL     1      49.432   8.221  14.235  0.00  0.00    +0.000 OA
ATOM     10  H   UNL     1      48.864   7.303  16.517  0.00  0.00    +0.000 HD
ATOM     11  H   UNL     1      47.402   6.503  15.956  0.00  0.00    +0.000 HD
ENDBRANCH   1   8
BRANCH   4  12
ATOM     12  N   UNL     1      44.723   6.175  10.582  0.00  0.00    +0.000 N 
ATOM     13  H   UNL     1      44.021   6.913  10.551  0.00  0.00    +0.000 HD
BRANCH  12  14
ATOM     14  C   UNL     1      44.143   4.846  10.568  0.00  0.00    +0.000 C 
BRANCH  14  15
ATOM     15  C   UNL     1      44.853   3.983   9.552  0.00  0.00    +0.000 A 
ATOM     16  C   UNL     1      45.612   4.579   8.531  0.00  0.00    +0.000 A 
ATOM     17  C   UNL     1      46.319   3.795   7.619  0.00  0.00    +0.000 A 
ATOM     18  C   UNL     1      46.271   2.407   7.721  0.00  0.00    +0.000 A 
ATOM     19 CL   UNL     1      47.145   1.435   6.602  0.00  0.00    +0.000 Cl
ATOM     20  C   UNL     1      45.522   1.800   8.727  0.00  0.00    +0.000 A 
ATOM     21  C   UNL     1      44.815   2.585   9.642  0.00  0.00    +0.000 A 
ENDBRANCH  14  15
ENDBRANCH  12  14
ENDBRANCH   4  12
TORSDOF 4
ENDMDL
MODEL 7
REMARK VINA RESULT:    -5.927      5.360      7.375
REMARK INTER + INTRA:          -7.743
REMARK INTER:                  -7.412
REMARK INTRA:                  -0.331
REMARK UNBOUND:                -0.430
REMARK  Name = 
REMARK  4 active torsions:
REMARK  status: ('A' for Active; 'I' for Inactive)
REMARK    1  A    between atoms: C_2  and  C_4
REMARK    2  A    between atoms: C_7  and  N_8
REMARK    3  A    between atoms: N_8  and  C_9
REMARK    4  A    between atoms: C_9  and  C_10
REMARK                            x       y       z     vdW  Elec       q    Type
REMARK                         _______ _______ _______ _____ _____    ______ ____
ROOT
ATOM      1  C   UNL     1      48.487   4.082  16.732  0.00  0.00    +0.000 A 
ATOM      2  C   UNL     1      47.546   3.395  15.988  0.00  0.00    +0.000 A 
ATOM      3  N   UNL     1      46.904   3.962  14.932  0.00  0.00    +0.000 NA
ATOM      4  C   UNL     1      47.194   5.251  14.658  0.00  0.00    +0.000 A 
ATOM      5  C   UNL     1      48.181   5.910  15.403  0.00  0.00    +0.000 A 
ATOM      6  N   UNL     1      48.845   5.364  16.452  0.00  0.00    +0.000 NA
ENDROOT
BRANCH   1   8
ATOM      7  N   UNL     1      48.343   3.179  18.967  0.00  0.00    +0.000 N 
ATOM      8  C   UNL     1      49.153   3.433  17.892  0.00  0.00    +0.000 C 
ATOM      9  O   UNL     1      50.340   3.139  17.893  0.00  0.00    +0.000 OA
ATOM     10  H   UNL     1      48.724   2.731  19.790  0.00  0.00    +0.000 HD
ATOM     11  H   UNL     1      47.359   3.424  18.925  0.00  0.00    +0.000 HD
ENDBRANCH   1   8
BRANCH   4  12
ATOM     12  N   UNL     1      46.506   5.820  13.596  0.00  0.00    +0.000 N 
ATOM     13  H   UNL     1      46.504   6.832  13.707  0.00  0.00    +0.000 HD
BRANCH  12  14
ATOM     14  C   UNL     1      45.197   5.288  13.264  0.00  0.00    +0.000 C 
BRANCH  14  15
ATOM     15  C   UNL     1      45.174   4.835  11.823  0.00  0.00    +0.000 A 
ATOM     16  C   UNL     1      45.627   5.695  10.808  0.00  0.00    +0.000 A 
ATOM     17  C   UNL     1      45.664   5.271   9.479  0.00  0.00    +0.000 A 
ATOM     18  C   UNL     1      45.248   3.982   9.157  0.00  0.00    +0.000 A 
ATOM     19 CL   UNL     1      45.297   3.452   7.520  0.00  0.00    +0.000 Cl
ATOM     20  C   UNL     1      44.796   3.117  10.151  0.00  0.00    +0.000 A 
ATOM     21  C   UNL     1      44.759   3.541  11.482  0.00  0.00    +0.000 A 
ENDBRANCH  14  15
ENDBRANCH  12  14
ENDBRANCH   4  12
TORSDOF 4
ENDMDL
MODEL 8
REMARK VINA RESULT:    -5.334      3.599      5.057
REMARK INTER + INTRA:          -7.012
REMARK INTER:                  -6.653
REMARK INTRA:                  -0.359
REMARK UNBOUND:                -0.430
REMARK  Name = 
REMARK  4 active torsions:
REMARK  status: ('A' for Active; 'I' for Inactive)
REMARK    1  A    between atoms: C_2  and  C_4
REMARK    2  A    between atoms: C_7  and  N_8
REMARK    3  A    between atoms: N_8  and  C_9
REMARK    4  A    between atoms: C_9  and  C_10
REMARK                            x       y       z     vdW  Elec       q    Type
REMARK                         _______ _______ _______ _____ _____    ______ ____
ROOT
ATOM      1  C   UNL     1      44.849   3.959  11.728  0.00  0.00    +0.000 A 
ATOM      2  C   UNL     1      45.147   5.149  11.092  0.00  0.00    +0.000 A 
ATOM      3  N   UNL     1      45.804   6.161  11.720  0.00  0.00    +0.000 NA
ATOM      4  C   UNL     1      46.123   5.972  13.017  0.00  0.00    +0.000 A 
ATOM      5  C   UNL     1      45.845   4.740  13.624  0.00  0.00    +0.000 A 
ATOM      6  N   UNL     1      45.203   3.712  13.018  0.00  0.00    +0.000 NA
ENDROOT
BRANCH   1   8
ATOM      7  N   UNL     1      44.752   2.358   9.923  0.00  0.00    +0.000 N 
ATOM      8  C   UNL     1      44.111   2.884  11.012  0.00  0.00    +0.000 C 
ATOM      9  O   UNL     1      43.009   2.489  11.369  0.00  0.00    +0.000 OA
ATOM     10  H   UNL     1      44.315   1.616   9.392  0.00  0.00    +0.000 HD
ATOM     11  H   UNL     1      45.671   2.700   9.665  0.00  0.00    +0.000 HD
ENDBRANCH   1   8
BRANCH   4  12
ATOM     12  N   UNL     1      46.765   7.028  13.648  0.00  0.00    +0.000 N 
ATOM     13  H   UNL     1      46.254   7.268  14.495  0.00  0.00    +0.000 HD
BRANCH  12  14
ATOM     14  C   UNL     1      47.115   8.190  12.853  0.00  0.00    +0.000 C 
BRANCH  14  15
ATOM     15  C   UNL     1      48.613   8.259  12.669  0.00  0.00    +0.000 A 
ATOM     16  C   UNL     1      49.210   7.669  11.542  0.00  0.00    +0.000 A 
ATOM     17  C   UNL     1      50.586   7.773  11.329  0.00  0.00    +0.000 A 
ATOM     18  C   UNL     1      51.373   8.467  12.243  0.00  0.00    +0.000 A 
ATOM     19 CL   UNL     1      53.069   8.603  11.982  0.00  0.00    +0.000 Cl
ATOM     20  C   UNL     1      50.797   9.058  13.366  0.00  0.00    +0.000 A 
ATOM     21  C   UNL     1      49.420   8.955  13.579  0.00  0.00    +0.000 A 
ENDBRANCH  14  15
ENDBRANCH  12  14
ENDBRANCH   4  12
TORSDOF 4
ENDMDL
MODEL 9
REMARK VINA RESULT:    -5.272      6.164      7.881
REMARK INTER + INTRA:          -6.935
REMARK INTER:                  -6.641
REMARK INTRA:                  -0.294
REMARK UNBOUND:                -0.430
REMARK  Name = 
REMARK  4 active torsions:
REMARK  status: ('A' for Active; 'I' for Inactive)
REMARK    1  A    between atoms: C_2  and  C_4
REMARK    2  A    between atoms: C_7  and  N_8
REMARK    3  A    between atoms: N_8  and  C_9
REMARK    4  A    between atoms: C_9  and  C_10
REMARK                            x       y       z     vdW  Elec       q    Type
REMARK                         _______ _______ _______ _____ _____    ______ ____
ROOT
ATOM      1  C   UNL     1      50.204   3.079  17.277  0.00  0.00    +0.000 A 
ATOM      2  C   UNL     1      49.489   2.137  16.561  0.00  0.00    +0.000 A 
ATOM      3  N   UNL     1      48.373   2.459  15.854  0.00  0.00    +0.000 NA
ATOM      4  C   UNL     1      47.961   3.743  15.910  0.00  0.00    +0.000 A 
ATOM      5  C   UNL     1      48.728   4.684  16.609  0.00  0.00    +0.000 A 
ATOM      6  N   UNL     1      49.850   4.392  17.312  0.00  0.00    +0.000 NA
ENDROOT
BRANCH   1   8
ATOM      7  N   UNL     1      51.700   1.345  18.043  0.00  0.00    +0.000 N 
ATOM      8  C   UNL     1      51.408   2.683  18.054  0.00  0.00    +0.000 C 
ATOM      9  O   UNL     1      52.098   3.491  18.661  0.00  0.00    +0.000 OA
ATOM     10  H   UNL     1      52.510   1.002  18.543  0.00  0.00    +0.000 HD
ATOM     11  H   UNL     1      51.113   0.705  17.517  0.00  0.00    +0.000 HD
ENDBRANCH   1   8
BRANCH   4  12
ATOM     12  N   UNL     1      46.804   4.044  15.206  0.00  0.00    +0.000 N 
ATOM     13  H   UNL     1      46.494   3.211  14.708  0.00  0.00    +0.000 HD
BRANCH  12  14
ATOM     14  C   UNL     1      46.797   5.232  14.375  0.00  0.00    +0.000 C 
BRANCH  14  15
ATOM     15  C   UNL     1      46.122   4.937  13.056  0.00  0.00    +0.000 A 
ATOM     16  C   UNL     1      46.066   5.925  12.058  0.00  0.00    +0.000 A 
ATOM     17  C   UNL     1      45.495   5.649  10.815  0.00  0.00    +0.000 A 
ATOM     18  C   UNL     1      44.976   4.383  10.561  0.00  0.00    +0.000 A 
ATOM     19 CL   UNL     1      44.277   4.036   9.028  0.00  0.00    +0.000 Cl
ATOM     20  C   UNL     1      45.023   3.392  11.540  0.00  0.00    +0.000 A 
ATOM     21  C   UNL     1      45.595   3.667  12.785  0.00  0.00    +0.000 A 
ENDBRANCH  14  15
ENDBRANCH  12  14
ENDBRANCH   4  12
TORSDOF 4
ENDMDL
