MODEL 1
REMARK VINA RESULT:    -7.245      0.000      0.000
REMARK INTER + INTRA:          -9.419
REMARK INTER:                  -9.152
REMARK INTRA:                  -0.268
REMARK UNBOUND:                -0.268
REMARK  Name = 
REMARK  8 active torsions:
REMARK  status: ('A' for Active; 'I' for Inactive)
REMARK    1  A    between atoms: C_1  and  C_2
REMARK    2  A    between atoms: C_2  and  C_3
REMARK    3  A    between atoms: C_2  and  C_4
REMARK    4  A    between atoms: C_2  and  C_5
REMARK    5  A    between atoms: C_7  and  C_8
REMARK    6  A    between atoms: C_8  and  N_9
REMARK    7  A    between atoms: C_14  and  C_15
REMARK    8  A    between atoms: C_23  and  O_24
REMARK                            x       y       z     vdW  Elec       q    Type
REMARK                         _______ _______ _______ _____ _____    ______ ____
ROOT
ATOM      1  N   UNL     1      43.874   4.487  10.573  0.00  0.00    +0.000 N 
ATOM      2  C   UNL     1      43.469   3.405  11.322  0.00  0.00    +0.000 A 
ATOM      3  C   UNL     1      44.102   2.284  10.830  0.00  0.00    +0.000 A 
ATOM      4  C   UNL     1      44.911   2.694   9.746  0.00  0.00    +0.000 A 
ATOM      5  N   UNL     1      45.708   1.937   8.954  0.00  0.00    +0.000 NA
ATOM      6  C   UNL     1      46.362   2.636   7.987  0.00  0.00    +0.000 A 
ATOM      7  C   UNL     1      46.277   4.009   7.779  0.00  0.00    +0.000 A 
ATOM      8  C   UNL     1      45.454   4.771   8.603  0.00  0.00    +0.000 A 
ATOM      9  C   UNL     1      44.760   4.074   9.597  0.00  0.00    +0.000 A 
ENDROOT
BRANCH   6  10
ATOM     10  C   UNL     1      47.240   1.828   7.078  0.00  0.00    +0.000 C 
ATOM     11  N   UNL     1      48.309   2.498   6.543  0.00  0.00    +0.000 N 
ATOM     12  O   UNL     1      47.030   0.648   6.824  0.00  0.00    +0.000 OA
ATOM     13  H   UNL     1      48.462   3.472   6.782  0.00  0.00    +0.000 HD
ATOM     14  H   UNL     1      48.951   2.010   5.935  0.00  0.00    +0.000 HD
ENDBRANCH   6  10
BRANCH   1  15
ATOM     15  C   UNL     1      43.368   5.848  10.748  0.00  0.00    +0.000 C 
BRANCH  15  18
ATOM     16  C   UNL     1      46.497   7.130  12.578  0.00  0.00    +0.000 A 
ATOM     17  C   UNL     1      45.515   6.304  11.983  0.00  0.00    +0.000 A 
ATOM     18  C   UNL     1      44.380   6.819  11.319  0.00  0.00    +0.000 A 
ATOM     19  C   UNL     1      44.203   8.205  11.288  0.00  0.00    +0.000 A 
ATOM     20  C   UNL     1      45.166   9.049  11.834  0.00  0.00    +0.000 A 
ATOM     21  C   UNL     1      46.301   8.516  12.452  0.00  0.00    +0.000 A 
BRANCH  16  23
ATOM     22  C   UNL     1      47.986   7.245  14.694  0.00  0.00    +0.000 C 
ATOM     23  C   UNL     1      47.698   6.533  13.347  0.00  0.00    +0.000 C 
ATOM     24  C   UNL     1      48.993   6.666  12.510  0.00  0.00    +0.000 C 
ATOM     25  C   UNL     1      47.456   5.045  13.684  0.00  0.00    +0.000 C 
ENDBRANCH  16  23
BRANCH  21  26
ATOM     26  O   UNL     1      47.234   9.387  12.945  0.00  0.00    +0.000 OA
ATOM     27  H   UNL     1      46.783  10.095  13.433  0.00  0.00    +0.000 HD
ENDBRANCH  21  26
ENDBRANCH  15  18
ENDBRANCH   1  15
TORSDOF 5
ENDMDL
MODEL 2
REMARK VINA RESULT:    -7.063      1.374      2.253
REMARK INTER + INTRA:          -9.189
REMARK INTER:                  -8.898
REMARK INTRA:                  -0.291
REMARK UNBOUND:                -0.268
REMARK  Name = 
REMARK  8 active torsions:
REMARK  status: ('A' for Active; 'I' for Inactive)
REMARK    1  A    between atoms: C_1  and  C_2
REMARK    2  A    between atoms: C_2  and  C_3
REMARK    3  A    between atoms: C_2  and  C_4
REMARK    4  A    between atoms: C_2  and  C_5
REMARK    5  A    between atoms: C_7  and  C_8
REMARK    6  A    between atoms: C_8  and  N_9
REMARK    7  A    between atoms: C_14  and  C_15
REMARK    8  A    between atoms: C_23  and  O_24
REMARK                            x       y       z     vdW  Elec       q    Type
REMARK                         _______ _______ _______ _____ _____    ______ ____
ROOT
ATOM      1  N   UNL     1      44.481   4.306  10.517  0.00  0.00    +0.000 N 
ATOM      2  C   UNL     1      43.818   3.148  10.859  0.00  0.00    +0.000 A 
ATOM      3  C   UNL     1      44.200   2.161   9.977  0.00  0.00    +0.000 A 
ATOM      4  C   UNL     1      45.116   2.735   9.067  0.00  0.00    +0.000 A 
ATOM      5  N   UNL     1      45.749   2.148   8.022  0.00  0.00    +0.000 NA
ATOM      6  C   UNL     1      46.576   2.978   7.331  0.00  0.00    +0.000 A 
ATOM      7  C   UNL     1      46.808   4.319   7.620  0.00  0.00    +0.000 A 
ATOM      8  C   UNL     1      46.150   4.906   8.696  0.00  0.00    +0.000 A 
ATOM      9  C   UNL     1      45.284   4.077   9.417  0.00  0.00    +0.000 A 
ENDROOT
BRANCH   6  10
ATOM     10  C   UNL     1      47.279   2.368   6.155  0.00  0.00    +0.000 C 
ATOM     11  N   UNL     1      47.177   3.066   4.980  0.00  0.00    +0.000 N 
ATOM     12  O   UNL     1      47.910   1.320   6.225  0.00  0.00    +0.000 OA
ATOM     13  H   UNL     1      46.657   3.937   4.958  0.00  0.00    +0.000 HD
ATOM     14  H   UNL     1      47.640   2.721   4.152  0.00  0.00    +0.000 HD
ENDBRANCH   6  10
BRANCH   1  15
ATOM     15  C   UNL     1      44.288   5.595  11.181  0.00  0.00    +0.000 C 
BRANCH  15  18
ATOM     16  C   UNL     1      47.095   7.734  12.706  0.00  0.00    +0.000 A 
ATOM     17  C   UNL     1      46.006   7.278  11.927  0.00  0.00    +0.000 A 
ATOM     18  C   UNL     1      45.426   6.001  12.093  0.00  0.00    +0.000 A 
ATOM     19  C   UNL     1      45.983   5.139  13.042  0.00  0.00    +0.000 A 
ATOM     20  C   UNL     1      47.033   5.568  13.850  0.00  0.00    +0.000 A 
ATOM     21  C   UNL     1      47.565   6.850  13.693  0.00  0.00    +0.000 A 
BRANCH  16  23
ATOM     22  C   UNL     1      48.209   9.820  13.760  0.00  0.00    +0.000 C 
ATOM     23  C   UNL     1      47.743   9.116  12.460  0.00  0.00    +0.000 C 
ATOM     24  C   UNL     1      46.728  10.077  11.796  0.00  0.00    +0.000 C 
ATOM     25  C   UNL     1      48.993   8.990  11.561  0.00  0.00    +0.000 C 
ENDBRANCH  16  23
BRANCH  21  26
ATOM     26  O   UNL     1      48.574   7.235  14.531  0.00  0.00    +0.000 OA
ATOM     27  H   UNL     1      48.958   6.448  14.951  0.00  0.00    +0.000 HD
ENDBRANCH  21  26
ENDBRANCH  15  18
ENDBRANCH   1  15
TORSDOF 5
ENDMDL
MODEL 3
REMARK VINA RESULT:    -6.871      1.197      2.822
REMARK INTER + INTRA:          -8.947
REMARK INTER:                  -8.806
REMARK INTRA:                  -0.140
REMARK UNBOUND:                -0.268
REMARK  Name = 
REMARK  8 active torsions:
REMARK  status: ('A' for Active; 'I' for Inactive)
REMARK    1  A    between atoms: C_1  and  C_2
REMARK    2  A    between atoms: C_2  and  C_3
REMARK    3  A    between atoms: C_2  and  C_4
REMARK    4  A    between atoms: C_2  and  C_5
REMARK    5  A    between atoms: C_7  and  C_8
REMARK    6  A    between atoms: C_8  and  N_9
REMARK    7  A    between atoms: C_14  and  C_15
REMARK    8  A    between atoms: C_23  and  O_24
REMARK                            x       y       z     vdW  Elec       q    Type
REMARK                         _______ _______ _______ _____ _____    ______ ____
ROOT
ATOM      1  N   UNL     1      43.704   4.254  10.591  0.00  0.00    +0.000 N 
ATOM      2  C   UNL     1      43.376   3.151  11.346  0.00  0.00    +0.000 A 
ATOM      3  C   UNL     1      44.090   2.075  10.865  0.00  0.00    +0.000 A 
ATOM      4  C   UNL     1      44.870   2.534   9.779  0.00  0.00    +0.000 A 
ATOM      5  N   UNL     1      45.721   1.830   8.995  0.00  0.00    +0.000 NA
ATOM      6  C   UNL     1      46.327   2.568   8.024  0.00  0.00    +0.000 A 
ATOM      7  C   UNL     1      46.144   3.930   7.806  0.00  0.00    +0.000 A 
ATOM      8  C   UNL     1      45.266   4.637   8.622  0.00  0.00    +0.000 A 
ATOM      9  C   UNL     1      44.621   3.899   9.620  0.00  0.00    +0.000 A 
ENDROOT
BRANCH   6  10
ATOM     10  C   UNL     1      47.263   1.819   7.123  0.00  0.00    +0.000 C 
ATOM     11  N   UNL     1      48.277   2.562   6.577  0.00  0.00    +0.000 N 
ATOM     12  O   UNL     1      47.145   0.623   6.884  0.00  0.00    +0.000 OA
ATOM     13  H   UNL     1      48.354   3.548   6.804  0.00  0.00    +0.000 HD
ATOM     14  H   UNL     1      48.953   2.118   5.974  0.00  0.00    +0.000 HD
ENDBRANCH   6  10
BRANCH   1  15
ATOM     15  C   UNL     1      43.101   5.576  10.755  0.00  0.00    +0.000 C 
BRANCH  15  18
ATOM     16  C   UNL     1      44.738   8.965  11.543  0.00  0.00    +0.000 A 
ATOM     17  C   UNL     1      43.912   7.947  11.013  0.00  0.00    +0.000 A 
ATOM     18  C   UNL     1      44.008   6.596  11.412  0.00  0.00    +0.000 A 
ATOM     19  C   UNL     1      44.992   6.249  12.341  0.00  0.00    +0.000 A 
ATOM     20  C   UNL     1      45.800   7.230  12.909  0.00  0.00    +0.000 A 
ATOM     21  C   UNL     1      45.660   8.567  12.527  0.00  0.00    +0.000 A 
BRANCH  16  23
ATOM     22  C   UNL     1      43.692  11.309  11.888  0.00  0.00    +0.000 C 
ATOM     23  C   UNL     1      44.645  10.425  11.042  0.00  0.00    +0.000 C 
ATOM     24  C   UNL     1      44.092  10.465   9.598  0.00  0.00    +0.000 C 
ATOM     25  C   UNL     1      46.027  11.113  11.082  0.00  0.00    +0.000 C 
ENDBRANCH  16  23
BRANCH  21  26
ATOM     26  O   UNL     1      46.455   9.497  13.136  0.00  0.00    +0.000 OA
ATOM     27  H   UNL     1      47.340   9.122  13.270  0.00  0.00    +0.000 HD
ENDBRANCH  21  26
ENDBRANCH  15  18
ENDBRANCH   1  15
TORSDOF 5
ENDMDL
MODEL 4
REMARK VINA RESULT:    -6.260      4.208      7.910
REMARK INTER + INTRA:          -8.175
REMARK INTER:                  -7.684
REMARK INTRA:                  -0.491
REMARK UNBOUND:                -0.268
REMARK  Name = 
REMARK  8 active torsions:
REMARK  status: ('A' for Active; 'I' for Inactive)
REMARK    1  A    between atoms: C_1  and  C_2
REMARK    2  A    between atoms: C_2  and  C_3
REMARK    3  A    between atoms: C_2  and  C_4
REMARK    4  A    between atoms: C_2  and  C_5
REMARK    5  A    between atoms: C_7  and  C_8
REMARK    6  A    between atoms: C_8  and  N_9
REMARK    7  A    between atoms: C_14  and  C_15
REMARK    8  A    between atoms: C_23  and  O_24
REMARK                            x       y       z     vdW  Elec       q    Type
REMARK                         _______ _______ _______ _____ _____    ______ ____
ROOT
ATOM      1  N   UNL     1      48.996   7.111  14.523  0.00  0.00    +0.000 N 
ATOM      2  C   UNL     1      49.531   8.326  14.886  0.00  0.00    +0.000 A 
ATOM      3  C   UNL     1      49.533   8.397  16.262  0.00  0.00    +0.000 A 
ATOM      4  C   UNL     1      48.976   7.194  16.752  0.00  0.00    +0.000 A 
ATOM      5  N   UNL     1      48.770   6.821  18.038  0.00  0.00    +0.000 NA
ATOM      6  C   UNL     1      48.209   5.589  18.179  0.00  0.00    +0.000 A 
ATOM      7  C   UNL     1      47.862   4.730  17.141  0.00  0.00    +0.000 A 
ATOM      8  C   UNL     1      48.082   5.129  15.827  0.00  0.00    +0.000 A 
ATOM      9  C   UNL     1      48.646   6.398  15.653  0.00  0.00    +0.000 A 
ENDROOT
BRANCH   6  10
ATOM     10  C   UNL     1      47.948   5.149  19.589  0.00  0.00    +0.000 C 
ATOM     11  N   UNL     1      48.458   3.923  19.928  0.00  0.00    +0.000 N 
ATOM     12  O   UNL     1      47.326   5.830  20.397  0.00  0.00    +0.000 OA
ATOM     13  H   UNL     1      48.979   3.389  19.240  0.00  0.00    +0.000 HD
ATOM     14  H   UNL     1      48.334   3.573  20.866  0.00  0.00    +0.000 HD
ENDBRANCH   6  10
BRANCH   1  15
ATOM     15  C   UNL     1      48.765   6.690  13.141  0.00  0.00    +0.000 C 
BRANCH  15  18
ATOM     16  C   UNL     1      45.178   5.924  11.988  0.00  0.00    +0.000 A 
ATOM     17  C   UNL     1      46.501   5.811  12.477  0.00  0.00    +0.000 A 
ATOM     18  C   UNL     1      47.353   6.924  12.647  0.00  0.00    +0.000 A 
ATOM     19  C   UNL     1      46.878   8.184  12.276  0.00  0.00    +0.000 A 
ATOM     20  C   UNL     1      45.570   8.337  11.824  0.00  0.00    +0.000 A 
ATOM     21  C   UNL     1      44.732   7.226  11.700  0.00  0.00    +0.000 A 
BRANCH  16  23
ATOM     22  C   UNL     1      43.797   4.531  10.297  0.00  0.00    +0.000 C 
ATOM     23  C   UNL     1      44.291   4.679  11.760  0.00  0.00    +0.000 C 
ATOM     24  C   UNL     1      43.016   4.759  12.633  0.00  0.00    +0.000 C 
ATOM     25  C   UNL     1      45.060   3.381  12.093  0.00  0.00    +0.000 C 
ENDBRANCH  16  23
BRANCH  21  26
ATOM     26  O   UNL     1      43.447   7.432  11.282  0.00  0.00    +0.000 OA
ATOM     27  H   UNL     1      43.363   8.337  10.942  0.00  0.00    +0.000 HD
ENDBRANCH  21  26
ENDBRANCH  15  18
ENDBRANCH   1  15
TORSDOF 5
ENDMDL
MODEL 5
REMARK VINA RESULT:    -6.183      3.721      6.075
REMARK INTER + INTRA:          -8.077
REMARK INTER:                  -7.576
REMARK INTRA:                  -0.501
REMARK UNBOUND:                -0.268
REMARK  Name = 
REMARK  8 active torsions:
REMARK  status: ('A' for Active; 'I' for Inactive)
REMARK    1  A    between atoms: C_1  and  C_2
REMARK    2  A    between atoms: C_2  and  C_3
REMARK    3  A    between atoms: C_2  and  C_4
REMARK    4  A    between atoms: C_2  and  C_5
REMARK    5  A    between atoms: C_7  and  C_8
REMARK    6  A    between atoms: C_8  and  N_9
REMARK    7  A    between atoms: C_14  and  C_15
REMARK    8  A    between atoms: C_23  and  O_24
REMARK                            x       y       z     vdW  Elec       q    Type
REMARK                         _______ _______ _______ _____ _____    ______ ____
ROOT
ATOM      1  N   UNL     1      47.578   7.258  13.455  0.00  0.00    +0.000 N 
ATOM      2  C   UNL     1      46.881   8.420  13.210  0.00  0.00    +0.000 A 
ATOM      3  C   UNL     1      45.618   8.078  12.780  0.00  0.00    +0.000 A 
ATOM      4  C   UNL     1      45.544   6.667  12.755  0.00  0.00    +0.000 A 
ATOM      5  N   UNL     1      44.500   5.883  12.393  0.00  0.00    +0.000 NA
ATOM      6  C   UNL     1      44.748   4.547  12.479  0.00  0.00    +0.000 A 
ATOM      7  C   UNL     1      45.940   3.968  12.904  0.00  0.00    +0.000 A 
ATOM      8  C   UNL     1      47.000   4.789  13.273  0.00  0.00    +0.000 A 
ATOM      9  C   UNL     1      46.776   6.167  13.181  0.00  0.00    +0.000 A 
ENDROOT
BRANCH   6  10
ATOM     10  C   UNL     1      43.622   3.647  12.067  0.00  0.00    +0.000 C 
ATOM     11  N   UNL     1      43.702   2.357  12.523  0.00  0.00    +0.000 N 
ATOM     12  O   UNL     1      42.684   4.024  11.374  0.00  0.00    +0.000 OA
ATOM     13  H   UNL     1      44.485   2.078  13.105  0.00  0.00    +0.000 HD
ATOM     14  H   UNL     1      42.969   1.701  12.297  0.00  0.00    +0.000 HD
ENDBRANCH   6  10
BRANCH   1  15
ATOM     15  C   UNL     1      48.981   7.207  13.864  0.00  0.00    +0.000 C 
BRANCH  15  18
ATOM     16  C   UNL     1      48.743   6.319  17.598  0.00  0.00    +0.000 A 
ATOM     17  C   UNL     1      48.627   6.303  16.188  0.00  0.00    +0.000 A 
ATOM     18  C   UNL     1      49.195   7.296  15.361  0.00  0.00    +0.000 A 
ATOM     19  C   UNL     1      49.863   8.362  15.969  0.00  0.00    +0.000 A 
ATOM     20  C   UNL     1      50.026   8.393  17.351  0.00  0.00    +0.000 A 
ATOM     21  C   UNL     1      49.488   7.377  18.147  0.00  0.00    +0.000 A 
BRANCH  16  23
ATOM     22  C   UNL     1      49.062   4.394  19.300  0.00  0.00    +0.000 C 
ATOM     23  C   UNL     1      48.061   5.247  18.478  0.00  0.00    +0.000 C 
ATOM     24  C   UNL     1      47.274   4.247  17.597  0.00  0.00    +0.000 C 
ATOM     25  C   UNL     1      47.101   5.896  19.499  0.00  0.00    +0.000 C 
ENDBRANCH  16  23
BRANCH  21  26
ATOM     26  O   UNL     1      49.702   7.436  19.496  0.00  0.00    +0.000 OA
ATOM     27  H   UNL     1      50.285   6.706  19.759  0.00  0.00    +0.000 HD
ENDBRANCH  21  26
ENDBRANCH  15  18
ENDBRANCH   1  15
TORSDOF 5
ENDMDL
MODEL 6
REMARK VINA RESULT:    -5.921      3.393      5.324
REMARK INTER + INTRA:          -7.746
REMARK INTER:                  -7.355
REMARK INTRA:                  -0.391
REMARK UNBOUND:                -0.268
REMARK  Name = 
REMARK  8 active torsions:
REMARK  status: ('A' for Active; 'I' for Inactive)
REMARK    1  A    between atoms: C_1  and  C_2
REMARK    2  A    between atoms: C_2  and  C_3
REMARK    3  A    between atoms: C_2  and  C_4
REMARK    4  A    between atoms: C_2  and  C_5
REMARK    5  A    between atoms: C_7  and  C_8
REMARK    6  A    between atoms: C_8  and  N_9
REMARK    7  A    between atoms: C_14  and  C_15
REMARK    8  A    between atoms: C_23  and  O_24
REMARK                            x       y       z     vdW  Elec       q    Type
REMARK                         _______ _______ _______ _____ _____    ______ ____
ROOT
ATOM      1  N   UNL     1      47.410   6.382  13.752  0.00  0.00    +0.000 N 
ATOM      2  C   UNL     1      47.680   5.582  14.839  0.00  0.00    +0.000 A 
ATOM      3  C   UNL     1      47.025   4.383  14.661  0.00  0.00    +0.000 A 
ATOM      4  C   UNL     1      46.329   4.457  13.433  0.00  0.00    +0.000 A 
ATOM      5  N   UNL     1      45.543   3.520  12.850  0.00  0.00    +0.000 NA
ATOM      6  C   UNL     1      45.010   3.900  11.657  0.00  0.00    +0.000 A 
ATOM      7  C   UNL     1      45.219   5.123  11.027  0.00  0.00    +0.000 A 
ATOM      8  C   UNL     1      46.029   6.074  11.640  0.00  0.00    +0.000 A 
ATOM      9  C   UNL     1      46.579   5.712  12.874  0.00  0.00    +0.000 A 
ENDROOT
BRANCH   6  10
ATOM     10  C   UNL     1      44.119   2.895  10.990  0.00  0.00    +0.000 C 
ATOM     11  N   UNL     1      44.658   2.259   9.902  0.00  0.00    +0.000 N 
ATOM     12  O   UNL     1      42.984   2.645  11.381  0.00  0.00    +0.000 OA
ATOM     13  H   UNL     1      45.604   2.480   9.610  0.00  0.00    +0.000 HD
ATOM     14  H   UNL     1      44.119   1.558   9.416  0.00  0.00    +0.000 HD
ENDBRANCH   6  10
BRANCH   1  15
ATOM     15  C   UNL     1      47.875   7.761  13.605  0.00  0.00    +0.000 C 
BRANCH  15  18
ATOM     16  C   UNL     1      51.635   8.465  13.219  0.00  0.00    +0.000 A 
ATOM     17  C   UNL     1      50.335   8.282  13.745  0.00  0.00    +0.000 A 
ATOM     18  C   UNL     1      49.234   7.893  12.951  0.00  0.00    +0.000 A 
ATOM     19  C   UNL     1      49.435   7.724  11.578  0.00  0.00    +0.000 A 
ATOM     20  C   UNL     1      50.708   7.863  11.032  0.00  0.00    +0.000 A 
ATOM     21  C   UNL     1      51.790   8.210  11.845  0.00  0.00    +0.000 A 
BRANCH  16  23
ATOM     22  C   UNL     1      53.995   7.953  14.152  0.00  0.00    +0.000 C 
ATOM     23  C   UNL     1      52.806   8.947  14.106  0.00  0.00    +0.000 C 
ATOM     24  C   UNL     1      52.338   9.118  15.571  0.00  0.00    +0.000 C 
ATOM     25  C   UNL     1      53.377  10.286  13.591  0.00  0.00    +0.000 C 
ENDBRANCH  16  23
BRANCH  21  26
ATOM     26  O   UNL     1      53.025   8.304  11.267  0.00  0.00    +0.000 OA
ATOM     27  H   UNL     1      53.340   9.220  11.333  0.00  0.00    +0.000 HD
ENDBRANCH  21  26
ENDBRANCH  15  18
ENDBRANCH   1  15
TORSDOF 5
ENDMDL
MODEL 7
REMARK VINA RESULT:    -5.880      3.862      6.272
REMARK INTER + INTRA:          -7.695
REMARK INTER:                  -7.356
REMARK INTRA:                  -0.339
REMARK UNBOUND:                -0.268
REMARK  Name = 
REMARK  8 active torsions:
REMARK  status: ('A' for Active; 'I' for Inactive)
REMARK    1  A    between atoms: C_1  and  C_2
REMARK    2  A    between atoms: C_2  and  C_3
REMARK    3  A    between atoms: C_2  and  C_4
REMARK    4  A    between atoms: C_2  and  C_5
REMARK    5  A    between atoms: C_7  and  C_8
REMARK    6  A    between atoms: C_8  and  N_9
REMARK    7  A    between atoms: C_14  and  C_15
REMARK    8  A    between atoms: C_23  and  O_24
REMARK                            x       y       z     vdW  Elec       q    Type
REMARK                         _______ _______ _______ _____ _____    ______ ____
ROOT
ATOM      1  N   UNL     1      47.562   6.865  13.893  0.00  0.00    +0.000 N 
ATOM      2  C   UNL     1      47.210   8.160  13.584  0.00  0.00    +0.000 A 
ATOM      3  C   UNL     1      46.124   8.117  12.737  0.00  0.00    +0.000 A 
ATOM      4  C   UNL     1      45.809   6.757  12.517  0.00  0.00    +0.000 A 
ATOM      5  N   UNL     1      44.825   6.232  11.749  0.00  0.00    +0.000 NA
ATOM      6  C   UNL     1      44.784   4.871  11.745  0.00  0.00    +0.000 A 
ATOM      7  C   UNL     1      45.639   4.031  12.452  0.00  0.00    +0.000 A 
ATOM      8  C   UNL     1      46.644   4.588  13.236  0.00  0.00    +0.000 A 
ATOM      9  C   UNL     1      46.716   5.985  13.247  0.00  0.00    +0.000 A 
ENDROOT
BRANCH   6  10
ATOM     10  C   UNL     1      43.719   4.253  10.890  0.00  0.00    +0.000 C 
ATOM     11  N   UNL     1      43.713   4.648   9.578  0.00  0.00    +0.000 N 
ATOM     12  O   UNL     1      42.904   3.443  11.319  0.00  0.00    +0.000 OA
ATOM     13  H   UNL     1      44.408   5.311   9.251  0.00  0.00    +0.000 HD
ATOM     14  H   UNL     1      43.033   4.258   8.942  0.00  0.00    +0.000 HD
ENDBRANCH   6  10
BRANCH   1  15
ATOM     15  C   UNL     1      48.712   6.497  14.717  0.00  0.00    +0.000 C 
BRANCH  15  18
ATOM     16  C   UNL     1      48.374   6.839  18.532  0.00  0.00    +0.000 A 
ATOM     17  C   UNL     1      48.631   7.089  17.164  0.00  0.00    +0.000 A 
ATOM     18  C   UNL     1      48.364   6.144  16.148  0.00  0.00    +0.000 A 
ATOM     19  C   UNL     1      47.864   4.895  16.522  0.00  0.00    +0.000 A 
ATOM     20  C   UNL     1      47.567   4.626  17.855  0.00  0.00    +0.000 A 
ATOM     21  C   UNL     1      47.803   5.591  18.838  0.00  0.00    +0.000 A 
BRANCH  16  23
ATOM     22  C   UNL     1      47.521   8.284  20.505  0.00  0.00    +0.000 C 
ATOM     23  C   UNL     1      48.730   7.874  19.624  0.00  0.00    +0.000 C 
ATOM     24  C   UNL     1      49.250   9.181  18.979  0.00  0.00    +0.000 C 
ATOM     25  C   UNL     1      49.801   7.316  20.587  0.00  0.00    +0.000 C 
ENDBRANCH  16  23
BRANCH  21  26
ATOM     26  O   UNL     1      47.466   5.292  20.129  0.00  0.00    +0.000 OA
ATOM     27  H   UNL     1      46.713   4.678  20.127  0.00  0.00    +0.000 HD
ENDBRANCH  21  26
ENDBRANCH  15  18
ENDBRANCH   1  15
TORSDOF 5
ENDMDL
MODEL 8
REMARK VINA RESULT:    -5.812      5.193      7.996
REMARK INTER + INTRA:          -7.609
REMARK INTER:                  -7.714
REMARK INTRA:                   0.105
REMARK UNBOUND:                -0.268
REMARK  Name = 
REMARK  8 active torsions:
REMARK  status: ('A' for Active; 'I' for Inactive)
REMARK    1  A    between atoms: C_1  and  C_2
REMARK    2  A    between atoms: C_2  and  C_3
REMARK    3  A    between atoms: C_2  and  C_4
REMARK    4  A    between atoms: C_2  and  C_5
REMARK    5  A    between atoms: C_7  and  C_8
REMARK    6  A    between atoms: C_8  and  N_9
REMARK    7  A    between atoms: C_14  and  C_15
REMARK    8  A    between atoms: C_23  and  O_24
REMARK                            x       y       z     vdW  Elec       q    Type
REMARK                         _______ _______ _______ _____ _____    ______ ____
ROOT
ATOM      1  N   UNL     1      48.206   4.668  16.431  0.00  0.00    +0.000 N 
ATOM      2  C   UNL     1      48.626   5.925  16.805  0.00  0.00    +0.000 A 
ATOM      3  C   UNL     1      49.876   5.807  17.371  0.00  0.00    +0.000 A 
ATOM      4  C   UNL     1      50.226   4.438  17.348  0.00  0.00    +0.000 A 
ATOM      5  N   UNL     1      51.358   3.848  17.803  0.00  0.00    +0.000 NA
ATOM      6  C   UNL     1      51.392   2.498  17.633  0.00  0.00    +0.000 A 
ATOM      7  C   UNL     1      50.394   1.728  17.044  0.00  0.00    +0.000 A 
ATOM      8  C   UNL     1      49.239   2.350  16.582  0.00  0.00    +0.000 A 
ATOM      9  C   UNL     1      49.173   3.737  16.756  0.00  0.00    +0.000 A 
ENDROOT
BRANCH   6  10
ATOM     10  C   UNL     1      52.622   1.807  18.142  0.00  0.00    +0.000 C 
ATOM     11  N   UNL     1      52.622   0.441  18.024  0.00  0.00    +0.000 N 
ATOM     12  O   UNL     1      53.572   2.408  18.630  0.00  0.00    +0.000 OA
ATOM     13  H   UNL     1      51.825  -0.026  17.605  0.00  0.00    +0.000 HD
ATOM     14  H   UNL     1      53.426  -0.086  18.331  0.00  0.00    +0.000 HD
ENDBRANCH   6  10
BRANCH   1  15
ATOM     15  C   UNL     1      46.896   4.373  15.852  0.00  0.00    +0.000 C 
BRANCH  15  18
ATOM     16  C   UNL     1      45.395   4.847  12.344  0.00  0.00    +0.000 A 
ATOM     17  C   UNL     1      45.644   4.414  13.667  0.00  0.00    +0.000 A 
ATOM     18  C   UNL     1      46.691   4.933  14.460  0.00  0.00    +0.000 A 
ATOM     19  C   UNL     1      47.541   5.885  13.892  0.00  0.00    +0.000 A 
ATOM     20  C   UNL     1      47.305   6.359  12.604  0.00  0.00    +0.000 A 
ATOM     21  C   UNL     1      46.239   5.859  11.853  0.00  0.00    +0.000 A 
BRANCH  16  23
ATOM     22  C   UNL     1      44.770   3.698  10.109  0.00  0.00    +0.000 C 
ATOM     23  C   UNL     1      44.275   4.218  11.484  0.00  0.00    +0.000 C 
ATOM     24  C   UNL     1      43.181   5.267  11.173  0.00  0.00    +0.000 C 
ATOM     25  C   UNL     1      43.637   3.009  12.202  0.00  0.00    +0.000 C 
ENDBRANCH  16  23
BRANCH  21  26
ATOM     26  O   UNL     1      46.030   6.379  10.606  0.00  0.00    +0.000 OA
ATOM     27  H   UNL     1      46.550   5.876   9.959  0.00  0.00    +0.000 HD
ENDBRANCH  21  26
ENDBRANCH  15  18
ENDBRANCH   1  15
TORSDOF 5
ENDMDL
MODEL 9
REMARK VINA RESULT:    -5.730      3.911      7.054
REMARK INTER + INTRA:          -7.506
REMARK INTER:                  -7.644
REMARK INTRA:                   0.138
REMARK UNBOUND:                -0.268
REMARK  Name = 
REMARK  8 active torsions:
REMARK  status: ('A' for Active; 'I' for Inactive)
REMARK    1  A    between atoms: C_1  and  C_2
REMARK    2  A    between atoms: C_2  and  C_3
REMARK    3  A    between atoms: C_2  and  C_4
REMARK    4  A    between atoms: C_2  and  C_5
REMARK    5  A    between atoms: C_7  and  C_8
REMARK    6  A    between atoms: C_8  and  N_9
REMARK    7  A    between atoms: C_14  and  C_15
REMARK    8  A    between atoms: C_23  and  O_24
REMARK                            x       y       z     vdW  Elec       q    Type
REMARK                         _______ _______ _______ _____ _____    ______ ____
ROOT
ATOM      1  N   UNL     1      48.248   8.347  13.630  0.00  0.00    +0.000 N 
ATOM      2  C   UNL     1      48.612   8.719  14.905  0.00  0.00    +0.000 A 
ATOM      3  C   UNL     1      49.984   8.839  14.939  0.00  0.00    +0.000 A 
ATOM      4  C   UNL     1      50.471   8.525  13.650  0.00  0.00    +0.000 A 
ATOM      5  N   UNL     1      51.754   8.502  13.215  0.00  0.00    +0.000 NA
ATOM      6  C   UNL     1      51.894   8.156  11.906  0.00  0.00    +0.000 A 
ATOM      7  C   UNL     1      50.857   7.850  11.031  0.00  0.00    +0.000 A 
ATOM      8  C   UNL     1      49.545   7.879  11.495  0.00  0.00    +0.000 A 
ATOM      9  C   UNL     1      49.374   8.220  12.841  0.00  0.00    +0.000 A 
ENDROOT
BRANCH   6  10
ATOM     10  C   UNL     1      53.302   8.100  11.393  0.00  0.00    +0.000 C 
ATOM     11  N   UNL     1      53.909   6.873  11.467  0.00  0.00    +0.000 N 
ATOM     12  O   UNL     1      53.884   9.076  10.932  0.00  0.00    +0.000 OA
ATOM     13  H   UNL     1      53.396   6.083  11.843  0.00  0.00    +0.000 HD
ATOM     14  H   UNL     1      54.851   6.760  11.123  0.00  0.00    +0.000 HD
ENDBRANCH   6  10
BRANCH   1  15
ATOM     15  C   UNL     1      46.876   8.055  13.216  0.00  0.00    +0.000 C 
BRANCH  15  18
ATOM     16  C   UNL     1      45.081   4.823  12.159  0.00  0.00    +0.000 A 
ATOM     17  C   UNL     1      45.475   6.174  12.298  0.00  0.00    +0.000 A 
ATOM     18  C   UNL     1      46.560   6.578  13.106  0.00  0.00    +0.000 A 
ATOM     19  C   UNL     1      47.245   5.600  13.831  0.00  0.00    +0.000 A 
ATOM     20  C   UNL     1      46.907   4.256  13.692  0.00  0.00    +0.000 A 
ATOM     21  C   UNL     1      45.853   3.877  12.856  0.00  0.00    +0.000 A 
BRANCH  16  23
ATOM     22  C   UNL     1      42.678   5.430  11.407  0.00  0.00    +0.000 C 
ATOM     23  C   UNL     1      43.852   4.421  11.311  0.00  0.00    +0.000 C 
ATOM     24  C   UNL     1      43.287   3.064  11.792  0.00  0.00    +0.000 C 
ATOM     25  C   UNL     1      44.220   4.322   9.814  0.00  0.00    +0.000 C 
ENDBRANCH  16  23
BRANCH  21  26
ATOM     26  O   UNL     1      45.580   2.544  12.729  0.00  0.00    +0.000 OA
ATOM     27  H   UNL     1      45.883   2.078  13.525  0.00  0.00    +0.000 HD
ENDBRANCH  21  26
ENDBRANCH  15  18
ENDBRANCH   1  15
TORSDOF 5
ENDMDL
