MODEL 1
REMARK VINA RESULT:    -7.682      0.000      0.000
REMARK INTER + INTRA:         -11.028
REMARK INTER:                 -10.152
REMARK INTRA:                  -0.877
REMARK UNBOUND:                -0.877
REMARK  Name = 
REMARK  6 active torsions:
REMARK  status: ('A' for Active; 'I' for Inactive)
REMARK    1  A    between atoms: C_2  and  C_3
REMARK    2  A    between atoms: N_7  and  C_8
REMARK    3  A    between atoms: C_8  and  C_9
REMARK    4  A    between atoms: C_13  and  O_14
REMARK    5  A    between atoms: O_14  and  C_15
REMARK    6  A    between atoms: C_22  and  N_23
REMARK                            x       y       z     vdW  Elec       q    Type
REMARK                         _______ _______ _______ _____ _____    ______ ____
ROOT
ATOM      1  C   UNL     1      46.633   2.872   7.500  0.00  0.00    +0.000 A 
ATOM      2  N   UNL     1      46.443   4.226   7.612  0.00  0.00    +0.000 NA
ATOM      3  C   UNL     1      45.624   4.604   8.609  0.00  0.00    +0.000 A 
ATOM      4  C   UNL     1      45.021   3.703   9.471  0.00  0.00    +0.000 A 
ATOM      5  N   UNL     1      44.009   3.991  10.377  0.00  0.00    +0.000 N 
ATOM      6  N   UNL     1      45.271   2.372   9.368  0.00  0.00    +0.000 NA
ATOM      7  C   UNL     1      46.075   1.947   8.381  0.00  0.00    +0.000 A 
ATOM      8  H   UNL     1      43.827   3.093  10.827  0.00  0.00    +0.000 HD
ENDROOT
BRANCH   5   9
ATOM      9  C   UNL     1      43.852   5.164  11.245  0.00  0.00    +0.000 C 
ATOM     10  C   UNL     1      42.432   5.192  11.817  0.00  0.00    +0.000 C 
ATOM     11  C   UNL     1      42.948   6.359  11.051  0.00  0.00    +0.000 C 
BRANCH   9  12
ATOM     12  C   UNL     1      45.076   5.348  12.130  0.00  0.00    +0.000 A 
ATOM     13  C   UNL     1      46.023   6.355  11.867  0.00  0.00    +0.000 A 
ATOM     14  C   UNL     1      47.280   6.332  12.469  0.00  0.00    +0.000 A 
ATOM     15  C   UNL     1      47.632   5.258  13.285  0.00  0.00    +0.000 A 
ATOM     16  C   UNL     1      46.708   4.254  13.572  0.00  0.00    +0.000 A 
ATOM     17  C   UNL     1      45.415   4.347  13.062  0.00  0.00    +0.000 A 
BRANCH  16  18
ATOM     18  O   UNL     1      47.203   3.166  14.235  0.00  0.00    +0.000 OA
BRANCH  18  19
ATOM     19  C   UNL     1      47.764   3.425  15.512  0.00  0.00    +0.000 C 
ATOM     20  F   UNL     1      46.775   3.730  16.389  0.00  0.00    +0.000 F 
ATOM     21  F   UNL     1      48.325   2.267  15.942  0.00  0.00    +0.000 F 
ENDBRANCH  18  19
ENDBRANCH  16  18
ENDBRANCH   9  12
ENDBRANCH   5   9
BRANCH   7  22
ATOM     22  N   UNL     1      46.179   0.563   8.255  0.00  0.00    +0.000 N 
ATOM     23  H   UNL     1      46.069   0.316   7.274  0.00  0.00    +0.000 HD
ATOM     24  H   UNL     1      45.580   0.018   8.865  0.00  0.00    +0.000 HD
ENDBRANCH   7  22
BRANCH   1  26
ATOM     25  N   UNL     1      48.123   2.073   5.553  0.00  0.00    +0.000 NA
ATOM     26  C   UNL     1      47.447   2.455   6.422  0.00  0.00    +0.000 C 
ENDBRANCH   1  26
TORSDOF 6
ENDMDL
MODEL 2
REMARK VINA RESULT:    -7.506      2.522      3.036
REMARK INTER + INTRA:         -10.796
REMARK INTER:                 -10.012
REMARK INTRA:                  -0.783
REMARK UNBOUND:                -0.877
REMARK  Name = 
REMARK  6 active torsions:
REMARK  status: ('A' for Active; 'I' for Inactive)
REMARK    1  A    between atoms: C_2  and  C_3
REMARK    2  A    between atoms: N_7  and  C_8
REMARK    3  A    between atoms: C_8  and  C_9
REMARK    4  A    between atoms: C_13  and  O_14
REMARK    5  A    between atoms: O_14  and  C_15
REMARK    6  A    between atoms: C_22  and  N_23
REMARK                            x       y       z     vdW  Elec       q    Type
REMARK                         _______ _______ _______ _____ _____    ______ ____
ROOT
ATOM      1  C   UNL     1      46.824   2.659   7.171  0.00  0.00    +0.000 A 
ATOM      2  N   UNL     1      46.559   3.995   7.330  0.00  0.00    +0.000 NA
ATOM      3  C   UNL     1      45.757   4.296   8.367  0.00  0.00    +0.000 A 
ATOM      4  C   UNL     1      45.242   3.336   9.224  0.00  0.00    +0.000 A 
ATOM      5  N   UNL     1      44.250   3.537  10.174  0.00  0.00    +0.000 N 
ATOM      6  N   UNL     1      45.567   2.026   9.072  0.00  0.00    +0.000 NA
ATOM      7  C   UNL     1      46.356   1.678   8.044  0.00  0.00    +0.000 A 
ATOM      8  H   UNL     1      44.139   2.618  10.604  0.00  0.00    +0.000 HD
ENDROOT
BRANCH   5   9
ATOM      9  C   UNL     1      44.056   4.673  11.082  0.00  0.00    +0.000 C 
ATOM     10  C   UNL     1      42.728   4.516  11.826  0.00  0.00    +0.000 C 
ATOM     11  C   UNL     1      42.992   5.744  11.029  0.00  0.00    +0.000 C 
BRANCH   9  12
ATOM     12  C   UNL     1      45.349   5.007  11.813  0.00  0.00    +0.000 A 
ATOM     13  C   UNL     1      45.803   4.221  12.889  0.00  0.00    +0.000 A 
ATOM     14  C   UNL     1      46.796   4.688  13.748  0.00  0.00    +0.000 A 
ATOM     15  C   UNL     1      47.295   5.980  13.586  0.00  0.00    +0.000 A 
ATOM     16  C   UNL     1      46.870   6.774  12.521  0.00  0.00    +0.000 A 
ATOM     17  C   UNL     1      45.966   6.255  11.598  0.00  0.00    +0.000 A 
BRANCH  16  18
ATOM     18  O   UNL     1      47.286   8.076  12.552  0.00  0.00    +0.000 OA
BRANCH  18  19
ATOM     19  C   UNL     1      48.584   8.321  12.037  0.00  0.00    +0.000 C 
ATOM     20  F   UNL     1      48.847   7.448  11.032  0.00  0.00    +0.000 F 
ATOM     21  F   UNL     1      48.565   9.559  11.483  0.00  0.00    +0.000 F 
ENDBRANCH  18  19
ENDBRANCH  16  18
ENDBRANCH   9  12
ENDBRANCH   5   9
BRANCH   7  22
ATOM     22  N   UNL     1      46.537   0.307   7.873  0.00  0.00    +0.000 N 
ATOM     23  H   UNL     1      46.044  -0.183   8.615  0.00  0.00    +0.000 HD
ATOM     24  H   UNL     1      47.498  -0.002   7.771  0.00  0.00    +0.000 HD
ENDBRANCH   7  22
BRANCH   1  26
ATOM     25  N   UNL     1      48.285   2.006   5.148  0.00  0.00    +0.000 NA
ATOM     26  C   UNL     1      47.620   2.322   6.052  0.00  0.00    +0.000 C 
ENDBRANCH   1  26
TORSDOF 6
ENDMDL
MODEL 3
REMARK VINA RESULT:    -6.653      4.789      7.333
REMARK INTER + INTRA:          -9.669
REMARK INTER:                 -10.485
REMARK INTRA:                   0.816
REMARK UNBOUND:                -0.877
REMARK  Name = 
REMARK  6 active torsions:
REMARK  status: ('A' for Active; 'I' for Inactive)
REMARK    1  A    between atoms: C_2  and  C_3
REMARK    2  A    between atoms: N_7  and  C_8
REMARK    3  A    between atoms: C_8  and  C_9
REMARK    4  A    between atoms: C_13  and  O_14
REMARK    5  A    between atoms: O_14  and  C_15
REMARK    6  A    between atoms: C_22  and  N_23
REMARK                            x       y       z     vdW  Elec       q    Type
REMARK                         _______ _______ _______ _____ _____    ______ ____
ROOT
ATOM      1  C   UNL     1      48.318   5.057  16.488  0.00  0.00    +0.000 A 
ATOM      2  N   UNL     1      48.596   6.026  15.558  0.00  0.00    +0.000 NA
ATOM      3  C   UNL     1      47.897   5.930  14.413  0.00  0.00    +0.000 A 
ATOM      4  C   UNL     1      46.957   4.938  14.184  0.00  0.00    +0.000 A 
ATOM      5  N   UNL     1      46.358   4.646  12.967  0.00  0.00    +0.000 N 
ATOM      6  N   UNL     1      46.667   4.024  15.146  0.00  0.00    +0.000 NA
ATOM      7  C   UNL     1      47.346   4.075  16.302  0.00  0.00    +0.000 A 
ATOM      8  H   UNL     1      45.733   3.869  13.187  0.00  0.00    +0.000 HD
ENDROOT
BRANCH   5   9
ATOM      9  C   UNL     1      45.865   5.565  11.934  0.00  0.00    +0.000 C 
ATOM     10  C   UNL     1      46.883   6.687  11.717  0.00  0.00    +0.000 C 
ATOM     11  C   UNL     1      45.479   7.018  12.080  0.00  0.00    +0.000 C 
BRANCH   9  12
ATOM     12  C   UNL     1      45.262   4.794  10.769  0.00  0.00    +0.000 A 
ATOM     13  C   UNL     1      44.516   3.620  10.978  0.00  0.00    +0.000 A 
ATOM     14  C   UNL     1      44.233   2.753   9.923  0.00  0.00    +0.000 A 
ATOM     15  C   UNL     1      44.759   3.012   8.659  0.00  0.00    +0.000 A 
ATOM     16  C   UNL     1      45.492   4.175   8.423  0.00  0.00    +0.000 A 
ATOM     17  C   UNL     1      45.668   5.095   9.454  0.00  0.00    +0.000 A 
BRANCH  16  18
ATOM     18  O   UNL     1      46.106   4.249   7.204  0.00  0.00    +0.000 OA
BRANCH  18  19
ATOM     19  C   UNL     1      46.606   3.026   6.690  0.00  0.00    +0.000 C 
ATOM     20  F   UNL     1      46.723   3.113   5.341  0.00  0.00    +0.000 F 
ATOM     21  F   UNL     1      47.861   2.870   7.181  0.00  0.00    +0.000 F 
ENDBRANCH  18  19
ENDBRANCH  16  18
ENDBRANCH   9  12
ENDBRANCH   5   9
BRANCH   7  22
ATOM     22  N   UNL     1      47.091   3.029  17.187  0.00  0.00    +0.000 N 
ATOM     23  H   UNL     1      47.965   2.549  17.386  0.00  0.00    +0.000 HD
ATOM     24  H   UNL     1      46.348   2.394  16.917  0.00  0.00    +0.000 HD
ENDBRANCH   7  22
BRANCH   1  26
ATOM     25  N   UNL     1      49.736   5.119  18.642  0.00  0.00    +0.000 NA
ATOM     26  C   UNL     1      49.084   5.112  17.675  0.00  0.00    +0.000 C 
ENDBRANCH   1  26
TORSDOF 6
ENDMDL
MODEL 4
REMARK VINA RESULT:    -6.261      4.759      7.462
REMARK INTER + INTRA:          -9.150
REMARK INTER:                  -8.813
REMARK INTRA:                  -0.337
REMARK UNBOUND:                -0.877
REMARK  Name = 
REMARK  6 active torsions:
REMARK  status: ('A' for Active; 'I' for Inactive)
REMARK    1  A    between atoms: C_2  and  C_3
REMARK    2  A    between atoms: N_7  and  C_8
REMARK    3  A    between atoms: C_8  and  C_9
REMARK    4  A    between atoms: C_13  and  O_14
REMARK    5  A    between atoms: O_14  and  C_15
REMARK    6  A    between atoms: C_22  and  N_23
REMARK                            x       y       z     vdW  Elec       q    Type
REMARK                         _______ _______ _______ _____ _____    ______ ____
ROOT
ATOM      1  C   UNL     1      48.133   4.692  17.694  0.00  0.00    +0.000 A 
ATOM      2  N   UNL     1      48.547   5.812  17.020  0.00  0.00    +0.000 NA
ATOM      3  C   UNL     1      48.098   5.914  15.757  0.00  0.00    +0.000 A 
ATOM      4  C   UNL     1      47.269   4.969  15.174  0.00  0.00    +0.000 A 
ATOM      5  N   UNL     1      46.940   4.891  13.828  0.00  0.00    +0.000 N 
ATOM      6  N   UNL     1      46.832   3.897  15.885  0.00  0.00    +0.000 NA
ATOM      7  C   UNL     1      47.263   3.749  17.147  0.00  0.00    +0.000 A 
ATOM      8  H   UNL     1      46.319   4.082  13.779  0.00  0.00    +0.000 HD
ENDROOT
BRANCH   5   9
ATOM      9  C   UNL     1      46.623   5.973  12.889  0.00  0.00    +0.000 C 
ATOM     10  C   UNL     1      47.915   6.499  12.257  0.00  0.00    +0.000 C 
ATOM     11  C   UNL     1      47.006   7.432  12.977  0.00  0.00    +0.000 C 
BRANCH   9  12
ATOM     12  C   UNL     1      45.406   5.618  12.046  0.00  0.00    +0.000 A 
ATOM     13  C   UNL     1      44.168   6.256  12.247  0.00  0.00    +0.000 A 
ATOM     14  C   UNL     1      42.995   5.729  11.709  0.00  0.00    +0.000 A 
ATOM     15  C   UNL     1      43.036   4.515  11.026  0.00  0.00    +0.000 A 
ATOM     16  C   UNL     1      44.252   3.869  10.804  0.00  0.00    +0.000 A 
ATOM     17  C   UNL     1      45.434   4.463  11.241  0.00  0.00    +0.000 A 
BRANCH  16  18
ATOM     18  O   UNL     1      44.165   2.609  10.281  0.00  0.00    +0.000 OA
BRANCH  18  19
ATOM     19  C   UNL     1      44.990   2.349   9.157  0.00  0.00    +0.000 C 
ATOM     20  F   UNL     1      44.872   1.046   8.798  0.00  0.00    +0.000 F 
ATOM     21  F   UNL     1      44.502   3.084   8.127  0.00  0.00    +0.000 F 
ENDBRANCH  18  19
ENDBRANCH  16  18
ENDBRANCH   9  12
ENDBRANCH   5   9
BRANCH   7  22
ATOM     22  N   UNL     1      46.882   2.561  17.769  0.00  0.00    +0.000 N 
ATOM     23  H   UNL     1      46.487   2.782  18.680  0.00  0.00    +0.000 HD
ATOM     24  H   UNL     1      47.594   1.840  17.815  0.00  0.00    +0.000 HD
ENDBRANCH   7  22
BRANCH   1  26
ATOM     25  N   UNL     1      49.024   4.401  20.097  0.00  0.00    +0.000 NA
ATOM     26  C   UNL     1      48.642   4.543  19.005  0.00  0.00    +0.000 C 
ENDBRANCH   1  26
TORSDOF 6
ENDMDL
MODEL 5
REMARK VINA RESULT:    -5.973      4.530      6.670
REMARK INTER + INTRA:          -8.770
REMARK INTER:                  -7.950
REMARK INTRA:                  -0.820
REMARK UNBOUND:                -0.877
REMARK  Name = 
REMARK  6 active torsions:
REMARK  status: ('A' for Active; 'I' for Inactive)
REMARK    1  A    between atoms: C_2  and  C_3
REMARK    2  A    between atoms: N_7  and  C_8
REMARK    3  A    between atoms: C_8  and  C_9
REMARK    4  A    between atoms: C_13  and  O_14
REMARK    5  A    between atoms: O_14  and  C_15
REMARK    6  A    between atoms: C_22  and  N_23
REMARK                            x       y       z     vdW  Elec       q    Type
REMARK                         _______ _______ _______ _____ _____    ______ ____
ROOT
ATOM      1  C   UNL     1      49.035   9.247  11.860  0.00  0.00    +0.000 A 
ATOM      2  N   UNL     1      49.421   7.948  11.648  0.00  0.00    +0.000 NA
ATOM      3  C   UNL     1      48.663   7.023  12.263  0.00  0.00    +0.000 A 
ATOM      4  C   UNL     1      47.565   7.347  13.044  0.00  0.00    +0.000 A 
ATOM      5  N   UNL     1      46.869   6.480  13.875  0.00  0.00    +0.000 N 
ATOM      6  N   UNL     1      47.176   8.640  13.192  0.00  0.00    +0.000 NA
ATOM      7  C   UNL     1      47.909   9.599  12.604  0.00  0.00    +0.000 A 
ATOM      8  H   UNL     1      46.138   7.067  14.278  0.00  0.00    +0.000 HD
ENDROOT
BRANCH   5   9
ATOM      9  C   UNL     1      46.483   5.083  13.639  0.00  0.00    +0.000 C 
ATOM     10  C   UNL     1      46.542   4.304  14.955  0.00  0.00    +0.000 C 
ATOM     11  C   UNL     1      47.329   3.840  13.781  0.00  0.00    +0.000 C 
BRANCH   9  12
ATOM     12  C   UNL     1      45.275   5.007  12.715  0.00  0.00    +0.000 A 
ATOM     13  C   UNL     1      44.091   5.709  13.003  0.00  0.00    +0.000 A 
ATOM     14  C   UNL     1      42.899   5.404  12.347  0.00  0.00    +0.000 A 
ATOM     15  C   UNL     1      42.862   4.339  11.449  0.00  0.00    +0.000 A 
ATOM     16  C   UNL     1      44.024   3.634  11.138  0.00  0.00    +0.000 A 
ATOM     17  C   UNL     1      45.234   4.023  11.708  0.00  0.00    +0.000 A 
BRANCH  16  18
ATOM     18  O   UNL     1      43.849   2.507  10.385  0.00  0.00    +0.000 OA
BRANCH  18  19
ATOM     19  C   UNL     1      44.769   2.325   9.322  0.00  0.00    +0.000 C 
ATOM     20  F   UNL     1      44.666   1.061   8.841  0.00  0.00    +0.000 F 
ATOM     21  F   UNL     1      44.389   3.157   8.320  0.00  0.00    +0.000 F 
ENDBRANCH  18  19
ENDBRANCH  16  18
ENDBRANCH   9  12
ENDBRANCH   5   9
BRANCH   7  22
ATOM     22  N   UNL     1      47.530  10.905  12.907  0.00  0.00    +0.000 N 
ATOM     23  H   UNL     1      48.275  11.536  12.619  0.00  0.00    +0.000 HD
ATOM     24  H   UNL     1      47.227  11.066  13.861  0.00  0.00    +0.000 HD
ENDBRANCH   7  22
BRANCH   1  26
ATOM     25  N   UNL     1      50.502  11.077  10.787  0.00  0.00    +0.000 NA
ATOM     26  C   UNL     1      49.855  10.234  11.266  0.00  0.00    +0.000 C 
ENDBRANCH   1  26
TORSDOF 6
ENDMDL
MODEL 6
REMARK VINA RESULT:    -5.950      2.874      4.856
REMARK INTER + INTRA:          -8.740
REMARK INTER:                  -8.161
REMARK INTRA:                  -0.579
REMARK UNBOUND:                -0.877
REMARK  Name = 
REMARK  6 active torsions:
REMARK  status: ('A' for Active; 'I' for Inactive)
REMARK    1  A    between atoms: C_2  and  C_3
REMARK    2  A    between atoms: N_7  and  C_8
REMARK    3  A    between atoms: C_8  and  C_9
REMARK    4  A    between atoms: C_13  and  O_14
REMARK    5  A    between atoms: O_14  and  C_15
REMARK    6  A    between atoms: C_22  and  N_23
REMARK                            x       y       z     vdW  Elec       q    Type
REMARK                         _______ _______ _______ _____ _____    ______ ____
ROOT
ATOM      1  C   UNL     1      45.412   4.708  10.976  0.00  0.00    +0.000 A 
ATOM      2  N   UNL     1      46.058   5.896  10.748  0.00  0.00    +0.000 NA
ATOM      3  C   UNL     1      46.670   6.424  11.823  0.00  0.00    +0.000 A 
ATOM      4  C   UNL     1      46.665   5.816  13.068  0.00  0.00    +0.000 A 
ATOM      5  N   UNL     1      47.083   6.391  14.260  0.00  0.00    +0.000 N 
ATOM      6  N   UNL     1      46.062   4.612  13.248  0.00  0.00    +0.000 NA
ATOM      7  C   UNL     1      45.429   4.052  12.206  0.00  0.00    +0.000 A 
ATOM      8  H   UNL     1      46.935   5.652  14.948  0.00  0.00    +0.000 HD
ENDROOT
BRANCH   5   9
ATOM      9  C   UNL     1      48.246   7.251  14.514  0.00  0.00    +0.000 C 
ATOM     10  C   UNL     1      47.821   8.720  14.452  0.00  0.00    +0.000 C 
ATOM     11  C   UNL     1      48.914   8.225  13.572  0.00  0.00    +0.000 C 
BRANCH   9  12
ATOM     12  C   UNL     1      49.079   6.705  15.665  0.00  0.00    +0.000 A 
ATOM     13  C   UNL     1      50.448   7.006  15.781  0.00  0.00    +0.000 A 
ATOM     14  C   UNL     1      51.273   6.273  16.634  0.00  0.00    +0.000 A 
ATOM     15  C   UNL     1      50.752   5.181  17.324  0.00  0.00    +0.000 A 
ATOM     16  C   UNL     1      49.395   4.869  17.235  0.00  0.00    +0.000 A 
ATOM     17  C   UNL     1      48.555   5.679  16.475  0.00  0.00    +0.000 A 
BRANCH  16  18
ATOM     18  O   UNL     1      49.022   3.685  17.807  0.00  0.00    +0.000 OA
BRANCH  18  19
ATOM     19  C   UNL     1      48.195   2.850  17.014  0.00  0.00    +0.000 C 
ATOM     20  F   UNL     1      48.917   1.795  16.560  0.00  0.00    +0.000 F 
ATOM     21  F   UNL     1      47.237   2.345  17.831  0.00  0.00    +0.000 F 
ENDBRANCH  18  19
ENDBRANCH  16  18
ENDBRANCH   9  12
ENDBRANCH   5   9
BRANCH   7  22
ATOM     22  N   UNL     1      44.722   2.887  12.498  0.00  0.00    +0.000 N 
ATOM     23  H   UNL     1      44.698   2.764  13.507  0.00  0.00    +0.000 HD
ATOM     24  H   UNL     1      45.026   2.052  12.008  0.00  0.00    +0.000 HD
ENDBRANCH   7  22
BRANCH   1  26
ATOM     25  N   UNL     1      44.180   3.724   8.934  0.00  0.00    +0.000 NA
ATOM     26  C   UNL     1      44.716   4.168   9.869  0.00  0.00    +0.000 C 
ENDBRANCH   1  26
TORSDOF 6
ENDMDL
MODEL 7
REMARK VINA RESULT:    -5.892      2.134      3.272
REMARK INTER + INTRA:          -8.664
REMARK INTER:                  -7.685
REMARK INTRA:                  -0.979
REMARK UNBOUND:                -0.877
REMARK  Name = 
REMARK  6 active torsions:
REMARK  status: ('A' for Active; 'I' for Inactive)
REMARK    1  A    between atoms: C_2  and  C_3
REMARK    2  A    between atoms: N_7  and  C_8
REMARK    3  A    between atoms: C_8  and  C_9
REMARK    4  A    between atoms: C_13  and  O_14
REMARK    5  A    between atoms: O_14  and  C_15
REMARK    6  A    between atoms: C_22  and  N_23
REMARK                            x       y       z     vdW  Elec       q    Type
REMARK                         _______ _______ _______ _____ _____    ______ ____
ROOT
ATOM      1  C   UNL     1      44.878   3.585   9.991  0.00  0.00    +0.000 A 
ATOM      2  N   UNL     1      45.504   4.623   9.349  0.00  0.00    +0.000 NA
ATOM      3  C   UNL     1      45.428   5.809   9.978  0.00  0.00    +0.000 A 
ATOM      4  C   UNL     1      44.778   5.978  11.190  0.00  0.00    +0.000 A 
ATOM      5  N   UNL     1      44.474   7.192  11.791  0.00  0.00    +0.000 N 
ATOM      6  N   UNL     1      44.214   4.920  11.828  0.00  0.00    +0.000 NA
ATOM      7  C   UNL     1      44.256   3.718  11.232  0.00  0.00    +0.000 A 
ATOM      8  H   UNL     1      44.005   6.921  12.656  0.00  0.00    +0.000 HD
ENDROOT
BRANCH   5   9
ATOM      9  C   UNL     1      45.289   8.409  11.882  0.00  0.00    +0.000 C 
ATOM     10  C   UNL     1      44.444   9.552  12.448  0.00  0.00    +0.000 C 
ATOM     11  C   UNL     1      45.119   9.709  11.132  0.00  0.00    +0.000 C 
BRANCH   9  12
ATOM     12  C   UNL     1      46.674   8.090  12.427  0.00  0.00    +0.000 A 
ATOM     13  C   UNL     1      47.837   8.454  11.724  0.00  0.00    +0.000 A 
ATOM     14  C   UNL     1      49.075   7.902  12.051  0.00  0.00    +0.000 A 
ATOM     15  C   UNL     1      49.151   6.921  13.038  0.00  0.00    +0.000 A 
ATOM     16  C   UNL     1      48.015   6.551  13.758  0.00  0.00    +0.000 A 
ATOM     17  C   UNL     1      46.805   7.194  13.506  0.00  0.00    +0.000 A 
BRANCH  16  18
ATOM     18  O   UNL     1      48.161   5.466  14.576  0.00  0.00    +0.000 OA
BRANCH  18  19
ATOM     19  C   UNL     1      47.080   4.549  14.582  0.00  0.00    +0.000 C 
ATOM     20  F   UNL     1      47.090   3.826  13.434  0.00  0.00    +0.000 F 
ATOM     21  F   UNL     1      47.304   3.675  15.595  0.00  0.00    +0.000 F 
ENDBRANCH  18  19
ENDBRANCH  16  18
ENDBRANCH   9  12
ENDBRANCH   5   9
BRANCH   7  22
ATOM     22  N   UNL     1      43.544   2.710  11.878  0.00  0.00    +0.000 N 
ATOM     23  H   UNL     1      44.134   2.304  12.600  0.00  0.00    +0.000 HD
ATOM     24  H   UNL     1      43.125   2.010  11.276  0.00  0.00    +0.000 HD
ENDBRANCH   7  22
BRANCH   1  26
ATOM     25  N   UNL     1      44.948   1.305   8.788  0.00  0.00    +0.000 NA
ATOM     26  C   UNL     1      44.901   2.343   9.315  0.00  0.00    +0.000 C 
ENDBRANCH   1  26
TORSDOF 6
ENDMDL
MODEL 8
REMARK VINA RESULT:    -5.517      4.762      7.521
REMARK INTER + INTRA:          -8.167
REMARK INTER:                  -7.255
REMARK INTRA:                  -0.912
REMARK UNBOUND:                -0.877
REMARK  Name = 
REMARK  6 active torsions:
REMARK  status: ('A' for Active; 'I' for Inactive)
REMARK    1  A    between atoms: C_2  and  C_3
REMARK    2  A    between atoms: N_7  and  C_8
REMARK    3  A    between atoms: C_8  and  C_9
REMARK    4  A    between atoms: C_13  and  O_14
REMARK    5  A    between atoms: O_14  and  C_15
REMARK    6  A    between atoms: C_22  and  N_23
REMARK                            x       y       z     vdW  Elec       q    Type
REMARK                         _______ _______ _______ _____ _____    ______ ____
ROOT
ATOM      1  C   UNL     1      48.342   5.403  17.419  0.00  0.00    +0.000 A 
ATOM      2  N   UNL     1      48.956   6.594  17.125  0.00  0.00    +0.000 NA
ATOM      3  C   UNL     1      48.952   6.929  15.823  0.00  0.00    +0.000 A 
ATOM      4  C   UNL     1      48.364   6.144  14.845  0.00  0.00    +0.000 A 
ATOM      5  N   UNL     1      48.501   6.309  13.473  0.00  0.00    +0.000 N 
ATOM      6  N   UNL     1      47.716   4.996  15.174  0.00  0.00    +0.000 NA
ATOM      7  C   UNL     1      47.703   4.616  16.461  0.00  0.00    +0.000 A 
ATOM      8  H   UNL     1      47.931   5.557  13.083  0.00  0.00    +0.000 HD
ENDROOT
BRANCH   5   9
ATOM      9  C   UNL     1      48.514   7.549  12.688  0.00  0.00    +0.000 C 
ATOM     10  C   UNL     1      49.822   7.643  11.899  0.00  0.00    +0.000 C 
ATOM     11  C   UNL     1      49.435   8.738  12.829  0.00  0.00    +0.000 C 
BRANCH   9  12
ATOM     12  C   UNL     1      47.162   7.785  12.029  0.00  0.00    +0.000 A 
ATOM     13  C   UNL     1      46.494   9.016  12.155  0.00  0.00    +0.000 A 
ATOM     14  C   UNL     1      45.143   9.135  11.828  0.00  0.00    +0.000 A 
ATOM     15  C   UNL     1      44.426   8.004  11.443  0.00  0.00    +0.000 A 
ATOM     16  C   UNL     1      45.068   6.774  11.300  0.00  0.00    +0.000 A 
ATOM     17  C   UNL     1      46.442   6.690  11.512  0.00  0.00    +0.000 A 
BRANCH  16  18
ATOM     18  O   UNL     1      44.249   5.701  11.089  0.00  0.00    +0.000 OA
BRANCH  18  19
ATOM     19  C   UNL     1      43.071   5.659  11.878  0.00  0.00    +0.000 C 
ATOM     20  F   UNL     1      42.298   4.615  11.486  0.00  0.00    +0.000 F 
ATOM     21  F   UNL     1      43.454   5.404  13.153  0.00  0.00    +0.000 F 
ENDBRANCH  18  19
ENDBRANCH  16  18
ENDBRANCH   9  12
ENDBRANCH   5   9
BRANCH   7  22
ATOM     22  N   UNL     1      47.138   3.366  16.705  0.00  0.00    +0.000 N 
ATOM     23  H   UNL     1      46.859   3.319  17.682  0.00  0.00    +0.000 HD
ATOM     24  H   UNL     1      47.693   2.567  16.417  0.00  0.00    +0.000 HD
ENDBRANCH   7  22
BRANCH   1  26
ATOM     25  N   UNL     1      48.440   4.647  19.882  0.00  0.00    +0.000 NA
ATOM     26  C   UNL     1      48.386   5.009  18.776  0.00  0.00    +0.000 C 
ENDBRANCH   1  26
TORSDOF 6
ENDMDL
MODEL 9
REMARK VINA RESULT:    -5.329      4.433      6.748
REMARK INTER + INTRA:          -7.919
REMARK INTER:                  -8.108
REMARK INTRA:                   0.189
REMARK UNBOUND:                -0.877
REMARK  Name = 
REMARK  6 active torsions:
REMARK  status: ('A' for Active; 'I' for Inactive)
REMARK    1  A    between atoms: C_2  and  C_3
REMARK    2  A    between atoms: N_7  and  C_8
REMARK    3  A    between atoms: C_8  and  C_9
REMARK    4  A    between atoms: C_13  and  O_14
REMARK    5  A    between atoms: O_14  and  C_15
REMARK    6  A    between atoms: C_22  and  N_23
REMARK                            x       y       z     vdW  Elec       q    Type
REMARK                         _______ _______ _______ _____ _____    ______ ____
ROOT
ATOM      1  C   UNL     1      48.201   3.470  15.806  0.00  0.00    +0.000 A 
ATOM      2  N   UNL     1      47.540   2.975  14.711  0.00  0.00    +0.000 NA
ATOM      3  C   UNL     1      46.886   3.893  13.979  0.00  0.00    +0.000 A 
ATOM      4  C   UNL     1      46.882   5.243  14.292  0.00  0.00    +0.000 A 
ATOM      5  N   UNL     1      46.068   6.211  13.720  0.00  0.00    +0.000 N 
ATOM      6  N   UNL     1      47.590   5.710  15.353  0.00  0.00    +0.000 NA
ATOM      7  C   UNL     1      48.251   4.829  16.118  0.00  0.00    +0.000 A 
ATOM      8  H   UNL     1      46.348   7.071  14.195  0.00  0.00    +0.000 HD
ENDROOT
BRANCH   5   9
ATOM      9  C   UNL     1      45.675   6.378  12.316  0.00  0.00    +0.000 C 
ATOM     10  C   UNL     1      46.901   6.755  11.481  0.00  0.00    +0.000 C 
ATOM     11  C   UNL     1      45.702   7.635  11.478  0.00  0.00    +0.000 C 
BRANCH   9  12
ATOM     12  C   UNL     1      44.723   5.271  11.887  0.00  0.00    +0.000 A 
ATOM     13  C   UNL     1      43.776   4.735  12.779  0.00  0.00    +0.000 A 
ATOM     14  C   UNL     1      43.129   3.533  12.501  0.00  0.00    +0.000 A 
ATOM     15  C   UNL     1      43.477   2.812  11.360  0.00  0.00    +0.000 A 
ATOM     16  C   UNL     1      44.404   3.326  10.453  0.00  0.00    +0.000 A 
ATOM     17  C   UNL     1      44.957   4.585  10.679  0.00  0.00    +0.000 A 
BRANCH  16  18
ATOM     18  O   UNL     1      44.802   2.470   9.465  0.00  0.00    +0.000 OA
BRANCH  18  19
ATOM     19  C   UNL     1      45.690   3.012   8.501  0.00  0.00    +0.000 C 
ATOM     20  F   UNL     1      46.526   2.040   8.057  0.00  0.00    +0.000 F 
ATOM     21  F   UNL     1      44.938   3.395   7.438  0.00  0.00    +0.000 F 
ENDBRANCH  18  19
ENDBRANCH  16  18
ENDBRANCH   9  12
ENDBRANCH   5   9
BRANCH   7  22
ATOM     22  N   UNL     1      48.843   5.362  17.262  0.00  0.00    +0.000 N 
ATOM     23  H   UNL     1      48.922   6.370  17.148  0.00  0.00    +0.000 HD
ATOM     24  H   UNL     1      49.715   4.930  17.549  0.00  0.00    +0.000 HD
ENDBRANCH   7  22
BRANCH   1  26
ATOM     25  N   UNL     1      49.419   1.730  17.268  0.00  0.00    +0.000 NA
ATOM     26  C   UNL     1      48.848   2.510  16.617  0.00  0.00    +0.000 C 
ENDBRANCH   1  26
TORSDOF 6
ENDMDL
