MODEL 1
REMARK VINA RESULT:    -8.785      0.000      0.000
REMARK INTER + INTRA:         -12.864
REMARK INTER:                 -11.866
REMARK INTRA:                  -0.998
REMARK UNBOUND:                -0.998
REMARK  Name = 
REMARK  7 active torsions:
REMARK  status: ('A' for Active; 'I' for Inactive)
REMARK    1  A    between atoms: C_1  and  C_2
REMARK    2  A    between atoms: C_2  and  N_3
REMARK    3  A    between atoms: C_2  and  C_16
REMARK    4  A    between atoms: C_4  and  C_6
REMARK    5  A    between atoms: C_19  and  O_20
REMARK    6  A    between atoms: O_20  and  C_21
REMARK    7  A    between atoms: C_21  and  C_22
REMARK                            x       y       z     vdW  Elec       q    Type
REMARK                         _______ _______ _______ _____ _____    ______ ____
ROOT
ATOM      1  C   UNL     1      45.912   8.837  13.111  0.00  0.00    +0.000 C 
ATOM      2  C   UNL     1      46.816   7.617  12.925  0.00  0.00    +0.000 C 
ENDROOT
BRANCH   2   3
ATOM      3  C   UNL     1      46.162   6.544  12.071  0.00  0.00    +0.000 A 
ATOM      4  C   UNL     1      45.382   5.553  12.684  0.00  0.00    +0.000 A 
ATOM      5  C   UNL     1      44.720   4.584  11.923  0.00  0.00    +0.000 A 
ATOM      6  C   UNL     1      44.819   4.596  10.532  0.00  0.00    +0.000 A 
ATOM      7  C   UNL     1      45.611   5.562   9.913  0.00  0.00    +0.000 A 
ATOM      8  C   UNL     1      46.272   6.534  10.672  0.00  0.00    +0.000 A 
BRANCH   6   9
ATOM      9  O   UNL     1      44.222   3.701   9.688  0.00  0.00    +0.000 OA
BRANCH   9  10
ATOM     10  C   UNL     1      44.811   2.396   9.638  0.00  0.00    +0.000 C 
BRANCH  10  11
ATOM     11  C   UNL     1      45.649   2.231   8.387  0.00  0.00    +0.000 A 
ATOM     12  C   UNL     1      45.750   3.262   7.453  0.00  0.00    +0.000 A 
ATOM     13  C   UNL     1      46.578   3.096   6.347  0.00  0.00    +0.000 A 
ATOM     14  C   UNL     1      47.296   1.916   6.206  0.00  0.00    +0.000 A 
ATOM     15  C   UNL     1      47.157   0.947   7.184  0.00  0.00    +0.000 A 
ATOM     16  N   UNL     1      46.358   1.079   8.267  0.00  0.00    +0.000 NA
ENDBRANCH  10  11
ENDBRANCH   9  10
ENDBRANCH   6   9
ENDBRANCH   2   3
BRANCH   2  17
ATOM     17  N   UNL     1      47.206   7.056  14.204  0.00  0.00    +0.000 N 
ATOM     18  C   UNL     1      48.491   6.683  14.489  0.00  0.00    +0.000 C 
ATOM     19  O   UNL     1      49.399   6.790  13.669  0.00  0.00    +0.000 OA
ATOM     20  H   UNL     1      46.463   6.846  14.863  0.00  0.00    +0.000 HD
BRANCH  18  21
ATOM     21  C   UNL     1      48.747   6.201  15.853  0.00  0.00    +0.000 A 
ATOM     22  C   UNL     1      49.562   6.941  16.698  0.00  0.00    +0.000 A 
ATOM     23  S   UNL     1      49.722   6.269  18.256  0.00  0.00    +0.000 S 
ATOM     24  C   UNL     1      48.745   4.939  17.842  0.00  0.00    +0.000 A 
ATOM     25  N   UNL     1      48.495   3.950  18.743  0.00  0.00    +0.000 NA
ATOM     26  C   UNL     1      47.780   2.979  18.281  0.00  0.00    +0.000 A 
ATOM     27  N   UNL     1      47.285   2.909  17.005  0.00  0.00    +0.000 N 
ATOM     28  C   UNL     1      47.455   3.916  16.084  0.00  0.00    +0.000 A 
ATOM     29  O   UNL     1      46.903   3.875  14.992  0.00  0.00    +0.000 OA
ATOM     30  C   UNL     1      48.288   5.014  16.538  0.00  0.00    +0.000 A 
ATOM     31  H   UNL     1      46.713   2.132  16.713  0.00  0.00    +0.000 HD
ENDBRANCH  18  21
ENDBRANCH   2  17
TORSDOF 6
ENDMDL
MODEL 2
REMARK VINA RESULT:    -8.284      1.837      2.333
REMARK INTER + INTRA:         -12.187
REMARK INTER:                 -11.186
REMARK INTRA:                  -1.001
REMARK UNBOUND:                -0.998
REMARK  Name = 
REMARK  7 active torsions:
REMARK  status: ('A' for Active; 'I' for Inactive)
REMARK    1  A    between atoms: C_1  and  C_2
REMARK    2  A    between atoms: C_2  and  N_3
REMARK    3  A    between atoms: C_2  and  C_16
REMARK    4  A    between atoms: C_4  and  C_6
REMARK    5  A    between atoms: C_19  and  O_20
REMARK    6  A    between atoms: O_20  and  C_21
REMARK    7  A    between atoms: C_21  and  C_22
REMARK                            x       y       z     vdW  Elec       q    Type
REMARK                         _______ _______ _______ _____ _____    ______ ____
ROOT
ATOM      1  C   UNL     1      47.364   8.428  13.779  0.00  0.00    +0.000 C 
ATOM      2  C   UNL     1      47.749   6.949  13.702  0.00  0.00    +0.000 C 
ENDROOT
BRANCH   2   3
ATOM      3  C   UNL     1      46.850   6.171  12.756  0.00  0.00    +0.000 A 
ATOM      4  C   UNL     1      46.176   5.033  13.224  0.00  0.00    +0.000 A 
ATOM      5  C   UNL     1      45.298   4.327  12.396  0.00  0.00    +0.000 A 
ATOM      6  C   UNL     1      45.070   4.752  11.087  0.00  0.00    +0.000 A 
ATOM      7  C   UNL     1      45.754   5.867  10.605  0.00  0.00    +0.000 A 
ATOM      8  C   UNL     1      46.631   6.577  11.432  0.00  0.00    +0.000 A 
BRANCH   6   9
ATOM      9  O   UNL     1      44.240   4.141  10.189  0.00  0.00    +0.000 OA
BRANCH   9  10
ATOM     10  C   UNL     1      44.492   2.752   9.944  0.00  0.00    +0.000 C 
BRANCH  10  11
ATOM     11  C   UNL     1      45.362   2.571   8.717  0.00  0.00    +0.000 A 
ATOM     12  C   UNL     1      45.531   3.608   7.801  0.00  0.00    +0.000 A 
ATOM     13  C   UNL     1      46.386   3.425   6.718  0.00  0.00    +0.000 A 
ATOM     14  C   UNL     1      47.064   2.220   6.584  0.00  0.00    +0.000 A 
ATOM     15  C   UNL     1      46.858   1.246   7.545  0.00  0.00    +0.000 A 
ATOM     16  N   UNL     1      46.032   1.394   8.604  0.00  0.00    +0.000 NA
ENDBRANCH  10  11
ENDBRANCH   9  10
ENDBRANCH   6   9
ENDBRANCH   2   3
BRANCH   2  17
ATOM     17  N   UNL     1      47.727   6.336  15.016  0.00  0.00    +0.000 N 
ATOM     18  C   UNL     1      48.854   6.174  15.777  0.00  0.00    +0.000 C 
ATOM     19  O   UNL     1      49.962   6.531  15.387  0.00  0.00    +0.000 OA
ATOM     20  H   UNL     1      46.851   5.925  15.321  0.00  0.00    +0.000 HD
BRANCH  18  21
ATOM     21  C   UNL     1      48.662   5.605  17.117  0.00  0.00    +0.000 A 
ATOM     22  C   UNL     1      48.855   4.245  17.316  0.00  0.00    +0.000 A 
ATOM     23  S   UNL     1      48.635   3.752  18.933  0.00  0.00    +0.000 S 
ATOM     24  C   UNL     1      48.227   5.331  19.416  0.00  0.00    +0.000 A 
ATOM     25  N   UNL     1      47.896   5.601  20.708  0.00  0.00    +0.000 NA
ATOM     26  C   UNL     1      47.560   6.829  20.925  0.00  0.00    +0.000 A 
ATOM     27  N   UNL     1      47.536   7.814  19.972  0.00  0.00    +0.000 N 
ATOM     28  C   UNL     1      47.928   7.602  18.671  0.00  0.00    +0.000 A 
ATOM     29  O   UNL     1      48.004   8.528  17.875  0.00  0.00    +0.000 OA
ATOM     30  C   UNL     1      48.275   6.227  18.362  0.00  0.00    +0.000 A 
ATOM     31  H   UNL     1      47.286   8.761  20.212  0.00  0.00    +0.000 HD
ENDBRANCH  18  21
ENDBRANCH   2  17
TORSDOF 6
ENDMDL
MODEL 3
REMARK VINA RESULT:    -8.234      1.671      2.176
REMARK INTER + INTRA:         -12.120
REMARK INTER:                 -11.150
REMARK INTRA:                  -0.970
REMARK UNBOUND:                -0.998
REMARK  Name = 
REMARK  7 active torsions:
REMARK  status: ('A' for Active; 'I' for Inactive)
REMARK    1  A    between atoms: C_1  and  C_2
REMARK    2  A    between atoms: C_2  and  N_3
REMARK    3  A    between atoms: C_2  and  C_16
REMARK    4  A    between atoms: C_4  and  C_6
REMARK    5  A    between atoms: C_19  and  O_20
REMARK    6  A    between atoms: O_20  and  C_21
REMARK    7  A    between atoms: C_21  and  C_22
REMARK                            x       y       z     vdW  Elec       q    Type
REMARK                         _______ _______ _______ _____ _____    ______ ____
ROOT
ATOM      1  C   UNL     1      48.399   8.375  12.958  0.00  0.00    +0.000 C 
ATOM      2  C   UNL     1      48.316   6.926  13.442  0.00  0.00    +0.000 C 
ENDROOT
BRANCH   2   3
ATOM      3  C   UNL     1      47.213   6.150  12.745  0.00  0.00    +0.000 A 
ATOM      4  C   UNL     1      46.709   6.614  11.522  0.00  0.00    +0.000 A 
ATOM      5  C   UNL     1      45.733   5.893  10.826  0.00  0.00    +0.000 A 
ATOM      6  C   UNL     1      45.250   4.689  11.338  0.00  0.00    +0.000 A 
ATOM      7  C   UNL     1      45.726   4.231  12.565  0.00  0.00    +0.000 A 
ATOM      8  C   UNL     1      46.705   4.948  13.262  0.00  0.00    +0.000 A 
BRANCH   6   9
ATOM      9  O   UNL     1      44.297   3.903  10.750  0.00  0.00    +0.000 OA
BRANCH   9  10
ATOM     10  C   UNL     1      44.132   4.067   9.337  0.00  0.00    +0.000 C 
BRANCH  10  11
ATOM     11  C   UNL     1      45.217   3.330   8.580  0.00  0.00    +0.000 A 
ATOM     12  C   UNL     1      45.426   1.965   8.777  0.00  0.00    +0.000 A 
ATOM     13  C   UNL     1      46.391   1.310   8.019  0.00  0.00    +0.000 A 
ATOM     14  C   UNL     1      47.113   2.025   7.072  0.00  0.00    +0.000 A 
ATOM     15  C   UNL     1      46.836   3.373   6.923  0.00  0.00    +0.000 A 
ATOM     16  N   UNL     1      45.907   4.036   7.647  0.00  0.00    +0.000 NA
ENDBRANCH  10  11
ENDBRANCH   9  10
ENDBRANCH   6   9
ENDBRANCH   2   3
BRANCH   2  17
ATOM     17  N   UNL     1      48.126   6.866  14.879  0.00  0.00    +0.000 N 
ATOM     18  C   UNL     1      49.169   6.781  15.762  0.00  0.00    +0.000 C 
ATOM     19  O   UNL     1      50.338   6.737  15.389  0.00  0.00    +0.000 OA
ATOM     20  H   UNL     1      47.173   6.784  15.217  0.00  0.00    +0.000 HD
BRANCH  18  21
ATOM     21  C   UNL     1      48.823   6.804  17.189  0.00  0.00    +0.000 A 
ATOM     22  C   UNL     1      48.423   7.997  17.776  0.00  0.00    +0.000 A 
ATOM     23  S   UNL     1      48.016   7.846  19.424  0.00  0.00    +0.000 S 
ATOM     24  C   UNL     1      48.407   6.190  19.425  0.00  0.00    +0.000 A 
ATOM     25  N   UNL     1      48.301   5.450  20.561  0.00  0.00    +0.000 NA
ATOM     26  C   UNL     1      48.676   4.220  20.432  0.00  0.00    +0.000 A 
ATOM     27  N   UNL     1      49.137   3.661  19.268  0.00  0.00    +0.000 N 
ATOM     28  C   UNL     1      49.195   4.353  18.081  0.00  0.00    +0.000 A 
ATOM     29  O   UNL     1      49.502   3.793  17.037  0.00  0.00    +0.000 OA
ATOM     30  C   UNL     1      48.825   5.753  18.180  0.00  0.00    +0.000 A 
ATOM     31  H   UNL     1      49.393   2.687  19.228  0.00  0.00    +0.000 HD
ENDBRANCH  18  21
ENDBRANCH   2  17
TORSDOF 6
ENDMDL
MODEL 4
REMARK VINA RESULT:    -7.257      1.837      2.897
REMARK INTER + INTRA:         -10.800
REMARK INTER:                  -9.994
REMARK INTRA:                  -0.806
REMARK UNBOUND:                -0.998
REMARK  Name = 
REMARK  7 active torsions:
REMARK  status: ('A' for Active; 'I' for Inactive)
REMARK    1  A    between atoms: C_1  and  C_2
REMARK    2  A    between atoms: C_2  and  N_3
REMARK    3  A    between atoms: C_2  and  C_16
REMARK    4  A    between atoms: C_4  and  C_6
REMARK    5  A    between atoms: C_19  and  O_20
REMARK    6  A    between atoms: O_20  and  C_21
REMARK    7  A    between atoms: C_21  and  C_22
REMARK                            x       y       z     vdW  Elec       q    Type
REMARK                         _______ _______ _______ _____ _____    ______ ____
ROOT
ATOM      1  C   UNL     1      46.196   8.585  13.253  0.00  0.00    +0.000 C 
ATOM      2  C   UNL     1      47.063   7.326  13.171  0.00  0.00    +0.000 C 
ENDROOT
BRANCH   2   3
ATOM      3  C   UNL     1      46.365   6.195  12.437  0.00  0.00    +0.000 A 
ATOM      4  C   UNL     1      45.992   6.368  11.096  0.00  0.00    +0.000 A 
ATOM      5  C   UNL     1      45.399   5.327  10.374  0.00  0.00    +0.000 A 
ATOM      6  C   UNL     1      45.176   4.090  10.979  0.00  0.00    +0.000 A 
ATOM      7  C   UNL     1      45.520   3.916  12.318  0.00  0.00    +0.000 A 
ATOM      8  C   UNL     1      46.116   4.954  13.042  0.00  0.00    +0.000 A 
BRANCH   6   9
ATOM      9  O   UNL     1      44.601   3.006  10.376  0.00  0.00    +0.000 OA
BRANCH   9  10
ATOM     10  C   UNL     1      44.275   3.157   8.990  0.00  0.00    +0.000 C 
BRANCH  10  11
ATOM     11  C   UNL     1      45.445   2.755   8.115  0.00  0.00    +0.000 A 
ATOM     12  C   UNL     1      46.020   1.489   8.227  0.00  0.00    +0.000 A 
ATOM     13  C   UNL     1      47.053   1.135   7.364  0.00  0.00    +0.000 A 
ATOM     14  C   UNL     1      47.477   2.043   6.403  0.00  0.00    +0.000 A 
ATOM     15  C   UNL     1      46.845   3.272   6.343  0.00  0.00    +0.000 A 
ATOM     16  N   UNL     1      45.842   3.645   7.169  0.00  0.00    +0.000 NA
ENDBRANCH  10  11
ENDBRANCH   9  10
ENDBRANCH   6   9
ENDBRANCH   2   3
BRANCH   2  17
ATOM     17  N   UNL     1      47.463   6.881  14.492  0.00  0.00    +0.000 N 
ATOM     18  C   UNL     1      48.753   6.963  14.943  0.00  0.00    +0.000 C 
ATOM     19  O   UNL     1      49.661   7.411  14.248  0.00  0.00    +0.000 OA
ATOM     20  H   UNL     1      46.765   6.400  15.049  0.00  0.00    +0.000 HD
BRANCH  18  21
ATOM     21  C   UNL     1      48.990   6.542  16.330  0.00  0.00    +0.000 A 
ATOM     22  C   UNL     1      48.595   5.276  16.737  0.00  0.00    +0.000 A 
ATOM     23  S   UNL     1      48.980   4.927  18.361  0.00  0.00    +0.000 S 
ATOM     24  C   UNL     1      49.645   6.476  18.592  0.00  0.00    +0.000 A 
ATOM     25  N   UNL     1      50.146   6.846  19.801  0.00  0.00    +0.000 NA
ATOM     26  C   UNL     1      50.574   8.063  19.850  0.00  0.00    +0.000 A 
ATOM     27  N   UNL     1      50.557   8.942  18.798  0.00  0.00    +0.000 N 
ATOM     28  C   UNL     1      50.123   8.590  17.540  0.00  0.00    +0.000 A 
ATOM     29  O   UNL     1      50.229   9.361  16.596  0.00  0.00    +0.000 OA
ATOM     30  C   UNL     1      49.592   7.243  17.441  0.00  0.00    +0.000 A 
ATOM     31  H   UNL     1      50.927   9.874  18.895  0.00  0.00    +0.000 HD
ENDBRANCH  18  21
ENDBRANCH   2  17
TORSDOF 6
ENDMDL
MODEL 5
REMARK VINA RESULT:    -7.223      3.315      7.963
REMARK INTER + INTRA:         -10.754
REMARK INTER:                  -9.636
REMARK INTRA:                  -1.118
REMARK UNBOUND:                -0.998
REMARK  Name = 
REMARK  7 active torsions:
REMARK  status: ('A' for Active; 'I' for Inactive)
REMARK    1  A    between atoms: C_1  and  C_2
REMARK    2  A    between atoms: C_2  and  N_3
REMARK    3  A    between atoms: C_2  and  C_16
REMARK    4  A    between atoms: C_4  and  C_6
REMARK    5  A    between atoms: C_19  and  O_20
REMARK    6  A    between atoms: O_20  and  C_21
REMARK    7  A    between atoms: C_21  and  C_22
REMARK                            x       y       z     vdW  Elec       q    Type
REMARK                         _______ _______ _______ _____ _____    ______ ____
ROOT
ATOM      1  C   UNL     1      49.435   8.219  11.474  0.00  0.00    +0.000 C 
ATOM      2  C   UNL     1      48.360   7.749  12.457  0.00  0.00    +0.000 C 
ENDROOT
BRANCH   2   3
ATOM      3  C   UNL     1      48.951   7.298  13.782  0.00  0.00    +0.000 A 
ATOM      4  C   UNL     1      50.254   7.687  14.125  0.00  0.00    +0.000 A 
ATOM      5  C   UNL     1      50.808   7.337  15.361  0.00  0.00    +0.000 A 
ATOM      6  C   UNL     1      50.063   6.598  16.280  0.00  0.00    +0.000 A 
ATOM      7  C   UNL     1      48.776   6.185  15.939  0.00  0.00    +0.000 A 
ATOM      8  C   UNL     1      48.219   6.537  14.705  0.00  0.00    +0.000 A 
BRANCH   6   9
ATOM      9  O   UNL     1      50.499   6.195  17.512  0.00  0.00    +0.000 OA
BRANCH   9  10
ATOM     10  C   UNL     1      49.842   5.051  18.068  0.00  0.00    +0.000 C 
BRANCH  10  11
ATOM     11  C   UNL     1      50.643   3.791  17.808  0.00  0.00    +0.000 A 
ATOM     12  C   UNL     1      51.948   3.663  18.283  0.00  0.00    +0.000 A 
ATOM     13  C   UNL     1      52.630   2.467  18.077  0.00  0.00    +0.000 A 
ATOM     14  C   UNL     1      51.992   1.425  17.418  0.00  0.00    +0.000 A 
ATOM     15  C   UNL     1      50.690   1.623  16.992  0.00  0.00    +0.000 A 
ATOM     16  N   UNL     1      50.004   2.773  17.175  0.00  0.00    +0.000 NA
ENDBRANCH  10  11
ENDBRANCH   9  10
ENDBRANCH   6   9
ENDBRANCH   2   3
BRANCH   2  17
ATOM     17  N   UNL     1      47.562   6.681  11.887  0.00  0.00    +0.000 N 
ATOM     18  C   UNL     1      46.273   6.864  11.464  0.00  0.00    +0.000 C 
ATOM     19  O   UNL     1      45.703   7.948  11.554  0.00  0.00    +0.000 OA
ATOM     20  H   UNL     1      47.959   5.748  11.903  0.00  0.00    +0.000 HD
BRANCH  18  21
ATOM     21  C   UNL     1      45.619   5.707  10.839  0.00  0.00    +0.000 A 
ATOM     22  C   UNL     1      45.722   5.521   9.468  0.00  0.00    +0.000 A 
ATOM     23  S   UNL     1      44.945   4.112   8.907  0.00  0.00    +0.000 S 
ATOM     24  C   UNL     1      44.400   3.725  10.472  0.00  0.00    +0.000 A 
ATOM     25  N   UNL     1      43.636   2.620  10.690  0.00  0.00    +0.000 NA
ATOM     26  C   UNL     1      43.251   2.473  11.914  0.00  0.00    +0.000 A 
ATOM     27  N   UNL     1      43.568   3.324  12.942  0.00  0.00    +0.000 N 
ATOM     28  C   UNL     1      44.394   4.413  12.780  0.00  0.00    +0.000 A 
ATOM     29  O   UNL     1      44.750   5.084  13.739  0.00  0.00    +0.000 OA
ATOM     30  C   UNL     1      44.820   4.648  11.413  0.00  0.00    +0.000 A 
ATOM     31  H   UNL     1      43.255   3.140  13.882  0.00  0.00    +0.000 HD
ENDBRANCH  18  21
ENDBRANCH   2  17
TORSDOF 6
ENDMDL
MODEL 6
REMARK VINA RESULT:    -6.939      3.242      4.681
REMARK INTER + INTRA:         -10.370
REMARK INTER:                  -9.300
REMARK INTRA:                  -1.070
REMARK UNBOUND:                -0.998
REMARK  Name = 
REMARK  7 active torsions:
REMARK  status: ('A' for Active; 'I' for Inactive)
REMARK    1  A    between atoms: C_1  and  C_2
REMARK    2  A    between atoms: C_2  and  N_3
REMARK    3  A    between atoms: C_2  and  C_16
REMARK    4  A    between atoms: C_4  and  C_6
REMARK    5  A    between atoms: C_19  and  O_20
REMARK    6  A    between atoms: O_20  and  C_21
REMARK    7  A    between atoms: C_21  and  C_22
REMARK                            x       y       z     vdW  Elec       q    Type
REMARK                         _______ _______ _______ _____ _____    ______ ____
ROOT
ATOM      1  C   UNL     1      47.662   5.728  18.839  0.00  0.00    +0.000 C 
ATOM      2  C   UNL     1      48.787   5.940  17.825  0.00  0.00    +0.000 C 
ENDROOT
BRANCH   2   3
ATOM      3  C   UNL     1      48.308   5.773  16.393  0.00  0.00    +0.000 A 
ATOM      4  C   UNL     1      47.529   4.659  16.051  0.00  0.00    +0.000 A 
ATOM      5  C   UNL     1      47.024   4.504  14.756  0.00  0.00    +0.000 A 
ATOM      6  C   UNL     1      47.283   5.468  13.781  0.00  0.00    +0.000 A 
ATOM      7  C   UNL     1      48.077   6.567  14.104  0.00  0.00    +0.000 A 
ATOM      8  C   UNL     1      48.580   6.726  15.400  0.00  0.00    +0.000 A 
BRANCH   6   9
ATOM      9  O   UNL     1      46.847   5.421  12.486  0.00  0.00    +0.000 OA
BRANCH   9  10
ATOM     10  C   UNL     1      45.433   5.290  12.302  0.00  0.00    +0.000 C 
BRANCH  10  11
ATOM     11  C   UNL     1      45.123   4.569  11.007  0.00  0.00    +0.000 A 
ATOM     12  C   UNL     1      45.510   5.105   9.779  0.00  0.00    +0.000 A 
ATOM     13  C   UNL     1      45.262   4.384   8.615  0.00  0.00    +0.000 A 
ATOM     14  C   UNL     1      44.649   3.141   8.703  0.00  0.00    +0.000 A 
ATOM     15  C   UNL     1      44.310   2.669   9.959  0.00  0.00    +0.000 A 
ATOM     16  N   UNL     1      44.536   3.347  11.106  0.00  0.00    +0.000 NA
ENDBRANCH  10  11
ENDBRANCH   9  10
ENDBRANCH   6   9
ENDBRANCH   2   3
BRANCH   2  17
ATOM     17  N   UNL     1      49.896   5.040  18.079  0.00  0.00    +0.000 N 
ATOM     18  C   UNL     1      51.194   5.363  17.792  0.00  0.00    +0.000 C 
ATOM     19  O   UNL     1      51.503   6.439  17.286  0.00  0.00    +0.000 OA
ATOM     20  H   UNL     1      49.668   4.101  18.389  0.00  0.00    +0.000 HD
BRANCH  18  21
ATOM     21  C   UNL     1      52.215   4.379  18.176  0.00  0.00    +0.000 A 
ATOM     22  C   UNL     1      53.359   4.803  18.836  0.00  0.00    +0.000 A 
ATOM     23  S   UNL     1      54.421   3.535  19.249  0.00  0.00    +0.000 S 
ATOM     24  C   UNL     1      53.411   2.378  18.517  0.00  0.00    +0.000 A 
ATOM     25  N   UNL     1      53.758   1.063  18.496  0.00  0.00    +0.000 NA
ATOM     26  C   UNL     1      52.926   0.303  17.865  0.00  0.00    +0.000 A 
ATOM     27  N   UNL     1      51.773   0.736  17.263  0.00  0.00    +0.000 N 
ATOM     28  C   UNL     1      51.348   2.043  17.319  0.00  0.00    +0.000 A 
ATOM     29  O   UNL     1      50.258   2.374  16.871  0.00  0.00    +0.000 OA
ATOM     30  C   UNL     1      52.269   2.949  17.980  0.00  0.00    +0.000 A 
ATOM     31  H   UNL     1      51.152   0.087  16.806  0.00  0.00    +0.000 HD
ENDBRANCH  18  21
ENDBRANCH   2  17
TORSDOF 6
ENDMDL
MODEL 7
REMARK VINA RESULT:    -6.657      4.187      6.506
REMARK INTER + INTRA:          -9.990
REMARK INTER:                  -8.842
REMARK INTRA:                  -1.148
REMARK UNBOUND:                -0.998
REMARK  Name = 
REMARK  7 active torsions:
REMARK  status: ('A' for Active; 'I' for Inactive)
REMARK    1  A    between atoms: C_1  and  C_2
REMARK    2  A    between atoms: C_2  and  N_3
REMARK    3  A    between atoms: C_2  and  C_16
REMARK    4  A    between atoms: C_4  and  C_6
REMARK    5  A    between atoms: C_19  and  O_20
REMARK    6  A    between atoms: O_20  and  C_21
REMARK    7  A    between atoms: C_21  and  C_22
REMARK                            x       y       z     vdW  Elec       q    Type
REMARK                         _______ _______ _______ _____ _____    ______ ____
ROOT
ATOM      1  C   UNL     1      49.021   4.783  20.474  0.00  0.00    +0.000 C 
ATOM      2  C   UNL     1      49.873   4.886  19.207  0.00  0.00    +0.000 C 
ENDROOT
BRANCH   2   3
ATOM      3  C   UNL     1      49.083   4.549  17.955  0.00  0.00    +0.000 A 
ATOM      4  C   UNL     1      48.677   3.226  17.729  0.00  0.00    +0.000 A 
ATOM      5  C   UNL     1      47.900   2.891  16.616  0.00  0.00    +0.000 A 
ATOM      6  C   UNL     1      47.505   3.878  15.712  0.00  0.00    +0.000 A 
ATOM      7  C   UNL     1      47.923   5.193  15.914  0.00  0.00    +0.000 A 
ATOM      8  C   UNL     1      48.698   5.530  17.029  0.00  0.00    +0.000 A 
BRANCH   6   9
ATOM      9  O   UNL     1      46.752   3.670  14.591  0.00  0.00    +0.000 OA
BRANCH   9  10
ATOM     10  C   UNL     1      46.515   4.820  13.770  0.00  0.00    +0.000 C 
BRANCH  10  11
ATOM     11  C   UNL     1      45.249   4.650  12.957  0.00  0.00    +0.000 A 
ATOM     12  C   UNL     1      44.678   5.731  12.287  0.00  0.00    +0.000 A 
ATOM     13  C   UNL     1      43.549   5.523  11.501  0.00  0.00    +0.000 A 
ATOM     14  C   UNL     1      43.025   4.242  11.389  0.00  0.00    +0.000 A 
ATOM     15  C   UNL     1      43.658   3.217  12.070  0.00  0.00    +0.000 A 
ATOM     16  N   UNL     1      44.754   3.389  12.843  0.00  0.00    +0.000 NA
ENDBRANCH  10  11
ENDBRANCH   9  10
ENDBRANCH   6   9
ENDBRANCH   2   3
BRANCH   2  17
ATOM     17  N   UNL     1      51.042   4.031  19.294  0.00  0.00    +0.000 N 
ATOM     18  C   UNL     1      52.222   4.323  18.665  0.00  0.00    +0.000 C 
ATOM     19  O   UNL     1      52.362   5.328  17.972  0.00  0.00    +0.000 OA
ATOM     20  H   UNL     1      50.929   3.138  19.761  0.00  0.00    +0.000 HD
BRANCH  18  21
ATOM     21  C   UNL     1      53.340   3.401  18.908  0.00  0.00    +0.000 A 
ATOM     22  C   UNL     1      54.454   3.846  19.605  0.00  0.00    +0.000 A 
ATOM     23  S   UNL     1      55.640   2.645  19.839  0.00  0.00    +0.000 S 
ATOM     24  C   UNL     1      54.727   1.499  18.973  0.00  0.00    +0.000 A 
ATOM     25  N   UNL     1      55.197   0.237  18.779  0.00  0.00    +0.000 NA
ATOM     26  C   UNL     1      54.426  -0.513  18.064  0.00  0.00    +0.000 A 
ATOM     27  N   UNL     1      53.224  -0.120  17.535  0.00  0.00    +0.000 N 
ATOM     28  C   UNL     1      52.679   1.122  17.764  0.00  0.00    +0.000 A 
ATOM     29  O   UNL     1      51.553   1.400  17.373  0.00  0.00    +0.000 OA
ATOM     30  C   UNL     1      53.525   2.020  18.527  0.00  0.00    +0.000 A 
ATOM     31  H   UNL     1      52.658  -0.763  17.003  0.00  0.00    +0.000 HD
ENDBRANCH  18  21
ENDBRANCH   2  17
TORSDOF 6
ENDMDL
MODEL 8
REMARK VINA RESULT:    -6.346      3.840      8.805
REMARK INTER + INTRA:          -9.570
REMARK INTER:                  -8.501
REMARK INTRA:                  -1.069
REMARK UNBOUND:                -0.998
REMARK  Name = 
REMARK  7 active torsions:
REMARK  status: ('A' for Active; 'I' for Inactive)
REMARK    1  A    between atoms: C_1  and  C_2
REMARK    2  A    between atoms: C_2  and  N_3
REMARK    3  A    between atoms: C_2  and  C_16
REMARK    4  A    between atoms: C_4  and  C_6
REMARK    5  A    between atoms: C_19  and  O_20
REMARK    6  A    between atoms: O_20  and  C_21
REMARK    7  A    between atoms: C_21  and  C_22
REMARK                            x       y       z     vdW  Elec       q    Type
REMARK                         _______ _______ _______ _____ _____    ______ ____
ROOT
ATOM      1  C   UNL     1      46.804   3.236  17.451  0.00  0.00    +0.000 C 
ATOM      2  C   UNL     1      47.817   3.800  16.453  0.00  0.00    +0.000 C 
ENDROOT
BRANCH   2   3
ATOM      3  C   UNL     1      48.971   4.507  17.144  0.00  0.00    +0.000 A 
ATOM      4  C   UNL     1      48.939   5.901  17.290  0.00  0.00    +0.000 A 
ATOM      5  C   UNL     1      49.957   6.577  17.971  0.00  0.00    +0.000 A 
ATOM      6  C   UNL     1      51.022   5.868  18.526  0.00  0.00    +0.000 A 
ATOM      7  C   UNL     1      51.076   4.484  18.365  0.00  0.00    +0.000 A 
ATOM      8  C   UNL     1      50.057   3.805  17.688  0.00  0.00    +0.000 A 
BRANCH   6   9
ATOM      9  O   UNL     1      52.072   6.419  19.207  0.00  0.00    +0.000 OA
BRANCH   9  10
ATOM     10  C   UNL     1      52.791   7.451  18.523  0.00  0.00    +0.000 C 
BRANCH  10  11
ATOM     11  C   UNL     1      53.567   6.882  17.352  0.00  0.00    +0.000 A 
ATOM     12  C   UNL     1      53.393   7.390  16.065  0.00  0.00    +0.000 A 
ATOM     13  C   UNL     1      54.168   6.883  15.026  0.00  0.00    +0.000 A 
ATOM     14  C   UNL     1      55.106   5.895  15.297  0.00  0.00    +0.000 A 
ATOM     15  C   UNL     1      55.231   5.456  16.603  0.00  0.00    +0.000 A 
ATOM     16  N   UNL     1      54.491   5.927  17.631  0.00  0.00    +0.000 NA
ENDBRANCH  10  11
ENDBRANCH   9  10
ENDBRANCH   6   9
ENDBRANCH   2   3
BRANCH   2  17
ATOM     17  N   UNL     1      47.179   4.704  15.516  0.00  0.00    +0.000 N 
ATOM     18  C   UNL     1      46.887   4.350  14.226  0.00  0.00    +0.000 C 
ATOM     19  O   UNL     1      47.160   3.241  13.775  0.00  0.00    +0.000 OA
ATOM     20  H   UNL     1      47.043   5.663  15.817  0.00  0.00    +0.000 HD
BRANCH  18  21
ATOM     21  C   UNL     1      46.171   5.347  13.420  0.00  0.00    +0.000 A 
ATOM     22  C   UNL     1      46.759   6.581  13.178  0.00  0.00    +0.000 A 
ATOM     23  S   UNL     1      45.819   7.606  12.191  0.00  0.00    +0.000 S 
ATOM     24  C   UNL     1      44.570   6.455  12.093  0.00  0.00    +0.000 A 
ATOM     25  N   UNL     1      43.431   6.720  11.397  0.00  0.00    +0.000 NA
ATOM     26  C   UNL     1      42.547   5.780  11.446  0.00  0.00    +0.000 A 
ATOM     27  N   UNL     1      42.701   4.595  12.118  0.00  0.00    +0.000 N 
ATOM     28  C   UNL     1      43.861   4.257  12.776  0.00  0.00    +0.000 A 
ATOM     29  O   UNL     1      44.008   3.145  13.266  0.00  0.00    +0.000 OA
ATOM     30  C   UNL     1      44.873   5.297  12.788  0.00  0.00    +0.000 A 
ATOM     31  H   UNL     1      41.980   3.891  12.098  0.00  0.00    +0.000 HD
ENDBRANCH  18  21
ENDBRANCH   2  17
TORSDOF 6
ENDMDL
MODEL 9
REMARK VINA RESULT:    -6.254      3.110      9.203
REMARK INTER + INTRA:          -9.446
REMARK INTER:                  -8.171
REMARK INTRA:                  -1.274
REMARK UNBOUND:                -0.998
REMARK  Name = 
REMARK  7 active torsions:
REMARK  status: ('A' for Active; 'I' for Inactive)
REMARK    1  A    between atoms: C_1  and  C_2
REMARK    2  A    between atoms: C_2  and  N_3
REMARK    3  A    between atoms: C_2  and  C_16
REMARK    4  A    between atoms: C_4  and  C_6
REMARK    5  A    between atoms: C_19  and  O_20
REMARK    6  A    between atoms: O_20  and  C_21
REMARK    7  A    between atoms: C_21  and  C_22
REMARK                            x       y       z     vdW  Elec       q    Type
REMARK                         _______ _______ _______ _____ _____    ______ ____
ROOT
ATOM      1  C   UNL     1      48.522   7.825  11.900  0.00  0.00    +0.000 C 
ATOM      2  C   UNL     1      47.597   7.261  12.981  0.00  0.00    +0.000 C 
ENDROOT
BRANCH   2   3
ATOM      3  C   UNL     1      48.352   6.887  14.245  0.00  0.00    +0.000 A 
ATOM      4  C   UNL     1      49.493   7.615  14.608  0.00  0.00    +0.000 A 
ATOM      5  C   UNL     1      50.178   7.333  15.795  0.00  0.00    +0.000 A 
ATOM      6  C   UNL     1      49.727   6.323  16.644  0.00  0.00    +0.000 A 
ATOM      7  C   UNL     1      48.608   5.577  16.280  0.00  0.00    +0.000 A 
ATOM      8  C   UNL     1      47.919   5.859  15.095  0.00  0.00    +0.000 A 
BRANCH   6   9
ATOM      9  O   UNL     1      50.316   5.958  17.823  0.00  0.00    +0.000 OA
BRANCH   9  10
ATOM     10  C   UNL     1      49.448   5.874  18.959  0.00  0.00    +0.000 C 
BRANCH  10  11
ATOM     11  C   UNL     1      49.021   7.254  19.412  0.00  0.00    +0.000 A 
ATOM     12  C   UNL     1      47.683   7.643  19.356  0.00  0.00    +0.000 A 
ATOM     13  C   UNL     1      47.319   8.897  19.839  0.00  0.00    +0.000 A 
ATOM     14  C   UNL     1      48.294   9.725  20.379  0.00  0.00    +0.000 A 
ATOM     15  C   UNL     1      49.597   9.262  20.415  0.00  0.00    +0.000 A 
ATOM     16  N   UNL     1      49.980   8.051  19.952  0.00  0.00    +0.000 NA
ENDBRANCH  10  11
ENDBRANCH   9  10
ENDBRANCH   6   9
ENDBRANCH   2   3
BRANCH   2  17
ATOM     17  N   UNL     1      46.861   6.111  12.490  0.00  0.00    +0.000 N 
ATOM     18  C   UNL     1      45.496   6.090  12.395  0.00  0.00    +0.000 C 
ATOM     19  O   UNL     1      44.803   7.046  12.734  0.00  0.00    +0.000 OA
ATOM     20  H   UNL     1      47.391   5.265  12.311  0.00  0.00    +0.000 HD
BRANCH  18  21
ATOM     21  C   UNL     1      44.899   4.883  11.809  0.00  0.00    +0.000 A 
ATOM     22  C   UNL     1      44.128   4.046  12.603  0.00  0.00    +0.000 A 
ATOM     23  S   UNL     1      43.474   2.715  11.763  0.00  0.00    +0.000 S 
ATOM     24  C   UNL     1      44.238   3.184  10.316  0.00  0.00    +0.000 A 
ATOM     25  N   UNL     1      44.104   2.440   9.185  0.00  0.00    +0.000 NA
ATOM     26  C   UNL     1      44.776   2.884   8.175  0.00  0.00    +0.000 A 
ATOM     27  N   UNL     1      45.561   4.007   8.190  0.00  0.00    +0.000 N 
ATOM     28  C   UNL     1      45.670   4.826   9.290  0.00  0.00    +0.000 A 
ATOM     29  O   UNL     1      46.286   5.882   9.234  0.00  0.00    +0.000 OA
ATOM     30  C   UNL     1      44.968   4.350  10.467  0.00  0.00    +0.000 A 
ATOM     31  H   UNL     1      46.043   4.313   7.359  0.00  0.00    +0.000 HD
ENDBRANCH  18  21
ENDBRANCH   2  17
TORSDOF 6
ENDMDL
