MODEL 1
REMARK VINA RESULT:    -8.464      0.000      0.000
REMARK INTER + INTRA:         -14.021
REMARK INTER:                 -12.423
REMARK INTRA:                  -1.598
REMARK UNBOUND:                -1.598
REMARK  Name = 
REMARK  10 active torsions:
REMARK  status: ('A' for Active; 'I' for Inactive)
REMARK    1  A    between atoms: C_1  and  O_2
REMARK    2  A    between atoms: O_2  and  C_3
REMARK    3  A    between atoms: C_10  and  C_11
REMARK    4  A    between atoms: N_13  and  C_14
REMARK    5  A    between atoms: C_14  and  C_15
REMARK    6  A    between atoms: C_18  and  C_19
REMARK    7  A    between atoms: C_19  and  N_20
REMARK    8  A    between atoms: N_20  and  C_21
REMARK    9  A    between atoms: C_21  and  C_22
REMARK   10  A    between atoms: C_21  and  C_23
REMARK                            x       y       z     vdW  Elec       q    Type
REMARK                         _______ _______ _______ _____ _____    ______ ____
ROOT
ATOM      1  C   UNL     1      46.296   7.229  12.516  0.00  0.00    +0.000 A 
ATOM      2  C   UNL     1      46.771   6.593  11.360  0.00  0.00    +0.000 A 
ATOM      3  C   UNL     1      45.919   5.796  10.578  0.00  0.00    +0.000 A 
ATOM      4  C   UNL     1      44.568   5.641  10.923  0.00  0.00    +0.000 A 
ATOM      5  C   UNL     1      44.087   6.332  12.045  0.00  0.00    +0.000 A 
ATOM      6  C   UNL     1      44.936   7.118  12.827  0.00  0.00    +0.000 A 
ENDROOT
BRANCH   1   7
ATOM      7  C   UNL     1      47.216   8.029  13.406  0.00  0.00    +0.000 C 
BRANCH   7  10
ATOM      8  C   UNL     1      48.879   6.836  14.779  0.00  0.00    +0.000 C 
ATOM      9  O   UNL     1      49.767   7.059  13.963  0.00  0.00    +0.000 OA
ATOM     10  N   UNL     1      47.598   7.282  14.576  0.00  0.00    +0.000 N 
ATOM     11  H   UNL     1      46.869   7.046  15.231  0.00  0.00    +0.000 HD
BRANCH   8  19
ATOM     12  C   UNL     1      47.277   4.212  16.324  0.00  0.00    +0.000 A 
ATOM     13  N   UNL     1      46.871   3.200  17.114  0.00  0.00    +0.000 NA
ATOM     14  C   UNL     1      47.576   2.942  18.217  0.00  0.00    +0.000 A 
ATOM     15  N   UNL     1      48.662   3.583  18.642  0.00  0.00    +0.000 NA
ATOM     16  C   UNL     1      49.042   4.575  17.820  0.00  0.00    +0.000 A 
ATOM     17  S   UNL     1      50.411   5.502  18.203  0.00  0.00    +0.000 S 
ATOM     18  C   UNL     1      50.229   6.443  16.799  0.00  0.00    +0.000 A 
ATOM     19  C   UNL     1      49.138   6.081  16.016  0.00  0.00    +0.000 A 
ATOM     20  C   UNL     1      48.426   4.964  16.634  0.00  0.00    +0.000 A 
BRANCH  12  22
ATOM     21  C   UNL     1      46.953   3.644  14.077  0.00  0.00    +0.000 C 
ATOM     22  O   UNL     1      46.560   4.464  15.176  0.00  0.00    +0.000 OA
ENDBRANCH  12  22
ENDBRANCH   8  19
ENDBRANCH   7  10
ENDBRANCH   1   7
BRANCH   4  23
ATOM     23  C   UNL     1      43.612   4.800  10.097  0.00  0.00    +0.000 C 
BRANCH  23  24
ATOM     24  N   UNL     1      44.176   4.425   8.796  0.00  0.00    +0.000 NA
ATOM     25  H   UNL     1      45.032   4.958   8.654  0.00  0.00    +0.000 HD
BRANCH  24  26
ATOM     26  C   UNL     1      44.484   2.980   8.687  0.00  0.00    +0.000 C 
ATOM     27  C   UNL     1      44.504   2.293  10.061  0.00  0.00    +0.000 C 
BRANCH  26  28
ATOM     28  C   UNL     1      45.731   2.629   7.866  0.00  0.00    +0.000 A 
ATOM     29  C   UNL     1      46.235   3.532   6.929  0.00  0.00    +0.000 A 
ATOM     30  C   UNL     1      47.314   3.150   6.131  0.00  0.00    +0.000 A 
ATOM     31  C   UNL     1      47.881   1.894   6.303  0.00  0.00    +0.000 A 
ATOM     32  C   UNL     1      47.358   1.074   7.285  0.00  0.00    +0.000 A 
ATOM     33  N   UNL     1      46.309   1.415   8.067  0.00  0.00    +0.000 NA
ENDBRANCH  26  28
ENDBRANCH  24  26
ENDBRANCH  23  24
ENDBRANCH   4  23
TORSDOF 8
ENDMDL
MODEL 2
REMARK VINA RESULT:    -7.778      1.378      1.654
REMARK INTER + INTRA:         -13.014
REMARK INTER:                 -11.746
REMARK INTRA:                  -1.268
REMARK UNBOUND:                -1.598
REMARK  Name = 
REMARK  10 active torsions:
REMARK  status: ('A' for Active; 'I' for Inactive)
REMARK    1  A    between atoms: C_1  and  O_2
REMARK    2  A    between atoms: O_2  and  C_3
REMARK    3  A    between atoms: C_10  and  C_11
REMARK    4  A    between atoms: N_13  and  C_14
REMARK    5  A    between atoms: C_14  and  C_15
REMARK    6  A    between atoms: C_18  and  C_19
REMARK    7  A    between atoms: C_19  and  N_20
REMARK    8  A    between atoms: N_20  and  C_21
REMARK    9  A    between atoms: C_21  and  C_22
REMARK   10  A    between atoms: C_21  and  C_23
REMARK                            x       y       z     vdW  Elec       q    Type
REMARK                         _______ _______ _______ _____ _____    ______ ____
ROOT
ATOM      1  C   UNL     1      46.789   7.604  12.808  0.00  0.00    +0.000 A 
ATOM      2  C   UNL     1      45.575   8.162  12.384  0.00  0.00    +0.000 A 
ATOM      3  C   UNL     1      44.616   7.376  11.723  0.00  0.00    +0.000 A 
ATOM      4  C   UNL     1      44.844   6.010  11.495  0.00  0.00    +0.000 A 
ATOM      5  C   UNL     1      46.034   5.447  11.979  0.00  0.00    +0.000 A 
ATOM      6  C   UNL     1      46.990   6.231  12.629  0.00  0.00    +0.000 A 
ENDROOT
BRANCH   1   7
ATOM      7  C   UNL     1      47.858   8.451  13.454  0.00  0.00    +0.000 C 
BRANCH   7  10
ATOM      8  C   UNL     1      48.902   7.440  15.445  0.00  0.00    +0.000 C 
ATOM      9  O   UNL     1      49.768   6.902  14.763  0.00  0.00    +0.000 OA
ATOM     10  N   UNL     1      47.928   8.219  14.873  0.00  0.00    +0.000 N 
ATOM     11  H   UNL     1      47.194   8.611  15.441  0.00  0.00    +0.000 HD
BRANCH   8  19
ATOM     12  C   UNL     1      48.631   4.706  17.516  0.00  0.00    +0.000 A 
ATOM     13  N   UNL     1      48.557   3.830  18.536  0.00  0.00    +0.000 NA
ATOM     14  C   UNL     1      48.572   4.313  19.780  0.00  0.00    +0.000 A 
ATOM     15  N   UNL     1      48.653   5.591  20.143  0.00  0.00    +0.000 NA
ATOM     16  C   UNL     1      48.739   6.429  19.097  0.00  0.00    +0.000 A 
ATOM     17  S   UNL     1      48.851   8.101  19.371  0.00  0.00    +0.000 S 
ATOM     18  C   UNL     1      48.920   8.421  17.703  0.00  0.00    +0.000 A 
ATOM     19  C   UNL     1      48.860   7.280  16.908  0.00  0.00    +0.000 A 
ATOM     20  C   UNL     1      48.746   6.089  17.748  0.00  0.00    +0.000 A 
BRANCH  12  22
ATOM     21  C   UNL     1      47.327   4.065  15.681  0.00  0.00    +0.000 C 
ATOM     22  O   UNL     1      48.635   4.204  16.232  0.00  0.00    +0.000 OA
ENDBRANCH  12  22
ENDBRANCH   8  19
ENDBRANCH   7  10
ENDBRANCH   1   7
BRANCH   4  23
ATOM     23  C   UNL     1      43.828   5.124  10.798  0.00  0.00    +0.000 C 
BRANCH  23  24
ATOM     24  N   UNL     1      44.259   4.727   9.454  0.00  0.00    +0.000 NA
ATOM     25  H   UNL     1      45.191   5.104   9.294  0.00  0.00    +0.000 HD
BRANCH  24  26
ATOM     26  C   UNL     1      44.294   3.259   9.261  0.00  0.00    +0.000 C 
ATOM     27  C   UNL     1      44.175   2.502  10.592  0.00  0.00    +0.000 C 
BRANCH  26  28
ATOM     28  C   UNL     1      45.459   2.729   8.416  0.00  0.00    +0.000 A 
ATOM     29  C   UNL     1      46.128   3.574   7.529  0.00  0.00    +0.000 A 
ATOM     30  C   UNL     1      47.123   3.044   6.707  0.00  0.00    +0.000 A 
ATOM     31  C   UNL     1      47.445   1.696   6.806  0.00  0.00    +0.000 A 
ATOM     32  C   UNL     1      46.773   0.935   7.742  0.00  0.00    +0.000 A 
ATOM     33  N   UNL     1      45.801   1.419   8.547  0.00  0.00    +0.000 NA
ENDBRANCH  26  28
ENDBRANCH  24  26
ENDBRANCH  23  24
ENDBRANCH   4  23
TORSDOF 8
ENDMDL
MODEL 3
REMARK VINA RESULT:    -7.649      2.565      3.331
REMARK INTER + INTRA:         -12.824
REMARK INTER:                 -11.483
REMARK INTRA:                  -1.341
REMARK UNBOUND:                -1.598
REMARK  Name = 
REMARK  10 active torsions:
REMARK  status: ('A' for Active; 'I' for Inactive)
REMARK    1  A    between atoms: C_1  and  O_2
REMARK    2  A    between atoms: O_2  and  C_3
REMARK    3  A    between atoms: C_10  and  C_11
REMARK    4  A    between atoms: N_13  and  C_14
REMARK    5  A    between atoms: C_14  and  C_15
REMARK    6  A    between atoms: C_18  and  C_19
REMARK    7  A    between atoms: C_19  and  N_20
REMARK    8  A    between atoms: N_20  and  C_21
REMARK    9  A    between atoms: C_21  and  C_22
REMARK   10  A    between atoms: C_21  and  C_23
REMARK                            x       y       z     vdW  Elec       q    Type
REMARK                         _______ _______ _______ _____ _____    ______ ____
ROOT
ATOM      1  C   UNL     1      47.555   6.400  13.193  0.00  0.00    +0.000 A 
ATOM      2  C   UNL     1      46.724   5.363  13.639  0.00  0.00    +0.000 A 
ATOM      3  C   UNL     1      45.629   4.939  12.868  0.00  0.00    +0.000 A 
ATOM      4  C   UNL     1      45.359   5.527  11.623  0.00  0.00    +0.000 A 
ATOM      5  C   UNL     1      46.234   6.521  11.156  0.00  0.00    +0.000 A 
ATOM      6  C   UNL     1      47.317   6.948  11.927  0.00  0.00    +0.000 A 
ENDROOT
BRANCH   1   7
ATOM      7  C   UNL     1      48.691   6.917  14.043  0.00  0.00    +0.000 C 
BRANCH   7  10
ATOM      8  C   UNL     1      49.083   6.504  16.441  0.00  0.00    +0.000 C 
ATOM      9  O   UNL     1      50.145   5.936  16.207  0.00  0.00    +0.000 OA
ATOM     10  N   UNL     1      48.311   7.014  15.428  0.00  0.00    +0.000 N 
ATOM     11  H   UNL     1      47.416   7.430  15.633  0.00  0.00    +0.000 HD
BRANCH   8  19
ATOM     12  C   UNL     1      47.881   9.198  18.213  0.00  0.00    +0.000 A 
ATOM     13  N   UNL     1      47.363  10.056  19.112  0.00  0.00    +0.000 NA
ATOM     14  C   UNL     1      47.058   9.587  20.323  0.00  0.00    +0.000 A 
ATOM     15  N   UNL     1      47.208   8.340  20.761  0.00  0.00    +0.000 NA
ATOM     16  C   UNL     1      47.713   7.513  19.831  0.00  0.00    +0.000 A 
ATOM     17  S   UNL     1      47.973   5.880  20.213  0.00  0.00    +0.000 S 
ATOM     18  C   UNL     1      48.565   5.556  18.652  0.00  0.00    +0.000 A 
ATOM     19  C   UNL     1      48.580   6.667  17.815  0.00  0.00    +0.000 A 
ATOM     20  C   UNL     1      48.074   7.839  18.527  0.00  0.00    +0.000 A 
BRANCH  12  22
ATOM     21  C   UNL     1      49.457  10.304  16.883  0.00  0.00    +0.000 C 
ATOM     22  O   UNL     1      48.178   9.679  16.956  0.00  0.00    +0.000 OA
ENDBRANCH  12  22
ENDBRANCH   8  19
ENDBRANCH   7  10
ENDBRANCH   1   7
BRANCH   4  23
ATOM     23  C   UNL     1      44.196   5.088  10.754  0.00  0.00    +0.000 C 
BRANCH  23  24
ATOM     24  N   UNL     1      44.612   4.748   9.390  0.00  0.00    +0.000 NA
ATOM     25  H   UNL     1      45.587   5.020   9.277  0.00  0.00    +0.000 HD
BRANCH  24  26
ATOM     26  C   UNL     1      44.476   3.306   9.078  0.00  0.00    +0.000 C 
ATOM     27  C   UNL     1      44.162   2.476  10.332  0.00  0.00    +0.000 C 
BRANCH  26  28
ATOM     28  C   UNL     1      45.626   2.691   8.271  0.00  0.00    +0.000 A 
ATOM     29  C   UNL     1      46.336   3.465   7.353  0.00  0.00    +0.000 A 
ATOM     30  C   UNL     1      47.315   2.858   6.566  0.00  0.00    +0.000 A 
ATOM     31  C   UNL     1      47.581   1.505   6.731  0.00  0.00    +0.000 A 
ATOM     32  C   UNL     1      46.871   0.815   7.694  0.00  0.00    +0.000 A 
ATOM     33  N   UNL     1      45.913   1.376   8.466  0.00  0.00    +0.000 NA
ENDBRANCH  26  28
ENDBRANCH  24  26
ENDBRANCH  23  24
ENDBRANCH   4  23
TORSDOF 8
ENDMDL
MODEL 4
REMARK VINA RESULT:    -7.285      2.124      2.990
REMARK INTER + INTRA:         -12.290
REMARK INTER:                 -11.374
REMARK INTRA:                  -0.917
REMARK UNBOUND:                -1.598
REMARK  Name = 
REMARK  10 active torsions:
REMARK  status: ('A' for Active; 'I' for Inactive)
REMARK    1  A    between atoms: C_1  and  O_2
REMARK    2  A    between atoms: O_2  and  C_3
REMARK    3  A    between atoms: C_10  and  C_11
REMARK    4  A    between atoms: N_13  and  C_14
REMARK    5  A    between atoms: C_14  and  C_15
REMARK    6  A    between atoms: C_18  and  C_19
REMARK    7  A    between atoms: C_19  and  N_20
REMARK    8  A    between atoms: N_20  and  C_21
REMARK    9  A    between atoms: C_21  and  C_22
REMARK   10  A    between atoms: C_21  and  C_23
REMARK                            x       y       z     vdW  Elec       q    Type
REMARK                         _______ _______ _______ _____ _____    ______ ____
ROOT
ATOM      1  C   UNL     1      47.995   7.005  14.214  0.00  0.00    +0.000 A 
ATOM      2  C   UNL     1      47.338   5.771  14.112  0.00  0.00    +0.000 A 
ATOM      3  C   UNL     1      46.677   5.405  12.928  0.00  0.00    +0.000 A 
ATOM      4  C   UNL     1      46.681   6.256  11.813  0.00  0.00    +0.000 A 
ATOM      5  C   UNL     1      47.395   7.462  11.903  0.00  0.00    +0.000 A 
ATOM      6  C   UNL     1      48.045   7.828  13.083  0.00  0.00    +0.000 A 
ENDROOT
BRANCH   1   7
ATOM      7  C   UNL     1      48.647   7.444  15.502  0.00  0.00    +0.000 C 
BRANCH   7  10
ATOM      8  C   UNL     1      49.932   6.341  17.294  0.00  0.00    +0.000 C 
ATOM      9  O   UNL     1      49.424   7.059  18.149  0.00  0.00    +0.000 OA
ATOM     10  N   UNL     1      49.599   6.470  15.969  0.00  0.00    +0.000 N 
ATOM     11  H   UNL     1      50.064   5.909  15.273  0.00  0.00    +0.000 HD
BRANCH   8  19
ATOM     12  C   UNL     1      49.986   2.916  16.963  0.00  0.00    +0.000 A 
ATOM     13  N   UNL     1      50.275   1.602  16.936  0.00  0.00    +0.000 NA
ATOM     14  C   UNL     1      51.448   1.207  17.434  0.00  0.00    +0.000 A 
ATOM     15  N   UNL     1      52.392   1.977  17.968  0.00  0.00    +0.000 NA
ATOM     16  C   UNL     1      52.072   3.282  17.962  0.00  0.00    +0.000 A 
ATOM     17  S   UNL     1      53.160   4.415  18.604  0.00  0.00    +0.000 S 
ATOM     18  C   UNL     1      52.109   5.702  18.246  0.00  0.00    +0.000 A 
ATOM     19  C   UNL     1      50.922   5.307  17.639  0.00  0.00    +0.000 A 
ATOM     20  C   UNL     1      50.901   3.855  17.475  0.00  0.00    +0.000 A 
BRANCH  12  22
ATOM     21  C   UNL     1      47.710   3.276  17.370  0.00  0.00    +0.000 C 
ATOM     22  O   UNL     1      48.782   3.325  16.431  0.00  0.00    +0.000 OA
ENDBRANCH  12  22
ENDBRANCH   8  19
ENDBRANCH   7  10
ENDBRANCH   1   7
BRANCH   4  23
ATOM     23  C   UNL     1      45.992   5.892  10.511  0.00  0.00    +0.000 C 
BRANCH  23  24
ATOM     24  N   UNL     1      44.531   5.923  10.623  0.00  0.00    +0.000 NA
ATOM     25  H   UNL     1      44.184   6.697  10.059  0.00  0.00    +0.000 HD
BRANCH  24  26
ATOM     26  C   UNL     1      43.882   4.670  10.173  0.00  0.00    +0.000 C 
ATOM     27  C   UNL     1      43.329   3.855  11.352  0.00  0.00    +0.000 C 
BRANCH  26  28
ATOM     28  C   UNL     1      44.715   3.795   9.227  0.00  0.00    +0.000 A 
ATOM     29  C   UNL     1      44.906   2.441   9.504  0.00  0.00    +0.000 A 
ATOM     30  C   UNL     1      45.743   1.692   8.678  0.00  0.00    +0.000 A 
ATOM     31  C   UNL     1      46.345   2.298   7.583  0.00  0.00    +0.000 A 
ATOM     32  C   UNL     1      46.068   3.630   7.345  0.00  0.00    +0.000 A 
ATOM     33  N   UNL     1      45.267   4.383   8.132  0.00  0.00    +0.000 NA
ENDBRANCH  26  28
ENDBRANCH  24  26
ENDBRANCH  23  24
ENDBRANCH   4  23
TORSDOF 8
ENDMDL
MODEL 5
REMARK VINA RESULT:    -7.053      1.467      1.874
REMARK INTER + INTRA:         -11.950
REMARK INTER:                 -10.569
REMARK INTRA:                  -1.382
REMARK UNBOUND:                -1.598
REMARK  Name = 
REMARK  10 active torsions:
REMARK  status: ('A' for Active; 'I' for Inactive)
REMARK    1  A    between atoms: C_1  and  O_2
REMARK    2  A    between atoms: O_2  and  C_3
REMARK    3  A    between atoms: C_10  and  C_11
REMARK    4  A    between atoms: N_13  and  C_14
REMARK    5  A    between atoms: C_14  and  C_15
REMARK    6  A    between atoms: C_18  and  C_19
REMARK    7  A    between atoms: C_19  and  N_20
REMARK    8  A    between atoms: N_20  and  C_21
REMARK    9  A    between atoms: C_21  and  C_22
REMARK   10  A    between atoms: C_21  and  C_23
REMARK                            x       y       z     vdW  Elec       q    Type
REMARK                         _______ _______ _______ _____ _____    ______ ____
ROOT
ATOM      1  C   UNL     1      47.013   7.863  12.781  0.00  0.00    +0.000 A 
ATOM      2  C   UNL     1      47.325   6.623  12.205  0.00  0.00    +0.000 A 
ATOM      3  C   UNL     1      46.318   5.813  11.654  0.00  0.00    +0.000 A 
ATOM      4  C   UNL     1      44.982   6.240  11.644  0.00  0.00    +0.000 A 
ATOM      5  C   UNL     1      44.688   7.510  12.164  0.00  0.00    +0.000 A 
ATOM      6  C   UNL     1      45.688   8.311  12.720  0.00  0.00    +0.000 A 
ENDROOT
BRANCH   1   7
ATOM      7  C   UNL     1      48.072   8.710  13.442  0.00  0.00    +0.000 C 
BRANCH   7  10
ATOM      8  C   UNL     1      49.371   8.500  15.526  0.00  0.00    +0.000 C 
ATOM      9  O   UNL     1      49.203   9.685  15.793  0.00  0.00    +0.000 OA
ATOM     10  N   UNL     1      48.844   7.947  14.386  0.00  0.00    +0.000 N 
ATOM     11  H   UNL     1      49.036   6.985  14.155  0.00  0.00    +0.000 HD
BRANCH   8  19
ATOM     12  C   UNL     1      49.074   5.181  16.382  0.00  0.00    +0.000 A 
ATOM     13  N   UNL     1      49.202   3.929  16.863  0.00  0.00    +0.000 NA
ATOM     14  C   UNL     1      50.203   3.682  17.712  0.00  0.00    +0.000 A 
ATOM     15  N   UNL     1      51.113   4.547  18.151  0.00  0.00    +0.000 NA
ATOM     16  C   UNL     1      50.959   5.779  17.637  0.00  0.00    +0.000 A 
ATOM     17  S   UNL     1      52.033   7.014  18.086  0.00  0.00    +0.000 S 
ATOM     18  C   UNL     1      51.233   8.139  17.095  0.00  0.00    +0.000 A 
ATOM     19  C   UNL     1      50.145   7.611  16.408  0.00  0.00    +0.000 A 
ATOM     20  C   UNL     1      49.981   6.197  16.740  0.00  0.00    +0.000 A 
BRANCH  12  22
ATOM     21  C   UNL     1      47.147   4.337  15.358  0.00  0.00    +0.000 C 
ATOM     22  O   UNL     1      48.053   5.430  15.492  0.00  0.00    +0.000 OA
ENDBRANCH  12  22
ENDBRANCH   8  19
ENDBRANCH   7  10
ENDBRANCH   1   7
BRANCH   4  23
ATOM     23  C   UNL     1      43.867   5.402  11.045  0.00  0.00    +0.000 C 
BRANCH  23  24
ATOM     24  N   UNL     1      44.121   5.052   9.644  0.00  0.00    +0.000 NA
ATOM     25  H   UNL     1      44.998   5.484   9.361  0.00  0.00    +0.000 HD
BRANCH  24  26
ATOM     26  C   UNL     1      44.207   3.591   9.413  0.00  0.00    +0.000 C 
ATOM     27  C   UNL     1      44.227   2.802  10.731  0.00  0.00    +0.000 C 
BRANCH  26  28
ATOM     28  C   UNL     1      45.326   3.134   8.468  0.00  0.00    +0.000 A 
ATOM     29  C   UNL     1      45.751   1.805   8.469  0.00  0.00    +0.000 A 
ATOM     30  C   UNL     1      46.831   1.438   7.667  0.00  0.00    +0.000 A 
ATOM     31  C   UNL     1      47.443   2.393   6.865  0.00  0.00    +0.000 A 
ATOM     32  C   UNL     1      46.934   3.677   6.881  0.00  0.00    +0.000 A 
ATOM     33  N   UNL     1      45.893   4.063   7.653  0.00  0.00    +0.000 NA
ENDBRANCH  26  28
ENDBRANCH  24  26
ENDBRANCH  23  24
ENDBRANCH   4  23
TORSDOF 8
ENDMDL
MODEL 6
REMARK VINA RESULT:    -6.782      3.140      7.970
REMARK INTER + INTRA:         -11.553
REMARK INTER:                  -9.858
REMARK INTRA:                  -1.695
REMARK UNBOUND:                -1.598
REMARK  Name = 
REMARK  10 active torsions:
REMARK  status: ('A' for Active; 'I' for Inactive)
REMARK    1  A    between atoms: C_1  and  O_2
REMARK    2  A    between atoms: O_2  and  C_3
REMARK    3  A    between atoms: C_10  and  C_11
REMARK    4  A    between atoms: N_13  and  C_14
REMARK    5  A    between atoms: C_14  and  C_15
REMARK    6  A    between atoms: C_18  and  C_19
REMARK    7  A    between atoms: C_19  and  N_20
REMARK    8  A    between atoms: N_20  and  C_21
REMARK    9  A    between atoms: C_21  and  C_22
REMARK   10  A    between atoms: C_21  and  C_23
REMARK                            x       y       z     vdW  Elec       q    Type
REMARK                         _______ _______ _______ _____ _____    ______ ____
ROOT
ATOM      1  C   UNL     1      48.564   7.890  13.437  0.00  0.00    +0.000 A 
ATOM      2  C   UNL     1      48.973   6.756  14.153  0.00  0.00    +0.000 A 
ATOM      3  C   UNL     1      49.021   6.772  15.557  0.00  0.00    +0.000 A 
ATOM      4  C   UNL     1      48.635   7.914  16.273  0.00  0.00    +0.000 A 
ATOM      5  C   UNL     1      48.167   9.023  15.552  0.00  0.00    +0.000 A 
ATOM      6  C   UNL     1      48.127   9.010  14.156  0.00  0.00    +0.000 A 
ENDROOT
BRANCH   1   7
ATOM      7  C   UNL     1      48.577   7.914  11.928  0.00  0.00    +0.000 C 
BRANCH   7  10
ATOM      8  C   UNL     1      46.425   6.867  11.336  0.00  0.00    +0.000 C 
ATOM      9  O   UNL     1      45.797   7.827  11.771  0.00  0.00    +0.000 OA
ATOM     10  N   UNL     1      47.796   6.837  11.378  0.00  0.00    +0.000 N 
ATOM     11  H   UNL     1      48.295   6.019  11.065  0.00  0.00    +0.000 HD
BRANCH   8  19
ATOM     12  C   UNL     1      44.515   4.331  12.663  0.00  0.00    +0.000 A 
ATOM     13  N   UNL     1      43.737   3.260  12.907  0.00  0.00    +0.000 NA
ATOM     14  C   UNL     1      43.395   2.484  11.876  0.00  0.00    +0.000 A 
ATOM     15  N   UNL     1      43.740   2.648  10.602  0.00  0.00    +0.000 NA
ATOM     16  C   UNL     1      44.503   3.735  10.399  0.00  0.00    +0.000 A 
ATOM     17  S   UNL     1      45.038   4.102   8.830  0.00  0.00    +0.000 S 
ATOM     18  C   UNL     1      45.857   5.487   9.379  0.00  0.00    +0.000 A 
ATOM     19  C   UNL     1      45.746   5.700  10.749  0.00  0.00    +0.000 A 
ATOM     20  C   UNL     1      44.938   4.645  11.358  0.00  0.00    +0.000 A 
BRANCH  12  22
ATOM     21  C   UNL     1      46.102   4.796  14.319  0.00  0.00    +0.000 C 
ATOM     22  O   UNL     1      44.852   5.141  13.726  0.00  0.00    +0.000 OA
ENDBRANCH  12  22
ENDBRANCH   8  19
ENDBRANCH   7  10
ENDBRANCH   1   7
BRANCH   4  23
ATOM     23  C   UNL     1      48.658   7.966  17.790  0.00  0.00    +0.000 C 
BRANCH  23  24
ATOM     24  N   UNL     1      47.470   7.353  18.390  0.00  0.00    +0.000 NA
ATOM     25  H   UNL     1      46.847   7.061  17.639  0.00  0.00    +0.000 HD
BRANCH  24  26
ATOM     26  C   UNL     1      47.781   6.180  19.240  0.00  0.00    +0.000 C 
ATOM     27  C   UNL     1      48.876   6.494  20.271  0.00  0.00    +0.000 C 
BRANCH  26  28
ATOM     28  C   UNL     1      48.075   4.876  18.489  0.00  0.00    +0.000 A 
ATOM     29  C   UNL     1      49.375   4.373  18.430  0.00  0.00    +0.000 A 
ATOM     30  C   UNL     1      49.629   3.236  17.664  0.00  0.00    +0.000 A 
ATOM     31  C   UNL     1      48.581   2.612  16.998  0.00  0.00    +0.000 A 
ATOM     32  C   UNL     1      47.313   3.141  17.143  0.00  0.00    +0.000 A 
ATOM     33  N   UNL     1      47.039   4.245  17.874  0.00  0.00    +0.000 NA
ENDBRANCH  26  28
ENDBRANCH  24  26
ENDBRANCH  23  24
ENDBRANCH   4  23
TORSDOF 8
ENDMDL
MODEL 7
REMARK VINA RESULT:    -6.776      4.661      9.541
REMARK INTER + INTRA:         -11.542
REMARK INTER:                 -10.434
REMARK INTRA:                  -1.109
REMARK UNBOUND:                -1.598
REMARK  Name = 
REMARK  10 active torsions:
REMARK  status: ('A' for Active; 'I' for Inactive)
REMARK    1  A    between atoms: C_1  and  O_2
REMARK    2  A    between atoms: O_2  and  C_3
REMARK    3  A    between atoms: C_10  and  C_11
REMARK    4  A    between atoms: N_13  and  C_14
REMARK    5  A    between atoms: C_14  and  C_15
REMARK    6  A    between atoms: C_18  and  C_19
REMARK    7  A    between atoms: C_19  and  N_20
REMARK    8  A    between atoms: N_20  and  C_21
REMARK    9  A    between atoms: C_21  and  C_22
REMARK   10  A    between atoms: C_21  and  C_23
REMARK                            x       y       z     vdW  Elec       q    Type
REMARK                         _______ _______ _______ _____ _____    ______ ____
ROOT
ATOM      1  C   UNL     1      48.640   3.269  17.213  0.00  0.00    +0.000 A 
ATOM      2  C   UNL     1      49.411   2.139  16.907  0.00  0.00    +0.000 A 
ATOM      3  C   UNL     1      50.785   2.107  17.196  0.00  0.00    +0.000 A 
ATOM      4  C   UNL     1      51.410   3.196  17.820  0.00  0.00    +0.000 A 
ATOM      5  C   UNL     1      50.619   4.298  18.180  0.00  0.00    +0.000 A 
ATOM      6  C   UNL     1      49.254   4.332  17.885  0.00  0.00    +0.000 A 
ENDROOT
BRANCH   1   7
ATOM      7  C   UNL     1      47.179   3.348  16.843  0.00  0.00    +0.000 C 
BRANCH   7  10
ATOM      8  C   UNL     1      46.933   4.159  14.528  0.00  0.00    +0.000 C 
ATOM      9  O   UNL     1      47.142   3.038  14.075  0.00  0.00    +0.000 OA
ATOM     10  N   UNL     1      46.934   4.390  15.881  0.00  0.00    +0.000 N 
ATOM     11  H   UNL     1      46.813   5.326  16.235  0.00  0.00    +0.000 HD
BRANCH   8  19
ATOM     12  C   UNL     1      44.211   5.142  12.668  0.00  0.00    +0.000 A 
ATOM     13  N   UNL     1      43.307   5.759  11.883  0.00  0.00    +0.000 NA
ATOM     14  C   UNL     1      43.666   6.899  11.288  0.00  0.00    +0.000 A 
ATOM     15  N   UNL     1      44.841   7.514  11.380  0.00  0.00    +0.000 NA
ATOM     16  C   UNL     1      45.709   6.875  12.181  0.00  0.00    +0.000 A 
ATOM     17  S   UNL     1      47.262   7.518  12.418  0.00  0.00    +0.000 S 
ATOM     18  C   UNL     1      47.686   6.244  13.460  0.00  0.00    +0.000 A 
ATOM     19  C   UNL     1      46.672   5.312  13.650  0.00  0.00    +0.000 A 
ATOM     20  C   UNL     1      45.490   5.691  12.878  0.00  0.00    +0.000 A 
BRANCH  12  22
ATOM     21  C   UNL     1      43.686   2.878  12.399  0.00  0.00    +0.000 C 
ATOM     22  O   UNL     1      43.832   3.976  13.297  0.00  0.00    +0.000 OA
ENDBRANCH  12  22
ENDBRANCH   8  19
ENDBRANCH   7  10
ENDBRANCH   1   7
BRANCH   4  23
ATOM     23  C   UNL     1      52.889   3.195  18.163  0.00  0.00    +0.000 C 
BRANCH  23  24
ATOM     24  N   UNL     1      53.298   1.983  18.877  0.00  0.00    +0.000 NA
ATOM     25  H   UNL     1      52.568   1.282  18.761  0.00  0.00    +0.000 HD
BRANCH  24  26
ATOM     26  C   UNL     1      54.583   1.424  18.395  0.00  0.00    +0.000 C 
ATOM     27  C   UNL     1      55.028   2.069  17.074  0.00  0.00    +0.000 C 
BRANCH  26  28
ATOM     28  C   UNL     1      54.656  -0.107  18.326  0.00  0.00    +0.000 A 
ATOM     29  C   UNL     1      55.084  -0.740  17.159  0.00  0.00    +0.000 A 
ATOM     30  C   UNL     1      55.053  -2.133  17.092  0.00  0.00    +0.000 A 
ATOM     31  C   UNL     1      54.623  -2.861  18.195  0.00  0.00    +0.000 A 
ATOM     32  C   UNL     1      54.262  -2.164  19.332  0.00  0.00    +0.000 A 
ATOM     33  N   UNL     1      54.275  -0.815  19.423  0.00  0.00    +0.000 NA
ENDBRANCH  26  28
ENDBRANCH  24  26
ENDBRANCH  23  24
ENDBRANCH   4  23
TORSDOF 8
ENDMDL
MODEL 8
REMARK VINA RESULT:    -6.353      2.610      3.971
REMARK INTER + INTRA:         -10.922
REMARK INTER:                  -9.894
REMARK INTRA:                  -1.028
REMARK UNBOUND:                -1.598
REMARK  Name = 
REMARK  10 active torsions:
REMARK  status: ('A' for Active; 'I' for Inactive)
REMARK    1  A    between atoms: C_1  and  O_2
REMARK    2  A    between atoms: O_2  and  C_3
REMARK    3  A    between atoms: C_10  and  C_11
REMARK    4  A    between atoms: N_13  and  C_14
REMARK    5  A    between atoms: C_14  and  C_15
REMARK    6  A    between atoms: C_18  and  C_19
REMARK    7  A    between atoms: C_19  and  N_20
REMARK    8  A    between atoms: N_20  and  C_21
REMARK    9  A    between atoms: C_21  and  C_22
REMARK   10  A    between atoms: C_21  and  C_23
REMARK                            x       y       z     vdW  Elec       q    Type
REMARK                         _______ _______ _______ _____ _____    ______ ____
ROOT
ATOM      1  C   UNL     1      47.128   4.759  14.517  0.00  0.00    +0.000 A 
ATOM      2  C   UNL     1      46.366   3.830  13.795  0.00  0.00    +0.000 A 
ATOM      3  C   UNL     1      45.676   4.216  12.633  0.00  0.00    +0.000 A 
ATOM      4  C   UNL     1      45.756   5.533  12.158  0.00  0.00    +0.000 A 
ATOM      5  C   UNL     1      46.571   6.440  12.851  0.00  0.00    +0.000 A 
ATOM      6  C   UNL     1      47.250   6.059  14.010  0.00  0.00    +0.000 A 
ENDROOT
BRANCH   1   7
ATOM      7  C   UNL     1      47.815   4.379  15.806  0.00  0.00    +0.000 C 
BRANCH   7  10
ATOM      8  C   UNL     1      48.102   5.483  17.991  0.00  0.00    +0.000 C 
ATOM      9  O   UNL     1      47.885   4.436  18.590  0.00  0.00    +0.000 OA
ATOM     10  N   UNL     1      48.086   5.535  16.620  0.00  0.00    +0.000 N 
ATOM     11  H   UNL     1      48.214   6.414  16.144  0.00  0.00    +0.000 HD
BRANCH   8  19
ATOM     12  C   UNL     1      50.625   7.811  17.757  0.00  0.00    +0.000 A 
ATOM     13  N   UNL     1      51.459   8.863  17.864  0.00  0.00    +0.000 NA
ATOM     14  C   UNL     1      51.182   9.793  18.781  0.00  0.00    +0.000 A 
ATOM     15  N   UNL     1      50.153   9.805  19.625  0.00  0.00    +0.000 NA
ATOM     16  C   UNL     1      49.339   8.747  19.477  0.00  0.00    +0.000 A 
ATOM     17  S   UNL     1      47.972   8.595  20.470  0.00  0.00    +0.000 S 
ATOM     18  C   UNL     1      47.523   7.139  19.717  0.00  0.00    +0.000 A 
ATOM     19  C   UNL     1      48.390   6.738  18.706  0.00  0.00    +0.000 A 
ATOM     20  C   UNL     1      49.480   7.701  18.569  0.00  0.00    +0.000 A 
BRANCH  12  22
ATOM     21  C   UNL     1      52.015   7.206  15.975  0.00  0.00    +0.000 C 
ATOM     22  O   UNL     1      50.902   6.862  16.798  0.00  0.00    +0.000 OA
ENDBRANCH  12  22
ENDBRANCH   8  19
ENDBRANCH   7  10
ENDBRANCH   1   7
BRANCH   4  23
ATOM     23  C   UNL     1      45.038   5.985  10.900  0.00  0.00    +0.000 C 
BRANCH  23  24
ATOM     24  N   UNL     1      45.690   5.503   9.678  0.00  0.00    +0.000 NA
ATOM     25  H   UNL     1      46.591   5.104   9.934  0.00  0.00    +0.000 HD
BRANCH  24  26
ATOM     26  C   UNL     1      44.898   4.480   8.956  0.00  0.00    +0.000 C 
ATOM     27  C   UNL     1      43.809   3.864   9.848  0.00  0.00    +0.000 C 
BRANCH  26  28
ATOM     28  C   UNL     1      45.712   3.398   8.236  0.00  0.00    +0.000 A 
ATOM     29  C   UNL     1      45.610   2.062   8.625  0.00  0.00    +0.000 A 
ATOM     30  C   UNL     1      46.429   1.113   8.015  0.00  0.00    +0.000 A 
ATOM     31  C   UNL     1      47.309   1.511   7.016  0.00  0.00    +0.000 A 
ATOM     32  C   UNL     1      47.318   2.843   6.650  0.00  0.00    +0.000 A 
ATOM     33  N   UNL     1      46.540   3.785   7.229  0.00  0.00    +0.000 NA
ENDBRANCH  26  28
ENDBRANCH  24  26
ENDBRANCH  23  24
ENDBRANCH   4  23
TORSDOF 8
ENDMDL
MODEL 9
REMARK VINA RESULT:    -6.287      2.392      2.998
REMARK INTER + INTRA:         -10.826
REMARK INTER:                  -9.955
REMARK INTRA:                  -0.872
REMARK UNBOUND:                -1.598
REMARK  Name = 
REMARK  10 active torsions:
REMARK  status: ('A' for Active; 'I' for Inactive)
REMARK    1  A    between atoms: C_1  and  O_2
REMARK    2  A    between atoms: O_2  and  C_3
REMARK    3  A    between atoms: C_10  and  C_11
REMARK    4  A    between atoms: N_13  and  C_14
REMARK    5  A    between atoms: C_14  and  C_15
REMARK    6  A    between atoms: C_18  and  C_19
REMARK    7  A    between atoms: C_19  and  N_20
REMARK    8  A    between atoms: N_20  and  C_21
REMARK    9  A    between atoms: C_21  and  C_22
REMARK   10  A    between atoms: C_21  and  C_23
REMARK                            x       y       z     vdW  Elec       q    Type
REMARK                         _______ _______ _______ _____ _____    ______ ____
ROOT
ATOM      1  C   UNL     1      46.946   7.548  12.917  0.00  0.00    +0.000 A 
ATOM      2  C   UNL     1      47.190   6.273  12.388  0.00  0.00    +0.000 A 
ATOM      3  C   UNL     1      46.159   5.540  11.777  0.00  0.00    +0.000 A 
ATOM      4  C   UNL     1      44.869   6.079  11.660  0.00  0.00    +0.000 A 
ATOM      5  C   UNL     1      44.650   7.381  12.135  0.00  0.00    +0.000 A 
ATOM      6  C   UNL     1      45.673   8.106  12.750  0.00  0.00    +0.000 A 
ENDROOT
BRANCH   1   7
ATOM      7  C   UNL     1      48.024   8.317  13.640  0.00  0.00    +0.000 C 
BRANCH   7  10
ATOM      8  C   UNL     1      48.868   8.239  15.955  0.00  0.00    +0.000 C 
ATOM      9  O   UNL     1      48.816   9.461  16.053  0.00  0.00    +0.000 OA
ATOM     10  N   UNL     1      48.494   7.603  14.798  0.00  0.00    +0.000 N 
ATOM     11  H   UNL     1      48.592   6.603  14.716  0.00  0.00    +0.000 HD
BRANCH   8  19
ATOM     12  C   UNL     1      48.151   8.154  19.320  0.00  0.00    +0.000 A 
ATOM     13  N   UNL     1      48.043   7.890  20.635  0.00  0.00    +0.000 NA
ATOM     14  C   UNL     1      48.779   6.897  21.139  0.00  0.00    +0.000 A 
ATOM     15  N   UNL     1      49.630   6.116  20.478  0.00  0.00    +0.000 NA
ATOM     16  C   UNL     1      49.698   6.402  19.168  0.00  0.00    +0.000 A 
ATOM     17  S   UNL     1      50.734   5.505  18.166  0.00  0.00    +0.000 S 
ATOM     18  C   UNL     1      50.272   6.403  16.799  0.00  0.00    +0.000 A 
ATOM     19  C   UNL     1      49.333   7.393  17.067  0.00  0.00    +0.000 A 
ATOM     20  C   UNL     1      48.995   7.393  18.489  0.00  0.00    +0.000 A 
BRANCH  12  22
ATOM     21  C   UNL     1      46.759   9.972  19.799  0.00  0.00    +0.000 C 
ATOM     22  O   UNL     1      47.377   9.167  18.798  0.00  0.00    +0.000 OA
ENDBRANCH  12  22
ENDBRANCH   8  19
ENDBRANCH   7  10
ENDBRANCH   1   7
BRANCH   4  23
ATOM     23  C   UNL     1      43.733   5.326  10.994  0.00  0.00    +0.000 C 
BRANCH  23  24
ATOM     24  N   UNL     1      44.046   4.945   9.613  0.00  0.00    +0.000 NA
ATOM     25  H   UNL     1      44.934   5.373   9.357  0.00  0.00    +0.000 HD
BRANCH  24  26
ATOM     26  C   UNL     1      44.145   3.479   9.419  0.00  0.00    +0.000 C 
ATOM     27  C   UNL     1      44.152   2.723  10.756  0.00  0.00    +0.000 C 
BRANCH  26  28
ATOM     28  C   UNL     1      45.280   3.008   8.501  0.00  0.00    +0.000 A 
ATOM     29  C   UNL     1      45.718   1.683   8.545  0.00  0.00    +0.000 A 
ATOM     30  C   UNL     1      46.812   1.305   7.767  0.00  0.00    +0.000 A 
ATOM     31  C   UNL     1      47.425   2.243   6.946  0.00  0.00    +0.000 A 
ATOM     32  C   UNL     1      46.903   3.521   6.919  0.00  0.00    +0.000 A 
ATOM     33  N   UNL     1      45.849   3.919   7.667  0.00  0.00    +0.000 NA
ENDBRANCH  26  28
ENDBRANCH  24  26
ENDBRANCH  23  24
ENDBRANCH   4  23
TORSDOF 8
ENDMDL
