MODEL 1
REMARK VINA RESULT:    -8.085      0.000      0.000
REMARK INTER + INTRA:         -11.860
REMARK INTER:                 -10.921
REMARK INTRA:                  -0.939
REMARK UNBOUND:                -0.939
REMARK  Name = 
REMARK  7 active torsions:
REMARK  status: ('A' for Active; 'I' for Inactive)
REMARK    1  A    between atoms: C_1  and  C_2
REMARK    2  A    between atoms: C_5  and  C_6
REMARK    3  A    between atoms: N_8  and  C_9
REMARK    4  A    between atoms: C_9  and  C_10
REMARK    5  A    between atoms: C_13  and  C_14
REMARK    6  A    between atoms: C_14  and  N_15
REMARK    7  A    between atoms: C_16  and  C_18
REMARK                            x       y       z     vdW  Elec       q    Type
REMARK                         _______ _______ _______ _____ _____    ______ ____
ROOT
ATOM      1  C   UNL     1      44.839   6.120  11.085  0.00  0.00    +0.000 A 
ATOM      2  C   UNL     1      44.505   7.432  11.451  0.00  0.00    +0.000 A 
ATOM      3  C   UNL     1      45.318   8.165  12.331  0.00  0.00    +0.000 A 
ATOM      4  C   UNL     1      46.498   7.614  12.848  0.00  0.00    +0.000 A 
ATOM      5  C   UNL     1      46.830   6.302  12.485  0.00  0.00    +0.000 A 
ATOM      6  C   UNL     1      46.017   5.568  11.608  0.00  0.00    +0.000 A 
ENDROOT
BRANCH   1   7
ATOM      7  C   UNL     1      43.953   5.320  10.156  0.00  0.00    +0.000 C 
BRANCH   7  10
ATOM      8  C   UNL     1      44.811   3.124   9.409  0.00  0.00    +0.000 C 
ATOM      9  O   UNL     1      44.263   2.521  10.332  0.00  0.00    +0.000 OA
ATOM     10  N   UNL     1      44.709   4.490   9.254  0.00  0.00    +0.000 N 
ATOM     11  H   UNL     1      45.149   4.897   8.437  0.00  0.00    +0.000 HD
BRANCH   8  16
ATOM     12  C   UNL     1      47.242   2.968   5.235  0.00  0.00    +0.000 C 
ATOM     13  C   UNL     1      46.733   2.373   6.489  0.00  0.00    +0.000 A 
ATOM     14  C   UNL     1      46.842   1.127   7.062  0.00  0.00    +0.000 A 
ATOM     15  C   UNL     1      46.123   1.189   8.284  0.00  0.00    +0.000 A 
ATOM     16  C   UNL     1      45.615   2.472   8.387  0.00  0.00    +0.000 A 
ATOM     17  O   UNL     1      45.991   3.194   7.283  0.00  0.00    +0.000 OA
ENDBRANCH   8  16
ENDBRANCH   7  10
ENDBRANCH   1   7
BRANCH   4  18
ATOM     18  C   UNL     1      47.389   8.404  13.781  0.00  0.00    +0.000 C 
BRANCH  18  19
ATOM     19  N   UNL     1      47.762   7.647  14.949  0.00  0.00    +0.000 N 
ATOM     20  C   UNL     1      48.966   6.995  15.039  0.00  0.00    +0.000 C 
ATOM     21  O   UNL     1      49.803   7.042  14.142  0.00  0.00    +0.000 OA
ATOM     22  H   UNL     1      47.008   7.371  15.573  0.00  0.00    +0.000 HD
BRANCH  20  23
ATOM     23  C   UNL     1      49.233   6.285  16.299  0.00  0.00    +0.000 A 
ATOM     24  C   UNL     1      50.238   6.728  17.150  0.00  0.00    +0.000 A 
ATOM     25  S   UNL     1      50.378   5.808  18.582  0.00  0.00    +0.000 S 
ATOM     26  C   UNL     1      49.137   4.752  18.091  0.00  0.00    +0.000 A 
ATOM     27  N   UNL     1      48.770   3.694  18.861  0.00  0.00    +0.000 NA
ATOM     28  C   UNL     1      47.833   2.963  18.354  0.00  0.00    +0.000 A 
ATOM     29  N   UNL     1      47.227   3.201  17.148  0.00  0.00    +0.000 N 
ATOM     30  C   UNL     1      47.538   4.277  16.354  0.00  0.00    +0.000 A 
ATOM     31  O   UNL     1      46.931   4.495  15.311  0.00  0.00    +0.000 OA
ATOM     32  C   UNL     1      48.603   5.116  16.867  0.00  0.00    +0.000 A 
ATOM     33  H   UNL     1      46.485   2.602  16.815  0.00  0.00    +0.000 HD
ENDBRANCH  20  23
ENDBRANCH  18  19
ENDBRANCH   4  18
TORSDOF 6
ENDMDL
MODEL 2
REMARK VINA RESULT:    -7.732      2.569      3.210
REMARK INTER + INTRA:         -11.384
REMARK INTER:                 -10.563
REMARK INTRA:                  -0.821
REMARK UNBOUND:                -0.939
REMARK  Name = 
REMARK  7 active torsions:
REMARK  status: ('A' for Active; 'I' for Inactive)
REMARK    1  A    between atoms: C_1  and  C_2
REMARK    2  A    between atoms: C_5  and  C_6
REMARK    3  A    between atoms: N_8  and  C_9
REMARK    4  A    between atoms: C_9  and  C_10
REMARK    5  A    between atoms: C_13  and  C_14
REMARK    6  A    between atoms: C_14  and  N_15
REMARK    7  A    between atoms: C_16  and  C_18
REMARK                            x       y       z     vdW  Elec       q    Type
REMARK                         _______ _______ _______ _____ _____    ______ ____
ROOT
ATOM      1  C   UNL     1      46.114   4.930  13.524  0.00  0.00    +0.000 A 
ATOM      2  C   UNL     1      46.656   6.145  13.080  0.00  0.00    +0.000 A 
ATOM      3  C   UNL     1      47.658   6.800  13.815  0.00  0.00    +0.000 A 
ATOM      4  C   UNL     1      48.161   6.244  14.999  0.00  0.00    +0.000 A 
ATOM      5  C   UNL     1      47.618   5.032  15.444  0.00  0.00    +0.000 A 
ATOM      6  C   UNL     1      46.615   4.379  14.712  0.00  0.00    +0.000 A 
ENDROOT
BRANCH   1   7
ATOM      7  C   UNL     1      45.019   4.235  12.747  0.00  0.00    +0.000 C 
BRANCH   7  10
ATOM      8  C   UNL     1      44.574   3.597  10.399  0.00  0.00    +0.000 C 
ATOM      9  O   UNL     1      43.356   3.735  10.522  0.00  0.00    +0.000 OA
ATOM     10  N   UNL     1      45.452   3.821  11.438  0.00  0.00    +0.000 N 
ATOM     11  H   UNL     1      46.441   3.734  11.233  0.00  0.00    +0.000 HD
BRANCH   8  16
ATOM     12  C   UNL     1      46.892   0.483   7.521  0.00  0.00    +0.000 C 
ATOM     13  C   UNL     1      46.272   1.790   7.823  0.00  0.00    +0.000 A 
ATOM     14  C   UNL     1      46.103   2.950   7.103  0.00  0.00    +0.000 A 
ATOM     15  C   UNL     1      45.423   3.854   7.961  0.00  0.00    +0.000 A 
ATOM     16  C   UNL     1      45.216   3.191   9.158  0.00  0.00    +0.000 A 
ATOM     17  O   UNL     1      45.741   1.927   9.070  0.00  0.00    +0.000 OA
ENDBRANCH   8  16
ENDBRANCH   7  10
ENDBRANCH   1   7
BRANCH   4  18
ATOM     18  C   UNL     1      49.253   6.934  15.786  0.00  0.00    +0.000 C 
BRANCH  18  19
ATOM     19  N   UNL     1      50.239   6.006  16.279  0.00  0.00    +0.000 N 
ATOM     20  C   UNL     1      50.584   5.947  17.606  0.00  0.00    +0.000 C 
ATOM     21  O   UNL     1      50.053   6.662  18.451  0.00  0.00    +0.000 OA
ATOM     22  H   UNL     1      50.872   5.606  15.590  0.00  0.00    +0.000 HD
BRANCH  20  23
ATOM     23  C   UNL     1      51.582   4.933  17.977  0.00  0.00    +0.000 A 
ATOM     24  C   UNL     1      52.775   5.317  18.578  0.00  0.00    +0.000 A 
ATOM     25  S   UNL     1      53.795   4.006  18.975  0.00  0.00    +0.000 S 
ATOM     26  C   UNL     1      52.702   2.883  18.310  0.00  0.00    +0.000 A 
ATOM     27  N   UNL     1      52.985   1.553  18.293  0.00  0.00    +0.000 NA
ATOM     28  C   UNL     1      52.079   0.821  17.735  0.00  0.00    +0.000 A 
ATOM     29  N   UNL     1      50.912   1.300  17.200  0.00  0.00    +0.000 N 
ATOM     30  C   UNL     1      50.567   2.629  17.227  0.00  0.00    +0.000 A 
ATOM     31  O   UNL     1      49.486   3.014  16.795  0.00  0.00    +0.000 OA
ATOM     32  C   UNL     1      51.563   3.498  17.821  0.00  0.00    +0.000 A 
ATOM     33  H   UNL     1      50.233   0.672  16.794  0.00  0.00    +0.000 HD
ENDBRANCH  20  23
ENDBRANCH  18  19
ENDBRANCH   4  18
TORSDOF 6
ENDMDL
MODEL 3
REMARK VINA RESULT:    -7.578      4.976      9.788
REMARK INTER + INTRA:         -11.175
REMARK INTER:                 -10.356
REMARK INTRA:                  -0.820
REMARK UNBOUND:                -0.939
REMARK  Name = 
REMARK  7 active torsions:
REMARK  status: ('A' for Active; 'I' for Inactive)
REMARK    1  A    between atoms: C_1  and  C_2
REMARK    2  A    between atoms: C_5  and  C_6
REMARK    3  A    between atoms: N_8  and  C_9
REMARK    4  A    between atoms: C_9  and  C_10
REMARK    5  A    between atoms: C_13  and  C_14
REMARK    6  A    between atoms: C_14  and  N_15
REMARK    7  A    between atoms: C_16  and  C_18
REMARK                            x       y       z     vdW  Elec       q    Type
REMARK                         _______ _______ _______ _____ _____    ______ ____
ROOT
ATOM      1  C   UNL     1      51.474   2.905  17.748  0.00  0.00    +0.000 A 
ATOM      2  C   UNL     1      50.675   1.923  17.145  0.00  0.00    +0.000 A 
ATOM      3  C   UNL     1      49.310   2.150  16.906  0.00  0.00    +0.000 A 
ATOM      4  C   UNL     1      48.715   3.373  17.240  0.00  0.00    +0.000 A 
ATOM      5  C   UNL     1      49.512   4.354  17.845  0.00  0.00    +0.000 A 
ATOM      6  C   UNL     1      50.876   4.127  18.087  0.00  0.00    +0.000 A 
ENDROOT
BRANCH   1   7
ATOM      7  C   UNL     1      52.939   2.654  18.029  0.00  0.00    +0.000 C 
BRANCH   7  10
ATOM      8  C   UNL     1      54.131   0.522  17.640  0.00  0.00    +0.000 C 
ATOM      9  O   UNL     1      54.784   0.981  16.702  0.00  0.00    +0.000 OA
ATOM     10  N   UNL     1      53.210   1.274  18.338  0.00  0.00    +0.000 N 
ATOM     11  H   UNL     1      52.756   0.831  19.129  0.00  0.00    +0.000 HD
BRANCH   8  16
ATOM     12  C   UNL     1      53.075  -3.181  20.560  0.00  0.00    +0.000 C 
ATOM     13  C   UNL     1      53.794  -2.554  19.431  0.00  0.00    +0.000 A 
ATOM     14  C   UNL     1      54.731  -3.009  18.532  0.00  0.00    +0.000 A 
ATOM     15  C   UNL     1      55.032  -1.911  17.683  0.00  0.00    +0.000 A 
ATOM     16  C   UNL     1      54.259  -0.847  18.115  0.00  0.00    +0.000 A 
ATOM     17  O   UNL     1      53.503  -1.246  19.189  0.00  0.00    +0.000 OA
ENDBRANCH   8  16
ENDBRANCH   7  10
ENDBRANCH   1   7
BRANCH   4  18
ATOM     18  C   UNL     1      47.249   3.633  16.968  0.00  0.00    +0.000 C 
BRANCH  18  19
ATOM     19  N   UNL     1      47.052   4.611  15.928  0.00  0.00    +0.000 N 
ATOM     20  C   UNL     1      47.085   4.276  14.598  0.00  0.00    +0.000 C 
ATOM     21  O   UNL     1      47.257   3.121  14.220  0.00  0.00    +0.000 OA
ATOM     22  H   UNL     1      47.175   5.586  16.191  0.00  0.00    +0.000 HD
BRANCH  20  23
ATOM     23  C   UNL     1      46.838   5.366  13.643  0.00  0.00    +0.000 A 
ATOM     24  C   UNL     1      47.859   6.248  13.311  0.00  0.00    +0.000 A 
ATOM     25  S   UNL     1      47.402   7.423  12.160  0.00  0.00    +0.000 S 
ATOM     26  C   UNL     1      45.809   6.828  12.103  0.00  0.00    +0.000 A 
ATOM     27  N   UNL     1      44.867   7.417  11.318  0.00  0.00    +0.000 NA
ATOM     28  C   UNL     1      43.695   6.877  11.393  0.00  0.00    +0.000 A 
ATOM     29  N   UNL     1      43.385   5.797  12.177  0.00  0.00    +0.000 N 
ATOM     30  C   UNL     1      44.310   5.147  12.955  0.00  0.00    +0.000 A 
ATOM     31  O   UNL     1      44.012   4.144  13.595  0.00  0.00    +0.000 OA
ATOM     32  C   UNL     1      45.637   5.730  12.927  0.00  0.00    +0.000 A 
ATOM     33  H   UNL     1      42.453   5.408  12.176  0.00  0.00    +0.000 HD
ENDBRANCH  20  23
ENDBRANCH  18  19
ENDBRANCH   4  18
TORSDOF 6
ENDMDL
MODEL 4
REMARK VINA RESULT:    -7.204      1.860      2.217
REMARK INTER + INTRA:         -10.670
REMARK INTER:                  -9.724
REMARK INTRA:                  -0.945
REMARK UNBOUND:                -0.939
REMARK  Name = 
REMARK  7 active torsions:
REMARK  status: ('A' for Active; 'I' for Inactive)
REMARK    1  A    between atoms: C_1  and  C_2
REMARK    2  A    between atoms: C_5  and  C_6
REMARK    3  A    between atoms: N_8  and  C_9
REMARK    4  A    between atoms: C_9  and  C_10
REMARK    5  A    between atoms: C_13  and  C_14
REMARK    6  A    between atoms: C_14  and  N_15
REMARK    7  A    between atoms: C_16  and  C_18
REMARK                            x       y       z     vdW  Elec       q    Type
REMARK                         _______ _______ _______ _____ _____    ______ ____
ROOT
ATOM      1  C   UNL     1      45.244   6.666  11.638  0.00  0.00    +0.000 A 
ATOM      2  C   UNL     1      44.985   7.935  12.176  0.00  0.00    +0.000 A 
ATOM      3  C   UNL     1      45.854   8.510  13.117  0.00  0.00    +0.000 A 
ATOM      4  C   UNL     1      47.018   7.844  13.524  0.00  0.00    +0.000 A 
ATOM      5  C   UNL     1      47.275   6.575  12.988  0.00  0.00    +0.000 A 
ATOM      6  C   UNL     1      46.405   5.998  12.050  0.00  0.00    +0.000 A 
ENDROOT
BRANCH   1   7
ATOM      7  C   UNL     1      44.296   6.034  10.642  0.00  0.00    +0.000 C 
BRANCH   7  10
ATOM      8  C   UNL     1      44.788   3.815   9.666  0.00  0.00    +0.000 C 
ATOM      9  O   UNL     1      44.025   3.233  10.437  0.00  0.00    +0.000 OA
ATOM     10  N   UNL     1      44.976   5.180   9.702  0.00  0.00    +0.000 N 
ATOM     11  H   UNL     1      45.582   5.582   8.996  0.00  0.00    +0.000 HD
BRANCH   8  16
ATOM     12  C   UNL     1      46.813  -0.049   7.586  0.00  0.00    +0.000 C 
ATOM     13  C   UNL     1      46.496   1.392   7.667  0.00  0.00    +0.000 A 
ATOM     14  C   UNL     1      46.792   2.475   6.871  0.00  0.00    +0.000 A 
ATOM     15  C   UNL     1      46.193   3.601   7.495  0.00  0.00    +0.000 A 
ATOM     16  C   UNL     1      45.564   3.139   8.638  0.00  0.00    +0.000 A 
ATOM     17  O   UNL     1      45.755   1.784   8.740  0.00  0.00    +0.000 OA
ENDBRANCH   8  16
ENDBRANCH   7  10
ENDBRANCH   1   7
BRANCH   4  18
ATOM     18  C   UNL     1      47.969   8.465  14.523  0.00  0.00    +0.000 C 
BRANCH  18  19
ATOM     19  N   UNL     1      48.275   7.573  15.612  0.00  0.00    +0.000 N 
ATOM     20  C   UNL     1      49.521   7.523  16.184  0.00  0.00    +0.000 C 
ATOM     21  O   UNL     1      50.438   8.253  15.817  0.00  0.00    +0.000 OA
ATOM     22  H   UNL     1      47.640   6.791  15.753  0.00  0.00    +0.000 HD
BRANCH  20  23
ATOM     23  C   UNL     1      49.688   6.590  17.308  0.00  0.00    +0.000 A 
ATOM     24  C   UNL     1      50.610   5.554  17.223  0.00  0.00    +0.000 A 
ATOM     25  S   UNL     1      50.696   4.596  18.634  0.00  0.00    +0.000 S 
ATOM     26  C   UNL     1      49.467   5.500  19.389  0.00  0.00    +0.000 A 
ATOM     27  N   UNL     1      49.024   5.180  20.634  0.00  0.00    +0.000 NA
ATOM     28  C   UNL     1      48.071   5.934  21.073  0.00  0.00    +0.000 A 
ATOM     29  N   UNL     1      47.528   6.984  20.379  0.00  0.00    +0.000 N 
ATOM     30  C   UNL     1      47.967   7.366  19.136  0.00  0.00    +0.000 A 
ATOM     31  O   UNL     1      47.501   8.350  18.571  0.00  0.00    +0.000 OA
ATOM     32  C   UNL     1      49.020   6.536  18.587  0.00  0.00    +0.000 A 
ATOM     33  H   UNL     1      46.796   7.549  20.786  0.00  0.00    +0.000 HD
ENDBRANCH  20  23
ENDBRANCH  18  19
ENDBRANCH   4  18
TORSDOF 6
ENDMDL
MODEL 5
REMARK VINA RESULT:    -6.999      4.170      8.637
REMARK INTER + INTRA:         -10.393
REMARK INTER:                  -9.317
REMARK INTRA:                  -1.076
REMARK UNBOUND:                -0.939
REMARK  Name = 
REMARK  7 active torsions:
REMARK  status: ('A' for Active; 'I' for Inactive)
REMARK    1  A    between atoms: C_1  and  C_2
REMARK    2  A    between atoms: C_5  and  C_6
REMARK    3  A    between atoms: N_8  and  C_9
REMARK    4  A    between atoms: C_9  and  C_10
REMARK    5  A    between atoms: C_13  and  C_14
REMARK    6  A    between atoms: C_14  and  N_15
REMARK    7  A    between atoms: C_16  and  C_18
REMARK                            x       y       z     vdW  Elec       q    Type
REMARK                         _______ _______ _______ _____ _____    ______ ____
ROOT
ATOM      1  C   UNL     1      49.699   4.583  17.637  0.00  0.00    +0.000 A 
ATOM      2  C   UNL     1      48.430   4.402  17.066  0.00  0.00    +0.000 A 
ATOM      3  C   UNL     1      47.960   5.267  16.064  0.00  0.00    +0.000 A 
ATOM      4  C   UNL     1      48.755   6.317  15.588  0.00  0.00    +0.000 A 
ATOM      5  C   UNL     1      50.022   6.499  16.160  0.00  0.00    +0.000 A 
ATOM      6  C   UNL     1      50.491   5.638  17.164  0.00  0.00    +0.000 A 
ENDROOT
BRANCH   1   7
ATOM      7  C   UNL     1      50.198   3.668  18.733  0.00  0.00    +0.000 C 
BRANCH   7  10
ATOM      8  C   UNL     1      51.646   1.993  17.630  0.00  0.00    +0.000 C 
ATOM      9  O   UNL     1      50.693   1.409  17.116  0.00  0.00    +0.000 OA
ATOM     10  N   UNL     1      51.488   3.103  18.432  0.00  0.00    +0.000 N 
ATOM     11  H   UNL     1      52.331   3.553  18.771  0.00  0.00    +0.000 HD
BRANCH   8  16
ATOM     12  C   UNL     1      55.144  -1.131  16.464  0.00  0.00    +0.000 C 
ATOM     13  C   UNL     1      54.647   0.184  16.920  0.00  0.00    +0.000 A 
ATOM     14  C   UNL     1      55.266   1.358  17.284  0.00  0.00    +0.000 A 
ATOM     15  C   UNL     1      54.227   2.264  17.624  0.00  0.00    +0.000 A 
ATOM     16  C   UNL     1      53.032   1.589  17.448  0.00  0.00    +0.000 A 
ATOM     17  O   UNL     1      53.295   0.313  17.018  0.00  0.00    +0.000 OA
ENDBRANCH   8  16
ENDBRANCH   7  10
ENDBRANCH   1   7
BRANCH   4  18
ATOM     18  C   UNL     1      48.264   7.241  14.496  0.00  0.00    +0.000 C 
BRANCH  18  19
ATOM     19  N   UNL     1      47.025   6.789  13.916  0.00  0.00    +0.000 N 
ATOM     20  C   UNL     1      46.822   6.767  12.559  0.00  0.00    +0.000 C 
ATOM     21  O   UNL     1      47.693   7.107  11.763  0.00  0.00    +0.000 OA
ATOM     22  H   UNL     1      46.216   6.761  14.533  0.00  0.00    +0.000 HD
BRANCH  20  23
ATOM     23  C   UNL     1      45.522   6.254  12.100  0.00  0.00    +0.000 A 
ATOM     24  C   UNL     1      44.591   7.117  11.537  0.00  0.00    +0.000 A 
ATOM     25  S   UNL     1      43.158   6.341  11.027  0.00  0.00    +0.000 S 
ATOM     26  C   UNL     1      43.710   4.833  11.589  0.00  0.00    +0.000 A 
ATOM     27  N   UNL     1      42.935   3.720  11.489  0.00  0.00    +0.000 NA
ATOM     28  C   UNL     1      43.469   2.650  11.979  0.00  0.00    +0.000 A 
ATOM     29  N   UNL     1      44.712   2.595  12.553  0.00  0.00    +0.000 N 
ATOM     30  C   UNL     1      45.544   3.683  12.643  0.00  0.00    +0.000 A 
ATOM     31  O   UNL     1      46.675   3.582  13.106  0.00  0.00    +0.000 OA
ATOM     32  C   UNL     1      44.981   4.915  12.129  0.00  0.00    +0.000 A 
ATOM     33  H   UNL     1      45.083   1.721  12.901  0.00  0.00    +0.000 HD
ENDBRANCH  20  23
ENDBRANCH  18  19
ENDBRANCH   4  18
TORSDOF 6
ENDMDL
MODEL 6
REMARK VINA RESULT:    -6.667      4.904      7.637
REMARK INTER + INTRA:          -9.945
REMARK INTER:                  -9.048
REMARK INTRA:                  -0.897
REMARK UNBOUND:                -0.939
REMARK  Name = 
REMARK  7 active torsions:
REMARK  status: ('A' for Active; 'I' for Inactive)
REMARK    1  A    between atoms: C_1  and  C_2
REMARK    2  A    between atoms: C_5  and  C_6
REMARK    3  A    between atoms: N_8  and  C_9
REMARK    4  A    between atoms: C_9  and  C_10
REMARK    5  A    between atoms: C_13  and  C_14
REMARK    6  A    between atoms: C_14  and  N_15
REMARK    7  A    between atoms: C_16  and  C_18
REMARK                            x       y       z     vdW  Elec       q    Type
REMARK                         _______ _______ _______ _____ _____    ______ ____
ROOT
ATOM      1  C   UNL     1      50.168   9.124  11.482  0.00  0.00    +0.000 A 
ATOM      2  C   UNL     1      49.735   7.794  11.598  0.00  0.00    +0.000 A 
ATOM      3  C   UNL     1      48.472   7.490  12.132  0.00  0.00    +0.000 A 
ATOM      4  C   UNL     1      47.600   8.507  12.540  0.00  0.00    +0.000 A 
ATOM      5  C   UNL     1      48.032   9.835  12.427  0.00  0.00    +0.000 A 
ATOM      6  C   UNL     1      49.295  10.140  11.897  0.00  0.00    +0.000 A 
ENDROOT
BRANCH   1   7
ATOM      7  C   UNL     1      51.536   9.453  10.930  0.00  0.00    +0.000 C 
BRANCH   7  10
ATOM      8  C   UNL     1      53.042   8.360   9.300  0.00  0.00    +0.000 C 
ATOM      9  O   UNL     1      53.274   9.414   8.707  0.00  0.00    +0.000 OA
ATOM     10  N   UNL     1      52.205   8.296  10.393  0.00  0.00    +0.000 N 
ATOM     11  H   UNL     1      52.112   7.397  10.852  0.00  0.00    +0.000 HD
BRANCH   8  16
ATOM     12  C   UNL     1      53.191   4.223   6.807  0.00  0.00    +0.000 C 
ATOM     13  C   UNL     1      53.716   5.187   7.797  0.00  0.00    +0.000 A 
ATOM     14  C   UNL     1      54.824   5.202   8.613  0.00  0.00    +0.000 A 
ATOM     15  C   UNL     1      54.765   6.421   9.338  0.00  0.00    +0.000 A 
ATOM     16  C   UNL     1      53.622   7.081   8.923  0.00  0.00    +0.000 A 
ATOM     17  O   UNL     1      52.980   6.318   7.979  0.00  0.00    +0.000 OA
ENDBRANCH   8  16
ENDBRANCH   7  10
ENDBRANCH   1   7
BRANCH   4  18
ATOM     18  C   UNL     1      46.231   8.188  13.098  0.00  0.00    +0.000 C 
BRANCH  18  19
ATOM     19  N   UNL     1      45.792   6.862  12.744  0.00  0.00    +0.000 N 
ATOM     20  C   UNL     1      44.788   6.647  11.834  0.00  0.00    +0.000 C 
ATOM     21  O   UNL     1      44.225   7.570  11.252  0.00  0.00    +0.000 OA
ATOM     22  H   UNL     1      46.039   6.114  13.386  0.00  0.00    +0.000 HD
BRANCH  20  23
ATOM     23  C   UNL     1      44.460   5.244  11.541  0.00  0.00    +0.000 A 
ATOM     24  C   UNL     1      43.711   4.500  12.445  0.00  0.00    +0.000 A 
ATOM     25  S   UNL     1      43.394   2.905  11.922  0.00  0.00    +0.000 S 
ATOM     26  C   UNL     1      44.292   3.136  10.495  0.00  0.00    +0.000 A 
ATOM     27  N   UNL     1      44.452   2.128   9.596  0.00  0.00    +0.000 NA
ATOM     28  C   UNL     1      45.177   2.436   8.571  0.00  0.00    +0.000 A 
ATOM     29  N   UNL     1      45.749   3.664   8.364  0.00  0.00    +0.000 N 
ATOM     30  C   UNL     1      45.584   4.721   9.224  0.00  0.00    +0.000 A 
ATOM     31  O   UNL     1      46.059   5.824   8.975  0.00  0.00    +0.000 OA
ATOM     32  C   UNL     1      44.799   4.420  10.404  0.00  0.00    +0.000 A 
ATOM     33  H   UNL     1      46.291   3.848   7.531  0.00  0.00    +0.000 HD
ENDBRANCH  20  23
ENDBRANCH  18  19
ENDBRANCH   4  18
TORSDOF 6
ENDMDL
MODEL 7
REMARK VINA RESULT:    -6.407      2.825      3.844
REMARK INTER + INTRA:          -9.593
REMARK INTER:                  -8.638
REMARK INTRA:                  -0.955
REMARK UNBOUND:                -0.939
REMARK  Name = 
REMARK  7 active torsions:
REMARK  status: ('A' for Active; 'I' for Inactive)
REMARK    1  A    between atoms: C_1  and  C_2
REMARK    2  A    between atoms: C_5  and  C_6
REMARK    3  A    between atoms: N_8  and  C_9
REMARK    4  A    between atoms: C_9  and  C_10
REMARK    5  A    between atoms: C_13  and  C_14
REMARK    6  A    between atoms: C_14  and  N_15
REMARK    7  A    between atoms: C_16  and  C_18
REMARK                            x       y       z     vdW  Elec       q    Type
REMARK                         _______ _______ _______ _____ _____    ______ ____
ROOT
ATOM      1  C   UNL     1      46.832   7.357  12.096  0.00  0.00    +0.000 A 
ATOM      2  C   UNL     1      48.079   7.362  11.453  0.00  0.00    +0.000 A 
ATOM      3  C   UNL     1      49.243   7.745  12.139  0.00  0.00    +0.000 A 
ATOM      4  C   UNL     1      49.194   8.108  13.492  0.00  0.00    +0.000 A 
ATOM      5  C   UNL     1      47.948   8.106  14.133  0.00  0.00    +0.000 A 
ATOM      6  C   UNL     1      46.784   7.726  13.447  0.00  0.00    +0.000 A 
ENDROOT
BRANCH   1   7
ATOM      7  C   UNL     1      45.574   6.968  11.352  0.00  0.00    +0.000 C 
BRANCH   7  10
ATOM      8  C   UNL     1      44.754   4.945  10.187  0.00  0.00    +0.000 C 
ATOM      9  O   UNL     1      43.608   5.083  10.614  0.00  0.00    +0.000 OA
ATOM     10  N   UNL     1      45.770   5.822  10.501  0.00  0.00    +0.000 N 
ATOM     11  H   UNL     1      46.671   5.663  10.064  0.00  0.00    +0.000 HD
BRANCH   8  16
ATOM     12  C   UNL     1      46.679   3.107   6.153  0.00  0.00    +0.000 C 
ATOM     13  C   UNL     1      46.036   2.994   7.479  0.00  0.00    +0.000 A 
ATOM     14  C   UNL     1      45.648   1.928   8.258  0.00  0.00    +0.000 A 
ATOM     15  C   UNL     1      45.085   2.484   9.437  0.00  0.00    +0.000 A 
ATOM     16  C   UNL     1      45.161   3.860   9.308  0.00  0.00    +0.000 A 
ATOM     17  O   UNL     1      45.743   4.167   8.105  0.00  0.00    +0.000 OA
ENDBRANCH   8  16
ENDBRANCH   7  10
ENDBRANCH   1   7
BRANCH   4  18
ATOM     18  C   UNL     1      50.446   8.504  14.243  0.00  0.00    +0.000 C 
BRANCH  18  19
ATOM     19  N   UNL     1      51.032   7.393  14.950  0.00  0.00    +0.000 N 
ATOM     20  C   UNL     1      50.815   7.187  16.289  0.00  0.00    +0.000 C 
ATOM     21  O   UNL     1      50.089   7.920  16.954  0.00  0.00    +0.000 OA
ATOM     22  H   UNL     1      51.828   6.941  14.507  0.00  0.00    +0.000 HD
BRANCH  20  23
ATOM     23  C   UNL     1      51.449   5.998  16.878  0.00  0.00    +0.000 A 
ATOM     24  C   UNL     1      50.669   5.017  17.479  0.00  0.00    +0.000 A 
ATOM     25  S   UNL     1      51.570   3.694  18.073  0.00  0.00    +0.000 S 
ATOM     26  C   UNL     1      53.039   4.408  17.595  0.00  0.00    +0.000 A 
ATOM     27  N   UNL     1      54.229   3.799  17.841  0.00  0.00    +0.000 NA
ATOM     28  C   UNL     1      55.263   4.466  17.447  0.00  0.00    +0.000 A 
ATOM     29  N   UNL     1      55.211   5.684  16.822  0.00  0.00    +0.000 N 
ATOM     30  C   UNL     1      54.033   6.320  16.520  0.00  0.00    +0.000 A 
ATOM     31  O   UNL     1      54.021   7.380  15.903  0.00  0.00    +0.000 OA
ATOM     32  C   UNL     1      52.842   5.624  16.964  0.00  0.00    +0.000 A 
ATOM     33  H   UNL     1      56.057   6.147  16.520  0.00  0.00    +0.000 HD
ENDBRANCH  20  23
ENDBRANCH  18  19
ENDBRANCH   4  18
TORSDOF 6
ENDMDL
MODEL 8
REMARK VINA RESULT:    -6.231      2.293      3.211
REMARK INTER + INTRA:          -9.355
REMARK INTER:                  -8.369
REMARK INTRA:                  -0.987
REMARK UNBOUND:                -0.939
REMARK  Name = 
REMARK  7 active torsions:
REMARK  status: ('A' for Active; 'I' for Inactive)
REMARK    1  A    between atoms: C_1  and  C_2
REMARK    2  A    between atoms: C_5  and  C_6
REMARK    3  A    between atoms: N_8  and  C_9
REMARK    4  A    between atoms: C_9  and  C_10
REMARK    5  A    between atoms: C_13  and  C_14
REMARK    6  A    between atoms: C_14  and  N_15
REMARK    7  A    between atoms: C_16  and  C_18
REMARK                            x       y       z     vdW  Elec       q    Type
REMARK                         _______ _______ _______ _____ _____    ______ ____
ROOT
ATOM      1  C   UNL     1      47.292   7.540  12.318  0.00  0.00    +0.000 A 
ATOM      2  C   UNL     1      48.428   7.541  11.494  0.00  0.00    +0.000 A 
ATOM      3  C   UNL     1      49.699   7.827  12.017  0.00  0.00    +0.000 A 
ATOM      4  C   UNL     1      49.872   8.093  13.382  0.00  0.00    +0.000 A 
ATOM      5  C   UNL     1      48.738   8.094  14.205  0.00  0.00    +0.000 A 
ATOM      6  C   UNL     1      47.467   7.812  13.682  0.00  0.00    +0.000 A 
ENDROOT
BRANCH   1   7
ATOM      7  C   UNL     1      45.919   7.256  11.752  0.00  0.00    +0.000 C 
BRANCH   7  10
ATOM      8  C   UNL     1      44.751   5.401  10.606  0.00  0.00    +0.000 C 
ATOM      9  O   UNL     1      43.652   5.728  11.054  0.00  0.00    +0.000 OA
ATOM     10  N   UNL     1      45.905   6.095  10.900  0.00  0.00    +0.000 N 
ATOM     11  H   UNL     1      46.758   5.788  10.445  0.00  0.00    +0.000 HD
BRANCH   8  16
ATOM     12  C   UNL     1      46.323   3.261   6.568  0.00  0.00    +0.000 C 
ATOM     13  C   UNL     1      45.662   3.261   7.890  0.00  0.00    +0.000 A 
ATOM     14  C   UNL     1      45.079   2.282   8.661  0.00  0.00    +0.000 A 
ATOM     15  C   UNL     1      44.622   2.925   9.841  0.00  0.00    +0.000 A 
ATOM     16  C   UNL     1      44.953   4.264   9.722  0.00  0.00    +0.000 A 
ATOM     17  O   UNL     1      45.589   4.465   8.523  0.00  0.00    +0.000 OA
ENDBRANCH   8  16
ENDBRANCH   7  10
ENDBRANCH   1   7
BRANCH   4  18
ATOM     18  C   UNL     1      51.241   8.383  13.957  0.00  0.00    +0.000 C 
BRANCH  18  19
ATOM     19  N   UNL     1      51.359   7.955  15.328  0.00  0.00    +0.000 N 
ATOM     20  C   UNL     1      52.480   7.320  15.798  0.00  0.00    +0.000 C 
ATOM     21  O   UNL     1      53.457   7.105  15.085  0.00  0.00    +0.000 OA
ATOM     22  H   UNL     1      50.493   7.876  15.856  0.00  0.00    +0.000 HD
BRANCH  20  23
ATOM     23  C   UNL     1      52.481   6.965  17.225  0.00  0.00    +0.000 A 
ATOM     24  C   UNL     1      53.516   7.390  18.049  0.00  0.00    +0.000 A 
ATOM     25  S   UNL     1      53.331   6.919  19.679  0.00  0.00    +0.000 S 
ATOM     26  C   UNL     1      51.889   6.085  19.333  0.00  0.00    +0.000 A 
ATOM     27  N   UNL     1      51.215   5.412  20.304  0.00  0.00    +0.000 NA
ATOM     28  C   UNL     1      50.151   4.805  19.894  0.00  0.00    +0.000 A 
ATOM     29  N   UNL     1      49.698   4.817  18.601  0.00  0.00    +0.000 N 
ATOM     30  C   UNL     1      50.323   5.512  17.596  0.00  0.00    +0.000 A 
ATOM     31  O   UNL     1      49.854   5.553  16.463  0.00  0.00    +0.000 OA
ATOM     32  C   UNL     1      51.538   6.192  17.998  0.00  0.00    +0.000 A 
ATOM     33  H   UNL     1      48.846   4.337  18.347  0.00  0.00    +0.000 HD
ENDBRANCH  20  23
ENDBRANCH  18  19
ENDBRANCH   4  18
TORSDOF 6
ENDMDL
MODEL 9
REMARK VINA RESULT:    -6.183      4.146      5.199
REMARK INTER + INTRA:          -9.292
REMARK INTER:                  -8.441
REMARK INTRA:                  -0.851
REMARK UNBOUND:                -0.939
REMARK  Name = 
REMARK  7 active torsions:
REMARK  status: ('A' for Active; 'I' for Inactive)
REMARK    1  A    between atoms: C_1  and  C_2
REMARK    2  A    between atoms: C_5  and  C_6
REMARK    3  A    between atoms: N_8  and  C_9
REMARK    4  A    between atoms: C_9  and  C_10
REMARK    5  A    between atoms: C_13  and  C_14
REMARK    6  A    between atoms: C_14  and  N_15
REMARK    7  A    between atoms: C_16  and  C_18
REMARK                            x       y       z     vdW  Elec       q    Type
REMARK                         _______ _______ _______ _____ _____    ______ ____
ROOT
ATOM      1  C   UNL     1      45.348   6.075  11.906  0.00  0.00    +0.000 A 
ATOM      2  C   UNL     1      44.810   7.239  12.477  0.00  0.00    +0.000 A 
ATOM      3  C   UNL     1      45.614   8.367  12.709  0.00  0.00    +0.000 A 
ATOM      4  C   UNL     1      46.969   8.370  12.354  0.00  0.00    +0.000 A 
ATOM      5  C   UNL     1      47.507   7.207  11.787  0.00  0.00    +0.000 A 
ATOM      6  C   UNL     1      46.706   6.079  11.556  0.00  0.00    +0.000 A 
ENDROOT
BRANCH   1   7
ATOM      7  C   UNL     1      44.490   4.852  11.676  0.00  0.00    +0.000 C 
BRANCH   7  10
ATOM      8  C   UNL     1      44.739   3.855   9.426  0.00  0.00    +0.000 C 
ATOM      9  O   UNL     1      43.880   4.587   8.934  0.00  0.00    +0.000 OA
ATOM     10  N   UNL     1      45.093   3.922  10.756  0.00  0.00    +0.000 N 
ATOM     11  H   UNL     1      45.847   3.318  11.065  0.00  0.00    +0.000 HD
BRANCH   8  16
ATOM     12  C   UNL     1      47.780   2.385   5.969  0.00  0.00    +0.000 C 
ATOM     13  C   UNL     1      46.857   2.155   7.101  0.00  0.00    +0.000 A 
ATOM     14  C   UNL     1      46.427   1.027   7.761  0.00  0.00    +0.000 A 
ATOM     15  C   UNL     1      45.535   1.474   8.771  0.00  0.00    +0.000 A 
ATOM     16  C   UNL     1      45.472   2.853   8.668  0.00  0.00    +0.000 A 
ATOM     17  O   UNL     1      46.283   3.265   7.641  0.00  0.00    +0.000 OA
ENDBRANCH   8  16
ENDBRANCH   7  10
ENDBRANCH   1   7
BRANCH   4  18
ATOM     18  C   UNL     1      47.837   9.587  12.584  0.00  0.00    +0.000 C 
BRANCH  18  19
ATOM     19  N   UNL     1      49.199   9.374  12.163  0.00  0.00    +0.000 N 
ATOM     20  C   UNL     1      49.954  10.376  11.607  0.00  0.00    +0.000 C 
ATOM     21  O   UNL     1      49.522  11.516  11.462  0.00  0.00    +0.000 OA
ATOM     22  H   UNL     1      49.486   8.408  12.021  0.00  0.00    +0.000 HD
BRANCH  20  23
ATOM     23  C   UNL     1      51.338  10.030  11.250  0.00  0.00    +0.000 A 
ATOM     24  C   UNL     1      51.881  10.478  10.052  0.00  0.00    +0.000 A 
ATOM     25  S   UNL     1      53.509  10.015   9.823  0.00  0.00    +0.000 S 
ATOM     26  C   UNL     1      53.528   9.154  11.291  0.00  0.00    +0.000 A 
ATOM     27  N   UNL     1      54.637   8.476  11.693  0.00  0.00    +0.000 NA
ATOM     28  C   UNL     1      54.502   7.848  12.814  0.00  0.00    +0.000 A 
ATOM     29  N   UNL     1      53.359   7.844  13.571  0.00  0.00    +0.000 N 
ATOM     30  C   UNL     1      52.230   8.543  13.224  0.00  0.00    +0.000 A 
ATOM     31  O   UNL     1      51.247   8.568  13.957  0.00  0.00    +0.000 OA
ATOM     32  C   UNL     1      52.320   9.246  11.960  0.00  0.00    +0.000 A 
ATOM     33  H   UNL     1      53.323   7.347  14.450  0.00  0.00    +0.000 HD
ENDBRANCH  20  23
ENDBRANCH  18  19
ENDBRANCH   4  18
TORSDOF 6
ENDMDL
