MODEL 1
REMARK VINA RESULT:    -8.244      0.000      0.000
REMARK INTER + INTRA:         -12.158
REMARK INTER:                 -11.135
REMARK INTRA:                  -1.023
REMARK UNBOUND:                -1.023
REMARK  Name = 
REMARK  6 active torsions:
REMARK  status: ('A' for Active; 'I' for Inactive)
REMARK    1  A    between atoms: C_2  and  C_25
REMARK    2  A    between atoms: N_3  and  C_4
REMARK    3  A    between atoms: C_4  and  C_5
REMARK    4  A    between atoms: C_8  and  C_9
REMARK    5  A    between atoms: C_9  and  N_10
REMARK    6  A    between atoms: C_11  and  C_13
REMARK                            x       y       z     vdW  Elec       q    Type
REMARK                         _______ _______ _______ _____ _____    ______ ____
ROOT
ATOM      1  C   UNL     1      45.070   4.647  12.306  0.00  0.00    +0.000 A 
ATOM      2  C   UNL     1      44.537   5.935  12.287  0.00  0.00    +0.000 A 
ATOM      3  C   UNL     1      45.305   6.994  12.769  0.00  0.00    +0.000 A 
ATOM      4  C   UNL     1      46.580   6.751  13.285  0.00  0.00    +0.000 A 
ATOM      5  C   UNL     1      47.027   5.435  13.269  0.00  0.00    +0.000 A 
ATOM      6  N   UNL     1      46.306   4.386  12.804  0.00  0.00    +0.000 NA
ENDROOT
BRANCH   1   7
ATOM      7  C   UNL     1      44.277   3.491  11.743  0.00  0.00    +0.000 C 
BRANCH   7  10
ATOM      8  O   UNL     1      44.105   4.310   9.056  0.00  0.00    +0.000 OA
ATOM      9  C   UNL     1      44.832   3.364   9.351  0.00  0.00    +0.000 C 
ATOM     10  N   UNL     1      44.928   2.847  10.623  0.00  0.00    +0.000 N 
ATOM     11  H   UNL     1      45.669   2.172  10.795  0.00  0.00    +0.000 HD
BRANCH   9  12
ATOM     12  C   UNL     1      45.678   2.698   8.307  0.00  0.00    +0.000 A 
ATOM     13  C   UNL     1      46.022   3.404   7.158  0.00  0.00    +0.000 A 
ATOM     14  C   UNL     1      46.788   2.760   6.192  0.00  0.00    +0.000 A 
ATOM     15  C   UNL     1      47.180   1.443   6.405  0.00  0.00    +0.000 A 
ATOM     16  C   UNL     1      46.793   0.820   7.583  0.00  0.00    +0.000 A 
ATOM     17  N   UNL     1      46.053   1.411   8.548  0.00  0.00    +0.000 NA
ENDBRANCH   9  12
ENDBRANCH   7  10
ENDBRANCH   1   7
BRANCH   4  18
ATOM     18  C   UNL     1      47.446   7.863  13.799  0.00  0.00    +0.000 C 
BRANCH  18  19
ATOM     19  N   UNL     1      47.930   7.587  15.128  0.00  0.00    +0.000 N 
ATOM     20  C   UNL     1      49.213   7.145  15.339  0.00  0.00    +0.000 C 
ATOM     21  O   UNL     1      50.012   7.009  14.417  0.00  0.00    +0.000 OA
ATOM     22  H   UNL     1      47.238   7.461  15.860  0.00  0.00    +0.000 HD
BRANCH  20  23
ATOM     23  C   UNL     1      49.606   6.905  16.735  0.00  0.00    +0.000 A 
ATOM     24  C   UNL     1      50.604   7.679  17.311  0.00  0.00    +0.000 A 
ATOM     25  S   UNL     1      50.901   7.305  18.949  0.00  0.00    +0.000 S 
ATOM     26  C   UNL     1      49.744   6.058  18.931  0.00  0.00    +0.000 A 
ATOM     27  N   UNL     1      49.515   5.301  20.037  0.00  0.00    +0.000 NA
ATOM     28  C   UNL     1      48.634   4.372  19.875  0.00  0.00    +0.000 A 
ATOM     29  N   UNL     1      47.955   4.135  18.707  0.00  0.00    +0.000 N 
ATOM     30  C   UNL     1      48.133   4.892  17.574  0.00  0.00    +0.000 A 
ATOM     31  O   UNL     1      47.480   4.681  16.556  0.00  0.00    +0.000 OA
ATOM     32  C   UNL     1      49.125   5.942  17.699  0.00  0.00    +0.000 A 
ATOM     33  H   UNL     1      47.271   3.395  18.649  0.00  0.00    +0.000 HD
ENDBRANCH  20  23
ENDBRANCH  18  19
ENDBRANCH   4  18
TORSDOF 6
ENDMDL
MODEL 2
REMARK VINA RESULT:    -8.167      2.113      2.360
REMARK INTER + INTRA:         -12.055
REMARK INTER:                 -11.241
REMARK INTRA:                  -0.815
REMARK UNBOUND:                -1.023
REMARK  Name = 
REMARK  6 active torsions:
REMARK  status: ('A' for Active; 'I' for Inactive)
REMARK    1  A    between atoms: C_2  and  C_25
REMARK    2  A    between atoms: N_3  and  C_4
REMARK    3  A    between atoms: C_4  and  C_5
REMARK    4  A    between atoms: C_8  and  C_9
REMARK    5  A    between atoms: C_9  and  N_10
REMARK    6  A    between atoms: C_11  and  C_13
REMARK                            x       y       z     vdW  Elec       q    Type
REMARK                         _______ _______ _______ _____ _____    ______ ____
ROOT
ATOM      1  C   UNL     1      45.563   4.330  12.624  0.00  0.00    +0.000 A 
ATOM      2  C   UNL     1      46.366   3.786  13.625  0.00  0.00    +0.000 A 
ATOM      3  C   UNL     1      47.203   4.630  14.355  0.00  0.00    +0.000 A 
ATOM      4  C   UNL     1      47.247   5.993  14.060  0.00  0.00    +0.000 A 
ATOM      5  C   UNL     1      46.417   6.446  13.041  0.00  0.00    +0.000 A 
ATOM      6  N   UNL     1      45.590   5.653  12.317  0.00  0.00    +0.000 NA
ENDROOT
BRANCH   1   7
ATOM      7  C   UNL     1      44.612   3.446  11.853  0.00  0.00    +0.000 C 
BRANCH   7  10
ATOM      8  O   UNL     1      44.102   4.182   9.185  0.00  0.00    +0.000 OA
ATOM      9  C   UNL     1      44.946   3.320   9.420  0.00  0.00    +0.000 C 
ATOM     10  N   UNL     1      45.215   2.845  10.684  0.00  0.00    +0.000 N 
ATOM     11  H   UNL     1      46.034   2.251  10.791  0.00  0.00    +0.000 HD
BRANCH   9  12
ATOM     12  C   UNL     1      45.752   2.719   8.308  0.00  0.00    +0.000 A 
ATOM     13  C   UNL     1      46.031   3.483   7.179  0.00  0.00    +0.000 A 
ATOM     14  C   UNL     1      46.760   2.899   6.149  0.00  0.00    +0.000 A 
ATOM     15  C   UNL     1      47.182   1.581   6.281  0.00  0.00    +0.000 A 
ATOM     16  C   UNL     1      46.862   0.896   7.445  0.00  0.00    +0.000 A 
ATOM     17  N   UNL     1      46.159   1.429   8.470  0.00  0.00    +0.000 NA
ENDBRANCH   9  12
ENDBRANCH   7  10
ENDBRANCH   1   7
BRANCH   4  18
ATOM     18  C   UNL     1      48.121   6.938  14.831  0.00  0.00    +0.000 C 
BRANCH  18  19
ATOM     19  N   UNL     1      49.247   6.258  15.419  0.00  0.00    +0.000 N 
ATOM     20  C   UNL     1      49.234   5.868  16.736  0.00  0.00    +0.000 C 
ATOM     21  O   UNL     1      48.253   6.040  17.453  0.00  0.00    +0.000 OA
ATOM     22  H   UNL     1      50.136   6.320  14.931  0.00  0.00    +0.000 HD
BRANCH  20  23
ATOM     23  C   UNL     1      50.431   5.172  17.229  0.00  0.00    +0.000 A 
ATOM     24  C   UNL     1      51.504   5.909  17.714  0.00  0.00    +0.000 A 
ATOM     25  S   UNL     1      52.789   4.948  18.292  0.00  0.00    +0.000 S 
ATOM     26  C   UNL     1      51.981   3.513  17.865  0.00  0.00    +0.000 A 
ATOM     27  N   UNL     1      52.555   2.298  18.073  0.00  0.00    +0.000 NA
ATOM     28  C   UNL     1      51.845   1.297  17.676  0.00  0.00    +0.000 A 
ATOM     29  N   UNL     1      50.606   1.399  17.094  0.00  0.00    +0.000 N 
ATOM     30  C   UNL     1      49.975   2.603  16.892  0.00  0.00    +0.000 A 
ATOM     31  O   UNL     1      48.849   2.659  16.407  0.00  0.00    +0.000 OA
ATOM     32  C   UNL     1      50.738   3.762  17.309  0.00  0.00    +0.000 A 
ATOM     33  H   UNL     1      50.099   0.573  16.813  0.00  0.00    +0.000 HD
ENDBRANCH  20  23
ENDBRANCH  18  19
ENDBRANCH   4  18
TORSDOF 6
ENDMDL
MODEL 3
REMARK VINA RESULT:    -8.004      1.387      1.614
REMARK INTER + INTRA:         -11.834
REMARK INTER:                 -10.918
REMARK INTRA:                  -0.916
REMARK UNBOUND:                -1.023
REMARK  Name = 
REMARK  6 active torsions:
REMARK  status: ('A' for Active; 'I' for Inactive)
REMARK    1  A    between atoms: C_2  and  C_25
REMARK    2  A    between atoms: N_3  and  C_4
REMARK    3  A    between atoms: C_4  and  C_5
REMARK    4  A    between atoms: C_8  and  C_9
REMARK    5  A    between atoms: C_9  and  N_10
REMARK    6  A    between atoms: C_11  and  C_13
REMARK                            x       y       z     vdW  Elec       q    Type
REMARK                         _______ _______ _______ _____ _____    ______ ____
ROOT
ATOM      1  C   UNL     1      44.851   5.022  11.906  0.00  0.00    +0.000 A 
ATOM      2  C   UNL     1      45.991   4.969  12.704  0.00  0.00    +0.000 A 
ATOM      3  C   UNL     1      46.578   6.161  13.128  0.00  0.00    +0.000 A 
ATOM      4  C   UNL     1      46.036   7.384  12.728  0.00  0.00    +0.000 A 
ATOM      5  C   UNL     1      44.901   7.340  11.926  0.00  0.00    +0.000 A 
ATOM      6  N   UNL     1      44.306   6.199  11.502  0.00  0.00    +0.000 NA
ENDROOT
BRANCH   1   7
ATOM      7  C   UNL     1      44.168   3.745  11.476  0.00  0.00    +0.000 C 
BRANCH   7  10
ATOM      8  O   UNL     1      44.108   4.257   8.710  0.00  0.00    +0.000 OA
ATOM      9  C   UNL     1      44.859   3.386   9.144  0.00  0.00    +0.000 C 
ATOM     10  N   UNL     1      44.907   3.016  10.469  0.00  0.00    +0.000 N 
ATOM     11  H   UNL     1      45.666   2.401  10.751  0.00  0.00    +0.000 HD
BRANCH   9  12
ATOM     12  C   UNL     1      45.789   2.654   8.224  0.00  0.00    +0.000 A 
ATOM     13  C   UNL     1      46.384   3.341   7.169  0.00  0.00    +0.000 A 
ATOM     14  C   UNL     1      47.226   2.638   6.314  0.00  0.00    +0.000 A 
ATOM     15  C   UNL     1      47.443   1.283   6.540  0.00  0.00    +0.000 A 
ATOM     16  C   UNL     1      46.810   0.682   7.619  0.00  0.00    +0.000 A 
ATOM     17  N   UNL     1      45.988   1.330   8.475  0.00  0.00    +0.000 NA
ENDBRANCH   9  12
ENDBRANCH   7  10
ENDBRANCH   1   7
BRANCH   4  18
ATOM     18  C   UNL     1      46.626   8.690  13.173  0.00  0.00    +0.000 C 
BRANCH  18  19
ATOM     19  N   UNL     1      47.035   8.643  14.555  0.00  0.00    +0.000 N 
ATOM     20  C   UNL     1      48.364   8.603  14.901  0.00  0.00    +0.000 C 
ATOM     21  O   UNL     1      49.255   8.650  14.058  0.00  0.00    +0.000 OA
ATOM     22  H   UNL     1      46.339   8.365  15.239  0.00  0.00    +0.000 HD
BRANCH  20  23
ATOM     23  C   UNL     1      48.670   8.568  16.337  0.00  0.00    +0.000 A 
ATOM     24  C   UNL     1      48.772   9.757  17.048  0.00  0.00    +0.000 A 
ATOM     25  S   UNL     1      49.081   9.536  18.711  0.00  0.00    +0.000 S 
ATOM     26  C   UNL     1      49.142   7.846  18.532  0.00  0.00    +0.000 A 
ATOM     27  N   UNL     1      49.401   7.039  19.595  0.00  0.00    +0.000 NA
ATOM     28  C   UNL     1      49.447   5.781  19.312  0.00  0.00    +0.000 A 
ATOM     29  N   UNL     1      49.252   5.254  18.060  0.00  0.00    +0.000 N 
ATOM     30  C   UNL     1      48.959   6.029  16.963  0.00  0.00    +0.000 A 
ATOM     31  O   UNL     1      48.749   5.524  15.864  0.00  0.00    +0.000 OA
ATOM     32  C   UNL     1      48.909   7.453  17.225  0.00  0.00    +0.000 A 
ATOM     33  H   UNL     1      49.294   4.257  17.907  0.00  0.00    +0.000 HD
ENDBRANCH  20  23
ENDBRANCH  18  19
ENDBRANCH   4  18
TORSDOF 6
ENDMDL
MODEL 4
REMARK VINA RESULT:    -7.267      3.313      9.025
REMARK INTER + INTRA:         -10.839
REMARK INTER:                 -10.022
REMARK INTRA:                  -0.817
REMARK UNBOUND:                -1.023
REMARK  Name = 
REMARK  6 active torsions:
REMARK  status: ('A' for Active; 'I' for Inactive)
REMARK    1  A    between atoms: C_2  and  C_25
REMARK    2  A    between atoms: N_3  and  C_4
REMARK    3  A    between atoms: C_4  and  C_5
REMARK    4  A    between atoms: C_8  and  C_9
REMARK    5  A    between atoms: C_9  and  N_10
REMARK    6  A    between atoms: C_11  and  C_13
REMARK                            x       y       z     vdW  Elec       q    Type
REMARK                         _______ _______ _______ _____ _____    ______ ____
ROOT
ATOM      1  C   UNL     1      50.246   7.573  15.092  0.00  0.00    +0.000 A 
ATOM      2  C   UNL     1      50.307   8.683  14.252  0.00  0.00    +0.000 A 
ATOM      3  C   UNL     1      49.383   8.799  13.215  0.00  0.00    +0.000 A 
ATOM      4  C   UNL     1      48.432   7.797  13.014  0.00  0.00    +0.000 A 
ATOM      5  C   UNL     1      48.451   6.723  13.896  0.00  0.00    +0.000 A 
ATOM      6  N   UNL     1      49.332   6.584  14.916  0.00  0.00    +0.000 NA
ENDROOT
BRANCH   1   7
ATOM      7  C   UNL     1      51.204   7.450  16.254  0.00  0.00    +0.000 C 
BRANCH   7  10
ATOM      8  O   UNL     1      50.068   5.779  18.213  0.00  0.00    +0.000 OA
ATOM      9  C   UNL     1      50.932   5.327  17.465  0.00  0.00    +0.000 C 
ATOM     10  N   UNL     1      51.595   6.084  16.525  0.00  0.00    +0.000 N 
ATOM     11  H   UNL     1      52.176   5.586  15.855  0.00  0.00    +0.000 HD
BRANCH   9  12
ATOM     12  C   UNL     1      51.328   3.883  17.542  0.00  0.00    +0.000 A 
ATOM     13  C   UNL     1      52.577   3.546  18.055  0.00  0.00    +0.000 A 
ATOM     14  C   UNL     1      52.933   2.202  18.096  0.00  0.00    +0.000 A 
ATOM     15  C   UNL     1      52.037   1.248  17.625  0.00  0.00    +0.000 A 
ATOM     16  C   UNL     1      50.811   1.677  17.134  0.00  0.00    +0.000 A 
ATOM     17  N   UNL     1      50.426   2.972  17.081  0.00  0.00    +0.000 NA
ENDBRANCH   9  12
ENDBRANCH   7  10
ENDBRANCH   1   7
BRANCH   4  18
ATOM     18  C   UNL     1      47.410   7.890  11.919  0.00  0.00    +0.000 C 
BRANCH  18  19
ATOM     19  N   UNL     1      46.754   6.625  11.698  0.00  0.00    +0.000 N 
ATOM     20  C   UNL     1      45.388   6.543  11.588  0.00  0.00    +0.000 C 
ATOM     21  O   UNL     1      44.673   7.541  11.629  0.00  0.00    +0.000 OA
ATOM     22  H   UNL     1      47.285   5.783  11.898  0.00  0.00    +0.000 HD
BRANCH  20  23
ATOM     23  C   UNL     1      44.825   5.207  11.352  0.00  0.00    +0.000 A 
ATOM     24  C   UNL     1      44.070   4.594  12.343  0.00  0.00    +0.000 A 
ATOM     25  S   UNL     1      43.450   3.071  11.888  0.00  0.00    +0.000 S 
ATOM     26  C   UNL     1      44.214   3.152  10.370  0.00  0.00    +0.000 A 
ATOM     27  N   UNL     1      44.108   2.131   9.479  0.00  0.00    +0.000 NA
ATOM     28  C   UNL     1      44.761   2.311   8.380  0.00  0.00    +0.000 A 
ATOM     29  N   UNL     1      45.508   3.425   8.090  0.00  0.00    +0.000 N 
ATOM     30  C   UNL     1      45.620   4.492   8.948  0.00  0.00    +0.000 A 
ATOM     31  O   UNL     1      46.262   5.492   8.641  0.00  0.00    +0.000 OA
ATOM     32  C   UNL     1      44.915   4.333  10.204  0.00  0.00    +0.000 A 
ATOM     33  H   UNL     1      45.989   3.506   7.206  0.00  0.00    +0.000 HD
ENDBRANCH  20  23
ENDBRANCH  18  19
ENDBRANCH   4  18
TORSDOF 6
ENDMDL
MODEL 5
REMARK VINA RESULT:    -6.842      1.825      1.968
REMARK INTER + INTRA:         -10.265
REMARK INTER:                  -9.579
REMARK INTRA:                  -0.686
REMARK UNBOUND:                -1.023
REMARK  Name = 
REMARK  6 active torsions:
REMARK  status: ('A' for Active; 'I' for Inactive)
REMARK    1  A    between atoms: C_2  and  C_25
REMARK    2  A    between atoms: N_3  and  C_4
REMARK    3  A    between atoms: C_4  and  C_5
REMARK    4  A    between atoms: C_8  and  C_9
REMARK    5  A    between atoms: C_9  and  N_10
REMARK    6  A    between atoms: C_11  and  C_13
REMARK                            x       y       z     vdW  Elec       q    Type
REMARK                         _______ _______ _______ _____ _____    ______ ____
ROOT
ATOM      1  C   UNL     1      45.538   5.498  12.260  0.00  0.00    +0.000 A 
ATOM      2  C   UNL     1      45.042   6.800  12.298  0.00  0.00    +0.000 A 
ATOM      3  C   UNL     1      45.791   7.793  12.928  0.00  0.00    +0.000 A 
ATOM      4  C   UNL     1      47.008   7.469  13.532  0.00  0.00    +0.000 A 
ATOM      5  C   UNL     1      47.420   6.144  13.451  0.00  0.00    +0.000 A 
ATOM      6  N   UNL     1      46.717   5.159  12.842  0.00  0.00    +0.000 NA
ENDROOT
BRANCH   1   7
ATOM      7  C   UNL     1      44.769   4.416  11.540  0.00  0.00    +0.000 C 
BRANCH   7  10
ATOM      8  O   UNL     1      43.778   2.480   9.755  0.00  0.00    +0.000 OA
ATOM      9  C   UNL     1      44.899   2.949   9.571  0.00  0.00    +0.000 C 
ATOM     10  N   UNL     1      45.496   3.847  10.427  0.00  0.00    +0.000 N 
ATOM     11  H   UNL     1      46.353   4.291  10.108  0.00  0.00    +0.000 HD
BRANCH   9  12
ATOM     12  C   UNL     1      45.704   2.554   8.370  0.00  0.00    +0.000 A 
ATOM     13  C   UNL     1      45.813   3.440   7.302  0.00  0.00    +0.000 A 
ATOM     14  C   UNL     1      46.545   3.045   6.187  0.00  0.00    +0.000 A 
ATOM     15  C   UNL     1      47.138   1.787   6.177  0.00  0.00    +0.000 A 
ATOM     16  C   UNL     1      46.980   0.972   7.290  0.00  0.00    +0.000 A 
ATOM     17  N   UNL     1      46.280   1.320   8.393  0.00  0.00    +0.000 NA
ENDBRANCH   9  12
ENDBRANCH   7  10
ENDBRANCH   1   7
BRANCH   4  18
ATOM     18  C   UNL     1      47.852   8.509  14.207  0.00  0.00    +0.000 C 
BRANCH  18  19
ATOM     19  N   UNL     1      49.131   7.977  14.605  0.00  0.00    +0.000 N 
ATOM     20  C   UNL     1      49.425   7.747  15.927  0.00  0.00    +0.000 C 
ATOM     21  O   UNL     1      48.602   7.942  16.817  0.00  0.00    +0.000 OA
ATOM     22  H   UNL     1      49.891   8.036  13.934  0.00  0.00    +0.000 HD
BRANCH  20  23
ATOM     23  C   UNL     1      50.754   7.193  16.220  0.00  0.00    +0.000 A 
ATOM     24  C   UNL     1      51.891   7.893  15.838  0.00  0.00    +0.000 A 
ATOM     25  S   UNL     1      53.348   7.135  16.298  0.00  0.00    +0.000 S 
ATOM     26  C   UNL     1      52.513   5.817  16.977  0.00  0.00    +0.000 A 
ATOM     27  N   UNL     1      53.186   4.775  17.533  0.00  0.00    +0.000 NA
ATOM     28  C   UNL     1      52.430   3.831  17.983  0.00  0.00    +0.000 A 
ATOM     29  N   UNL     1      51.059   3.837  17.932  0.00  0.00    +0.000 N 
ATOM     30  C   UNL     1      50.337   4.881  17.405  0.00  0.00    +0.000 A 
ATOM     31  O   UNL     1      49.110   4.875  17.411  0.00  0.00    +0.000 OA
ATOM     32  C   UNL     1      51.141   5.963  16.873  0.00  0.00    +0.000 A 
ATOM     33  H   UNL     1      50.525   3.067  18.310  0.00  0.00    +0.000 HD
ENDBRANCH  20  23
ENDBRANCH  18  19
ENDBRANCH   4  18
TORSDOF 6
ENDMDL
MODEL 6
REMARK VINA RESULT:    -6.801      3.654      8.651
REMARK INTER + INTRA:         -10.210
REMARK INTER:                  -9.319
REMARK INTRA:                  -0.891
REMARK UNBOUND:                -1.023
REMARK  Name = 
REMARK  6 active torsions:
REMARK  status: ('A' for Active; 'I' for Inactive)
REMARK    1  A    between atoms: C_2  and  C_25
REMARK    2  A    between atoms: N_3  and  C_4
REMARK    3  A    between atoms: C_4  and  C_5
REMARK    4  A    between atoms: C_8  and  C_9
REMARK    5  A    between atoms: C_9  and  N_10
REMARK    6  A    between atoms: C_11  and  C_13
REMARK                            x       y       z     vdW  Elec       q    Type
REMARK                         _______ _______ _______ _____ _____    ______ ____
ROOT
ATOM      1  C   UNL     1      49.656   7.011  16.101  0.00  0.00    +0.000 A 
ATOM      2  C   UNL     1      50.185   8.142  15.482  0.00  0.00    +0.000 A 
ATOM      3  C   UNL     1      49.777   8.460  14.187  0.00  0.00    +0.000 A 
ATOM      4  C   UNL     1      48.871   7.634  13.520  0.00  0.00    +0.000 A 
ATOM      5  C   UNL     1      48.401   6.523  14.212  0.00  0.00    +0.000 A 
ATOM      6  N   UNL     1      48.775   6.191  15.472  0.00  0.00    +0.000 NA
ENDROOT
BRANCH   1   7
ATOM      7  C   UNL     1      50.043   6.674  17.521  0.00  0.00    +0.000 C 
BRANCH   7  10
ATOM      8  O   UNL     1      49.365   4.031  18.210  0.00  0.00    +0.000 OA
ATOM      9  C   UNL     1      50.524   4.292  17.894  0.00  0.00    +0.000 C 
ATOM     10  N   UNL     1      50.966   5.564  17.610  0.00  0.00    +0.000 N 
ATOM     11  H   UNL     1      51.897   5.652  17.210  0.00  0.00    +0.000 HD
BRANCH   9  12
ATOM     12  C   UNL     1      51.552   3.204  17.803  0.00  0.00    +0.000 A 
ATOM     13  C   UNL     1      52.892   3.516  18.014  0.00  0.00    +0.000 A 
ATOM     14  C   UNL     1      53.833   2.497  17.902  0.00  0.00    +0.000 A 
ATOM     15  C   UNL     1      53.406   1.212  17.583  0.00  0.00    +0.000 A 
ATOM     16  C   UNL     1      52.048   0.994  17.394  0.00  0.00    +0.000 A 
ATOM     17  N   UNL     1      51.103   1.956  17.498  0.00  0.00    +0.000 NA
ENDBRANCH   9  12
ENDBRANCH   7  10
ENDBRANCH   1   7
BRANCH   4  18
ATOM     18  C   UNL     1      48.394   7.947  12.133  0.00  0.00    +0.000 C 
BRANCH  18  19
ATOM     19  N   UNL     1      47.662   6.844  11.562  0.00  0.00    +0.000 N 
ATOM     20  C   UNL     1      46.299   6.902  11.406  0.00  0.00    +0.000 C 
ATOM     21  O   UNL     1      45.654   7.904  11.701  0.00  0.00    +0.000 OA
ATOM     22  H   UNL     1      48.124   5.941  11.537  0.00  0.00    +0.000 HD
BRANCH  20  23
ATOM     23  C   UNL     1      45.655   5.726  10.803  0.00  0.00    +0.000 A 
ATOM     24  C   UNL     1      45.772   5.502   9.438  0.00  0.00    +0.000 A 
ATOM     25  S   UNL     1      45.010   4.070   8.911  0.00  0.00    +0.000 S 
ATOM     26  C   UNL     1      44.450   3.725  10.480  0.00  0.00    +0.000 A 
ATOM     27  N   UNL     1      43.691   2.624  10.725  0.00  0.00    +0.000 NA
ATOM     28  C   UNL     1      43.310   2.501  11.952  0.00  0.00    +0.000 A 
ATOM     29  N   UNL     1      43.625   3.377  12.959  0.00  0.00    +0.000 N 
ATOM     30  C   UNL     1      44.414   4.486  12.764  0.00  0.00    +0.000 A 
ATOM     31  O   UNL     1      44.712   5.228  13.694  0.00  0.00    +0.000 OA
ATOM     32  C   UNL     1      44.856   4.678  11.397  0.00  0.00    +0.000 A 
ATOM     33  H   UNL     1      43.301   3.217  13.902  0.00  0.00    +0.000 HD
ENDBRANCH  20  23
ENDBRANCH  18  19
ENDBRANCH   4  18
TORSDOF 6
ENDMDL
MODEL 7
REMARK VINA RESULT:    -6.761      3.573      5.008
REMARK INTER + INTRA:         -10.155
REMARK INTER:                  -9.224
REMARK INTRA:                  -0.931
REMARK UNBOUND:                -1.023
REMARK  Name = 
REMARK  6 active torsions:
REMARK  status: ('A' for Active; 'I' for Inactive)
REMARK    1  A    between atoms: C_2  and  C_25
REMARK    2  A    between atoms: N_3  and  C_4
REMARK    3  A    between atoms: C_4  and  C_5
REMARK    4  A    between atoms: C_8  and  C_9
REMARK    5  A    between atoms: C_9  and  N_10
REMARK    6  A    between atoms: C_11  and  C_13
REMARK                            x       y       z     vdW  Elec       q    Type
REMARK                         _______ _______ _______ _____ _____    ______ ____
ROOT
ATOM      1  C   UNL     1      45.319   6.321  11.619  0.00  0.00    +0.000 A 
ATOM      2  C   UNL     1      46.466   5.832  12.242  0.00  0.00    +0.000 A 
ATOM      3  C   UNL     1      47.184   6.671  13.093  0.00  0.00    +0.000 A 
ATOM      4  C   UNL     1      46.764   7.988  13.290  0.00  0.00    +0.000 A 
ATOM      5  C   UNL     1      45.613   8.390  12.623  0.00  0.00    +0.000 A 
ATOM      6  N   UNL     1      44.891   7.598  11.794  0.00  0.00    +0.000 NA
ENDROOT
BRANCH   1   7
ATOM      7  C   UNL     1      44.496   5.416  10.732  0.00  0.00    +0.000 C 
BRANCH   7  10
ATOM      8  O   UNL     1      43.917   2.805   9.858  0.00  0.00    +0.000 OA
ATOM      9  C   UNL     1      44.894   3.391   9.397  0.00  0.00    +0.000 C 
ATOM     10  N   UNL     1      45.297   4.639   9.813  0.00  0.00    +0.000 N 
ATOM     11  H   UNL     1      46.019   5.100   9.265  0.00  0.00    +0.000 HD
BRANCH   9  12
ATOM     12  C   UNL     1      45.729   2.755   8.326  0.00  0.00    +0.000 A 
ATOM     13  C   UNL     1      46.069   3.497   7.198  0.00  0.00    +0.000 A 
ATOM     14  C   UNL     1      46.824   2.882   6.205  0.00  0.00    +0.000 A 
ATOM     15  C   UNL     1      47.210   1.557   6.371  0.00  0.00    +0.000 A 
ATOM     16  C   UNL     1      46.829   0.896   7.531  0.00  0.00    +0.000 A 
ATOM     17  N   UNL     1      46.099   1.459   8.520  0.00  0.00    +0.000 NA
ENDBRANCH   9  12
ENDBRANCH   7  10
ENDBRANCH   1   7
BRANCH   4  18
ATOM     18  C   UNL     1      47.498   8.919  14.209  0.00  0.00    +0.000 C 
BRANCH  18  19
ATOM     19  N   UNL     1      48.739   9.368  13.629  0.00  0.00    +0.000 N 
ATOM     20  C   UNL     1      49.947   8.891  14.077  0.00  0.00    +0.000 C 
ATOM     21  O   UNL     1      50.021   8.034  14.953  0.00  0.00    +0.000 OA
ATOM     22  H   UNL     1      48.718  10.228  13.090  0.00  0.00    +0.000 HD
BRANCH  20  23
ATOM     23  C   UNL     1      51.148   9.408  13.407  0.00  0.00    +0.000 A 
ATOM     24  C   UNL     1      51.889  10.417  14.007  0.00  0.00    +0.000 A 
ATOM     25  S   UNL     1      53.278  10.865  13.124  0.00  0.00    +0.000 S 
ATOM     26  C   UNL     1      52.910   9.764  11.880  0.00  0.00    +0.000 A 
ATOM     27  N   UNL     1      53.704   9.659  10.781  0.00  0.00    +0.000 NA
ATOM     28  C   UNL     1      53.291   8.806   9.905  0.00  0.00    +0.000 A 
ATOM     29  N   UNL     1      52.158   8.043  10.030  0.00  0.00    +0.000 N 
ATOM     30  C   UNL     1      51.343   8.095  11.135  0.00  0.00    +0.000 A 
ATOM     31  O   UNL     1      50.358   7.369  11.236  0.00  0.00    +0.000 OA
ATOM     32  C   UNL     1      51.755   9.049  12.145  0.00  0.00    +0.000 A 
ATOM     33  H   UNL     1      51.895   7.388   9.309  0.00  0.00    +0.000 HD
ENDBRANCH  20  23
ENDBRANCH  18  19
ENDBRANCH   4  18
TORSDOF 6
ENDMDL
MODEL 8
REMARK VINA RESULT:    -6.268      2.983      3.688
REMARK INTER + INTRA:          -9.489
REMARK INTER:                  -8.768
REMARK INTRA:                  -0.721
REMARK UNBOUND:                -1.023
REMARK  Name = 
REMARK  6 active torsions:
REMARK  status: ('A' for Active; 'I' for Inactive)
REMARK    1  A    between atoms: C_2  and  C_25
REMARK    2  A    between atoms: N_3  and  C_4
REMARK    3  A    between atoms: C_4  and  C_5
REMARK    4  A    between atoms: C_8  and  C_9
REMARK    5  A    between atoms: C_9  and  N_10
REMARK    6  A    between atoms: C_11  and  C_13
REMARK                            x       y       z     vdW  Elec       q    Type
REMARK                         _______ _______ _______ _____ _____    ______ ____
ROOT
ATOM      1  C   UNL     1      46.452   6.216  13.116  0.00  0.00    +0.000 A 
ATOM      2  C   UNL     1      46.751   5.142  13.953  0.00  0.00    +0.000 A 
ATOM      3  C   UNL     1      47.654   5.329  14.999  0.00  0.00    +0.000 A 
ATOM      4  C   UNL     1      48.266   6.571  15.178  0.00  0.00    +0.000 A 
ATOM      5  C   UNL     1      47.913   7.582  14.291  0.00  0.00    +0.000 A 
ATOM      6  N   UNL     1      47.035   7.433  13.269  0.00  0.00    +0.000 NA
ENDROOT
BRANCH   1   7
ATOM      7  C   UNL     1      45.439   6.053  12.008  0.00  0.00    +0.000 C 
BRANCH   7  10
ATOM      8  O   UNL     1      43.702   4.739  10.227  0.00  0.00    +0.000 OA
ATOM      9  C   UNL     1      44.911   4.532  10.150  0.00  0.00    +0.000 C 
ATOM     10  N   UNL     1      45.831   5.072  11.020  0.00  0.00    +0.000 N 
ATOM     11  H   UNL     1      46.813   4.968  10.779  0.00  0.00    +0.000 HD
BRANCH   9  12
ATOM     12  C   UNL     1      45.467   3.650   9.073  0.00  0.00    +0.000 A 
ATOM     13  C   UNL     1      45.991   4.229   7.921  0.00  0.00    +0.000 A 
ATOM     14  C   UNL     1      46.481   3.392   6.924  0.00  0.00    +0.000 A 
ATOM     15  C   UNL     1      46.430   2.015   7.110  0.00  0.00    +0.000 A 
ATOM     16  C   UNL     1      45.893   1.526   8.294  0.00  0.00    +0.000 A 
ATOM     17  N   UNL     1      45.411   2.306   9.287  0.00  0.00    +0.000 NA
ENDBRANCH   9  12
ENDBRANCH   7  10
ENDBRANCH   1   7
BRANCH   4  18
ATOM     18  C   UNL     1      49.231   6.819  16.298  0.00  0.00    +0.000 C 
BRANCH  18  19
ATOM     19  N   UNL     1      50.066   5.669  16.544  0.00  0.00    +0.000 N 
ATOM     20  C   UNL     1      49.944   4.937  17.699  0.00  0.00    +0.000 C 
ATOM     21  O   UNL     1      49.096   5.199  18.547  0.00  0.00    +0.000 OA
ATOM     22  H   UNL     1      50.911   5.580  15.989  0.00  0.00    +0.000 HD
BRANCH  20  23
ATOM     23  C   UNL     1      50.837   3.778  17.841  0.00  0.00    +0.000 A 
ATOM     24  C   UNL     1      50.503   2.574  17.236  0.00  0.00    +0.000 A 
ATOM     25  S   UNL     1      51.670   1.350  17.457  0.00  0.00    +0.000 S 
ATOM     26  C   UNL     1      52.638   2.369  18.416  0.00  0.00    +0.000 A 
ATOM     27  N   UNL     1      53.800   1.920  18.960  0.00  0.00    +0.000 NA
ATOM     28  C   UNL     1      54.418   2.787  19.688  0.00  0.00    +0.000 A 
ATOM     29  N   UNL     1      53.982   4.068  19.917  0.00  0.00    +0.000 N 
ATOM     30  C   UNL     1      52.830   4.573  19.365  0.00  0.00    +0.000 A 
ATOM     31  O   UNL     1      52.488   5.736  19.556  0.00  0.00    +0.000 OA
ATOM     32  C   UNL     1      52.089   3.632  18.548  0.00  0.00    +0.000 A 
ATOM     33  H   UNL     1      54.519   4.700  20.492  0.00  0.00    +0.000 HD
ENDBRANCH  20  23
ENDBRANCH  18  19
ENDBRANCH   4  18
TORSDOF 6
ENDMDL
MODEL 9
REMARK VINA RESULT:    -6.260      5.756      8.291
REMARK INTER + INTRA:          -9.479
REMARK INTER:                  -8.608
REMARK INTRA:                  -0.871
REMARK UNBOUND:                -1.023
REMARK  Name = 
REMARK  6 active torsions:
REMARK  status: ('A' for Active; 'I' for Inactive)
REMARK    1  A    between atoms: C_2  and  C_25
REMARK    2  A    between atoms: N_3  and  C_4
REMARK    3  A    between atoms: C_4  and  C_5
REMARK    4  A    between atoms: C_8  and  C_9
REMARK    5  A    between atoms: C_9  and  N_10
REMARK    6  A    between atoms: C_11  and  C_13
REMARK                            x       y       z     vdW  Elec       q    Type
REMARK                         _______ _______ _______ _____ _____    ______ ____
ROOT
ATOM      1  C   UNL     1      49.052   7.428  13.628  0.00  0.00    +0.000 A 
ATOM      2  C   UNL     1      48.724   7.875  12.349  0.00  0.00    +0.000 A 
ATOM      3  C   UNL     1      49.659   8.621  11.632  0.00  0.00    +0.000 A 
ATOM      4  C   UNL     1      50.891   8.933  12.208  0.00  0.00    +0.000 A 
ATOM      5  C   UNL     1      51.129   8.451  13.491  0.00  0.00    +0.000 A 
ATOM      6  N   UNL     1      50.243   7.720  14.210  0.00  0.00    +0.000 NA
ENDROOT
BRANCH   1   7
ATOM      7  C   UNL     1      48.076   6.576  14.405  0.00  0.00    +0.000 C 
BRANCH   7  10
ATOM      8  O   UNL     1      47.439   3.916  13.744  0.00  0.00    +0.000 OA
ATOM      9  C   UNL     1      46.679   4.819  13.402  0.00  0.00    +0.000 C 
ATOM     10  N   UNL     1      46.939   6.153  13.617  0.00  0.00    +0.000 N 
ATOM     11  H   UNL     1      46.181   6.808  13.440  0.00  0.00    +0.000 HD
BRANCH   9  12
ATOM     12  C   UNL     1      45.388   4.507  12.707  0.00  0.00    +0.000 A 
ATOM     13  C   UNL     1      44.832   5.450  11.848  0.00  0.00    +0.000 A 
ATOM     14  C   UNL     1      43.622   5.151  11.231  0.00  0.00    +0.000 A 
ATOM     15  C   UNL     1      43.013   3.928  11.491  0.00  0.00    +0.000 A 
ATOM     16  C   UNL     1      43.643   3.046  12.359  0.00  0.00    +0.000 A 
ATOM     17  N   UNL     1      44.820   3.298  12.975  0.00  0.00    +0.000 NA
ENDBRANCH   9  12
ENDBRANCH   7  10
ENDBRANCH   1   7
BRANCH   4  18
ATOM     18  C   UNL     1      51.931   9.719  11.466  0.00  0.00    +0.000 C 
BRANCH  18  19
ATOM     19  N   UNL     1      52.147   9.195  10.141  0.00  0.00    +0.000 N 
ATOM     20  C   UNL     1      53.352   8.643   9.783  0.00  0.00    +0.000 C 
ATOM     21  O   UNL     1      54.277   8.530  10.582  0.00  0.00    +0.000 OA
ATOM     22  H   UNL     1      51.502   9.488   9.413  0.00  0.00    +0.000 HD
BRANCH  20  23
ATOM     23  C   UNL     1      53.459   8.129   8.410  0.00  0.00    +0.000 A 
ATOM     24  C   UNL     1      53.397   9.011   7.339  0.00  0.00    +0.000 A 
ATOM     25  S   UNL     1      53.589   8.258   5.820  0.00  0.00    +0.000 S 
ATOM     26  C   UNL     1      53.708   6.719   6.536  0.00  0.00    +0.000 A 
ATOM     27  N   UNL     1      53.860   5.604   5.774  0.00  0.00    +0.000 NA
ATOM     28  C   UNL     1      53.907   4.502   6.445  0.00  0.00    +0.000 A 
ATOM     29  N   UNL     1      53.820   4.415   7.811  0.00  0.00    +0.000 N 
ATOM     30  C   UNL     1      53.695   5.517   8.622  0.00  0.00    +0.000 A 
ATOM     31  O   UNL     1      53.661   5.409   9.844  0.00  0.00    +0.000 OA
ATOM     32  C   UNL     1      53.624   6.781   7.916  0.00  0.00    +0.000 A 
ATOM     33  H   UNL     1      53.872   3.519   8.275  0.00  0.00    +0.000 HD
ENDBRANCH  20  23
ENDBRANCH  18  19
ENDBRANCH   4  18
TORSDOF 6
ENDMDL
