MODEL 1
REMARK VINA RESULT:    -8.258      0.000      0.000
REMARK INTER + INTRA:         -13.369
REMARK INTER:                 -11.879
REMARK INTRA:                  -1.490
REMARK UNBOUND:                -1.490
REMARK  Name = 
REMARK  9 active torsions:
REMARK  status: ('A' for Active; 'I' for Inactive)
REMARK    1  A    between atoms: C_1  and  N_2
REMARK    2  A    between atoms: N_2  and  C_3
REMARK    3  A    between atoms: C_3  and  C_4
REMARK    4  A    between atoms: C_7  and  C_8
REMARK    5  A    between atoms: C_8  and  O_9
REMARK    6  A    between atoms: C_8  and  C_10
REMARK    7  A    between atoms: C_10  and  N_11
REMARK    8  A    between atoms: C_12  and  C_14
REMARK    9  A    between atoms: C_22  and  C_24
REMARK                            x       y       z     vdW  Elec       q    Type
REMARK                         _______ _______ _______ _____ _____    ______ ____
ROOT
ATOM      1  C   UNL     1      47.510   6.039  13.762  0.00  0.00    +0.000 A 
ATOM      2  C   UNL     1      47.157   4.682  13.756  0.00  0.00    +0.000 A 
ATOM      3  C   UNL     1      45.941   4.271  13.210  0.00  0.00    +0.000 A 
ATOM      4  C   UNL     1      45.046   5.206  12.669  0.00  0.00    +0.000 A 
ATOM      5  C   UNL     1      45.448   6.550  12.598  0.00  0.00    +0.000 A 
ATOM      6  C   UNL     1      46.668   6.962  13.137  0.00  0.00    +0.000 A 
ENDROOT
BRANCH   1   7
ATOM      7  C   UNL     1      48.737   6.507  14.497  0.00  0.00    +0.000 C 
BRANCH   7   9
ATOM      8  C   UNL     1      48.630   8.807  15.559  0.00  0.00    +0.000 C 
ATOM      9  N   UNL     1      48.584   7.354  15.677  0.00  0.00    +0.000 N 
ATOM     10  C   UNL     1      48.433   6.849  16.985  0.00  0.00    +0.000 C 
ATOM     11  O   UNL     1      48.322   7.615  17.941  0.00  0.00    +0.000 OA
BRANCH  10  12
ATOM     12  C   UNL     1      48.435   5.394  17.226  0.00  0.00    +0.000 A 
ATOM     13  C   UNL     1      47.317   4.575  17.186  0.00  0.00    +0.000 A 
ATOM     14  S   UNL     1      47.650   2.924  17.456  0.00  0.00    +0.000 S 
ATOM     15  C   UNL     1      49.322   3.218  17.476  0.00  0.00    +0.000 A 
ATOM     16  N   UNL     1      50.203   2.191  17.563  0.00  0.00    +0.000 NA
ATOM     17  C   UNL     1      51.442   2.549  17.492  0.00  0.00    +0.000 A 
ATOM     18  N   UNL     1      51.873   3.844  17.389  0.00  0.00    +0.000 N 
ATOM     19  C   UNL     1      51.027   4.931  17.439  0.00  0.00    +0.000 A 
ATOM     20  O   UNL     1      51.452   6.066  17.599  0.00  0.00    +0.000 OA
ATOM     21  C   UNL     1      49.614   4.567  17.390  0.00  0.00    +0.000 A 
ATOM     22  H   UNL     1      52.858   4.064  17.412  0.00  0.00    +0.000 HD
ENDBRANCH  10  12
ENDBRANCH   7   9
ENDBRANCH   1   7
BRANCH   4  23
ATOM     23  C   UNL     1      43.694   4.731  12.161  0.00  0.00    +0.000 C 
BRANCH  23  24
ATOM     24  O   UNL     1      43.631   3.305  12.289  0.00  0.00    +0.000 OA
ATOM     25  H   UNL     1      43.326   2.950  11.438  0.00  0.00    +0.000 HD
ENDBRANCH  23  24
BRANCH  23  26
ATOM     26  C   UNL     1      43.401   5.112  10.694  0.00  0.00    +0.000 C 
BRANCH  26  27
ATOM     27  N   UNL     1      43.997   4.200   9.737  0.00  0.00    +0.000 N 
ATOM     28  C   UNL     1      45.134   4.503   9.025  0.00  0.00    +0.000 C 
ATOM     29  O   UNL     1      45.743   5.559   9.157  0.00  0.00    +0.000 OA
ATOM     30  H   UNL     1      43.476   3.385   9.423  0.00  0.00    +0.000 HD
BRANCH  28  31
ATOM     31  C   UNL     1      45.572   3.420   8.015  0.00  0.00    +0.000 C 
ATOM     32  C   UNL     1      45.948   2.131   8.751  0.00  0.00    +0.000 C 
ATOM     33  C   UNL     1      46.449   1.062   7.781  0.00  0.00    +0.000 C 
ATOM     34  C   UNL     1      47.548   1.616   6.879  0.00  0.00    +0.000 C 
ATOM     35  C   UNL     1      47.111   2.916   6.209  0.00  0.00    +0.000 C 
ATOM     36  N   UNL     1      46.719   3.914   7.206  0.00  0.00    +0.000 NA
ATOM     37  H   UNL     1      46.418   4.762   6.721  0.00  0.00    +0.000 HD
ENDBRANCH  28  31
ENDBRANCH  26  27
ENDBRANCH  23  26
ENDBRANCH   4  23
TORSDOF 8
ENDMDL
MODEL 2
REMARK VINA RESULT:    -8.257      2.307      3.201
REMARK INTER + INTRA:         -13.367
REMARK INTER:                 -11.836
REMARK INTRA:                  -1.531
REMARK UNBOUND:                -1.490
REMARK  Name = 
REMARK  9 active torsions:
REMARK  status: ('A' for Active; 'I' for Inactive)
REMARK    1  A    between atoms: C_1  and  N_2
REMARK    2  A    between atoms: N_2  and  C_3
REMARK    3  A    between atoms: C_3  and  C_4
REMARK    4  A    between atoms: C_7  and  C_8
REMARK    5  A    between atoms: C_8  and  O_9
REMARK    6  A    between atoms: C_8  and  C_10
REMARK    7  A    between atoms: C_10  and  N_11
REMARK    8  A    between atoms: C_12  and  C_14
REMARK    9  A    between atoms: C_22  and  C_24
REMARK                            x       y       z     vdW  Elec       q    Type
REMARK                         _______ _______ _______ _____ _____    ______ ____
ROOT
ATOM      1  C   UNL     1      46.751   7.133  13.248  0.00  0.00    +0.000 A 
ATOM      2  C   UNL     1      45.479   7.307  12.686  0.00  0.00    +0.000 A 
ATOM      3  C   UNL     1      44.666   6.204  12.422  0.00  0.00    +0.000 A 
ATOM      4  C   UNL     1      45.111   4.903  12.703  0.00  0.00    +0.000 A 
ATOM      5  C   UNL     1      46.348   4.747  13.349  0.00  0.00    +0.000 A 
ATOM      6  C   UNL     1      47.159   5.850  13.620  0.00  0.00    +0.000 A 
ENDROOT
BRANCH   1   7
ATOM      7  C   UNL     1      47.696   8.297  13.379  0.00  0.00    +0.000 C 
BRANCH   7   9
ATOM      8  C   UNL     1      49.817   7.564  12.200  0.00  0.00    +0.000 C 
ATOM      9  N   UNL     1      49.135   8.052  13.393  0.00  0.00    +0.000 N 
ATOM     10  C   UNL     1      49.943   8.216  14.537  0.00  0.00    +0.000 C 
ATOM     11  O   UNL     1      51.150   7.980  14.489  0.00  0.00    +0.000 OA
BRANCH  10  12
ATOM     12  C   UNL     1      49.346   8.646  15.815  0.00  0.00    +0.000 A 
ATOM     13  C   UNL     1      49.079   9.959  16.172  0.00  0.00    +0.000 A 
ATOM     14  S   UNL     1      48.335  10.132  17.697  0.00  0.00    +0.000 S 
ATOM     15  C   UNL     1      48.193   8.448  17.869  0.00  0.00    +0.000 A 
ATOM     16  N   UNL     1      47.535   7.915  18.928  0.00  0.00    +0.000 NA
ATOM     17  C   UNL     1      47.436   6.628  18.895  0.00  0.00    +0.000 A 
ATOM     18  N   UNL     1      47.977   5.830  17.923  0.00  0.00    +0.000 N 
ATOM     19  C   UNL     1      48.772   6.309  16.905  0.00  0.00    +0.000 A 
ATOM     20  O   UNL     1      49.441   5.559  16.208  0.00  0.00    +0.000 OA
ATOM     21  C   UNL     1      48.803   7.767  16.832  0.00  0.00    +0.000 A 
ATOM     22  H   UNL     1      47.927   4.825  17.994  0.00  0.00    +0.000 HD
ENDBRANCH  10  12
ENDBRANCH   7   9
ENDBRANCH   1   7
BRANCH   4  23
ATOM     23  C   UNL     1      44.234   3.722  12.323  0.00  0.00    +0.000 C 
BRANCH  23  24
ATOM     24  O   UNL     1      45.053   2.548  12.245  0.00  0.00    +0.000 OA
ATOM     25  H   UNL     1      44.484   1.815  11.956  0.00  0.00    +0.000 HD
ENDBRANCH  23  24
BRANCH  23  26
ATOM     26  C   UNL     1      43.486   3.896  10.984  0.00  0.00    +0.000 C 
BRANCH  26  27
ATOM     27  N   UNL     1      44.168   3.278   9.864  0.00  0.00    +0.000 N 
ATOM     28  C   UNL     1      44.956   3.986   8.986  0.00  0.00    +0.000 C 
ATOM     29  O   UNL     1      45.158   5.192   9.094  0.00  0.00    +0.000 OA
ATOM     30  H   UNL     1      43.923   2.332   9.582  0.00  0.00    +0.000 HD
BRANCH  28  31
ATOM     31  C   UNL     1      45.544   3.153   7.828  0.00  0.00    +0.000 C 
ATOM     32  C   UNL     1      46.213   1.887   8.374  0.00  0.00    +0.000 C 
ATOM     33  C   UNL     1      46.863   1.075   7.255  0.00  0.00    +0.000 C 
ATOM     34  C   UNL     1      47.776   1.952   6.404  0.00  0.00    +0.000 C 
ATOM     35  C   UNL     1      47.049   3.207   5.927  0.00  0.00    +0.000 C 
ATOM     36  N   UNL     1      46.522   3.970   7.059  0.00  0.00    +0.000 NA
ATOM     37  H   UNL     1      46.030   4.791   6.702  0.00  0.00    +0.000 HD
ENDBRANCH  28  31
ENDBRANCH  26  27
ENDBRANCH  23  26
ENDBRANCH   4  23
TORSDOF 8
ENDMDL
MODEL 3
REMARK VINA RESULT:    -7.558      1.713      2.303
REMARK INTER + INTRA:         -12.362
REMARK INTER:                 -11.160
REMARK INTRA:                  -1.202
REMARK UNBOUND:                -1.490
REMARK  Name = 
REMARK  9 active torsions:
REMARK  status: ('A' for Active; 'I' for Inactive)
REMARK    1  A    between atoms: C_1  and  N_2
REMARK    2  A    between atoms: N_2  and  C_3
REMARK    3  A    between atoms: C_3  and  C_4
REMARK    4  A    between atoms: C_7  and  C_8
REMARK    5  A    between atoms: C_8  and  O_9
REMARK    6  A    between atoms: C_8  and  C_10
REMARK    7  A    between atoms: C_10  and  N_11
REMARK    8  A    between atoms: C_12  and  C_14
REMARK    9  A    between atoms: C_22  and  C_24
REMARK                            x       y       z     vdW  Elec       q    Type
REMARK                         _______ _______ _______ _____ _____    ______ ____
ROOT
ATOM      1  C   UNL     1      48.509   7.332  13.743  0.00  0.00    +0.000 A 
ATOM      2  C   UNL     1      47.770   6.141  13.720  0.00  0.00    +0.000 A 
ATOM      3  C   UNL     1      46.702   5.990  12.835  0.00  0.00    +0.000 A 
ATOM      4  C   UNL     1      46.343   7.027  11.961  0.00  0.00    +0.000 A 
ATOM      5  C   UNL     1      47.146   8.179  11.929  0.00  0.00    +0.000 A 
ATOM      6  C   UNL     1      48.219   8.329  12.809  0.00  0.00    +0.000 A 
ENDROOT
BRANCH   1   7
ATOM      7  C   UNL     1      49.549   7.567  14.805  0.00  0.00    +0.000 C 
BRANCH   7   9
ATOM      8  C   UNL     1      48.262   9.212  16.243  0.00  0.00    +0.000 C 
ATOM      9  N   UNL     1      49.132   8.048  16.120  0.00  0.00    +0.000 N 
ATOM     10  C   UNL     1      49.563   7.473  17.333  0.00  0.00    +0.000 C 
ATOM     11  O   UNL     1      49.187   7.932  18.410  0.00  0.00    +0.000 OA
BRANCH  10  12
ATOM     12  C   UNL     1      50.495   6.329  17.325  0.00  0.00    +0.000 A 
ATOM     13  C   UNL     1      51.863   6.411  17.532  0.00  0.00    +0.000 A 
ATOM     14  S   UNL     1      52.663   4.905  17.515  0.00  0.00    +0.000 S 
ATOM     15  C   UNL     1      51.189   4.071  17.392  0.00  0.00    +0.000 A 
ATOM     16  N   UNL     1      51.156   2.716  17.439  0.00  0.00    +0.000 NA
ATOM     17  C   UNL     1      49.965   2.216  17.411  0.00  0.00    +0.000 A 
ATOM     18  N   UNL     1      48.815   2.949  17.293  0.00  0.00    +0.000 N 
ATOM     19  C   UNL     1      48.802   4.313  17.100  0.00  0.00    +0.000 A 
ATOM     20  O   UNL     1      47.789   4.900  16.749  0.00  0.00    +0.000 OA
ATOM     21  C   UNL     1      50.116   4.932  17.254  0.00  0.00    +0.000 A 
ATOM     22  H   UNL     1      47.920   2.493  17.203  0.00  0.00    +0.000 HD
ENDBRANCH  10  12
ENDBRANCH   7   9
ENDBRANCH   1   7
BRANCH   4  23
ATOM     23  C   UNL     1      45.122   6.858  11.072  0.00  0.00    +0.000 C 
BRANCH  23  24
ATOM     24  O   UNL     1      44.056   7.657  11.600  0.00  0.00    +0.000 OA
ATOM     25  H   UNL     1      44.265   8.586  11.406  0.00  0.00    +0.000 HD
ENDBRANCH  23  24
BRANCH  23  26
ATOM     26  C   UNL     1      44.634   5.400  10.941  0.00  0.00    +0.000 C 
BRANCH  26  27
ATOM     27  N   UNL     1      45.105   4.746   9.735  0.00  0.00    +0.000 N 
ATOM     28  C   UNL     1      44.682   3.495   9.350  0.00  0.00    +0.000 C 
ATOM     29  O   UNL     1      43.861   2.843   9.985  0.00  0.00    +0.000 OA
ATOM     30  H   UNL     1      45.912   5.118   9.241  0.00  0.00    +0.000 HD
BRANCH  28  31
ATOM     31  C   UNL     1      45.348   2.955   8.066  0.00  0.00    +0.000 C 
ATOM     32  C   UNL     1      46.172   1.703   8.384  0.00  0.00    +0.000 C 
ATOM     33  C   UNL     1      46.897   1.184   7.143  0.00  0.00    +0.000 C 
ATOM     34  C   UNL     1      47.685   2.301   6.465  0.00  0.00    +0.000 C 
ATOM     35  C   UNL     1      46.807   3.523   6.213  0.00  0.00    +0.000 C 
ATOM     36  N   UNL     1      46.209   4.007   7.459  0.00  0.00    +0.000 NA
ATOM     37  H   UNL     1      45.617   4.813   7.249  0.00  0.00    +0.000 HD
ENDBRANCH  28  31
ENDBRANCH  26  27
ENDBRANCH  23  26
ENDBRANCH   4  23
TORSDOF 8
ENDMDL
MODEL 4
REMARK VINA RESULT:    -7.552      2.717      3.580
REMARK INTER + INTRA:         -12.353
REMARK INTER:                 -11.223
REMARK INTRA:                  -1.130
REMARK UNBOUND:                -1.490
REMARK  Name = 
REMARK  9 active torsions:
REMARK  status: ('A' for Active; 'I' for Inactive)
REMARK    1  A    between atoms: C_1  and  N_2
REMARK    2  A    between atoms: N_2  and  C_3
REMARK    3  A    between atoms: C_3  and  C_4
REMARK    4  A    between atoms: C_7  and  C_8
REMARK    5  A    between atoms: C_8  and  O_9
REMARK    6  A    between atoms: C_8  and  C_10
REMARK    7  A    between atoms: C_10  and  N_11
REMARK    8  A    between atoms: C_12  and  C_14
REMARK    9  A    between atoms: C_22  and  C_24
REMARK                            x       y       z     vdW  Elec       q    Type
REMARK                         _______ _______ _______ _____ _____    ______ ____
ROOT
ATOM      1  C   UNL     1      47.712   6.709  12.635  0.00  0.00    +0.000 A 
ATOM      2  C   UNL     1      46.882   7.423  11.759  0.00  0.00    +0.000 A 
ATOM      3  C   UNL     1      45.536   7.078  11.623  0.00  0.00    +0.000 A 
ATOM      4  C   UNL     1      44.994   6.008  12.350  0.00  0.00    +0.000 A 
ATOM      5  C   UNL     1      45.811   5.359  13.291  0.00  0.00    +0.000 A 
ATOM      6  C   UNL     1      47.155   5.707  13.433  0.00  0.00    +0.000 A 
ENDROOT
BRANCH   1   7
ATOM      7  C   UNL     1      49.195   6.964  12.661  0.00  0.00    +0.000 C 
BRANCH   7   9
ATOM      8  C   UNL     1      49.545   9.203  11.525  0.00  0.00    +0.000 C 
ATOM      9  N   UNL     1      49.684   8.340  12.693  0.00  0.00    +0.000 N 
ATOM     10  C   UNL     1      50.348   8.906  13.800  0.00  0.00    +0.000 C 
ATOM     11  O   UNL     1      50.749  10.069  13.760  0.00  0.00    +0.000 OA
BRANCH  10  12
ATOM     12  C   UNL     1      50.597   8.101  15.010  0.00  0.00    +0.000 A 
ATOM     13  C   UNL     1      51.790   7.464  15.316  0.00  0.00    +0.000 A 
ATOM     14  S   UNL     1      51.783   6.653  16.817  0.00  0.00    +0.000 S 
ATOM     15  C   UNL     1      50.242   7.258  17.189  0.00  0.00    +0.000 A 
ATOM     16  N   UNL     1      49.683   7.026  18.403  0.00  0.00    +0.000 NA
ATOM     17  C   UNL     1      48.543   7.606  18.580  0.00  0.00    +0.000 A 
ATOM     18  N   UNL     1      47.896   8.356  17.635  0.00  0.00    +0.000 N 
ATOM     19  C   UNL     1      48.352   8.506  16.343  0.00  0.00    +0.000 A 
ATOM     20  O   UNL     1      47.639   8.962  15.461  0.00  0.00    +0.000 OA
ATOM     21  C   UNL     1      49.697   7.974  16.139  0.00  0.00    +0.000 A 
ATOM     22  H   UNL     1      46.972   8.723  17.810  0.00  0.00    +0.000 HD
ENDBRANCH  10  12
ENDBRANCH   7   9
ENDBRANCH   1   7
BRANCH   4  23
ATOM     23  C   UNL     1      43.547   5.607  12.112  0.00  0.00    +0.000 C 
BRANCH  23  24
ATOM     24  O   UNL     1      42.864   5.587  13.372  0.00  0.00    +0.000 OA
ATOM     25  H   UNL     1      42.009   5.146  13.231  0.00  0.00    +0.000 HD
ENDBRANCH  23  24
BRANCH  23  26
ATOM     26  C   UNL     1      43.377   4.233  11.431  0.00  0.00    +0.000 C 
BRANCH  26  27
ATOM     27  N   UNL     1      44.416   3.943  10.462  0.00  0.00    +0.000 N 
ATOM     28  C   UNL     1      44.512   2.736   9.809  0.00  0.00    +0.000 C 
ATOM     29  O   UNL     1      43.716   1.819   9.980  0.00  0.00    +0.000 OA
ATOM     30  H   UNL     1      45.221   4.559  10.385  0.00  0.00    +0.000 HD
BRANCH  28  31
ATOM     31  C   UNL     1      45.725   2.609   8.862  0.00  0.00    +0.000 C 
ATOM     32  C   UNL     1      45.559   3.545   7.661  0.00  0.00    +0.000 C 
ATOM     33  C   UNL     1      46.713   3.391   6.672  0.00  0.00    +0.000 C 
ATOM     34  C   UNL     1      46.925   1.925   6.304  0.00  0.00    +0.000 C 
ATOM     35  C   UNL     1      47.047   1.054   7.551  0.00  0.00    +0.000 C 
ATOM     36  N   UNL     1      45.870   1.198   8.410  0.00  0.00    +0.000 NA
ATOM     37  H   UNL     1      45.994   0.615   9.239  0.00  0.00    +0.000 HD
ENDBRANCH  28  31
ENDBRANCH  26  27
ENDBRANCH  23  26
ENDBRANCH   4  23
TORSDOF 8
ENDMDL
MODEL 5
REMARK VINA RESULT:    -7.510      3.058      4.255
REMARK INTER + INTRA:         -12.293
REMARK INTER:                 -10.688
REMARK INTRA:                  -1.605
REMARK UNBOUND:                -1.490
REMARK  Name = 
REMARK  9 active torsions:
REMARK  status: ('A' for Active; 'I' for Inactive)
REMARK    1  A    between atoms: C_1  and  N_2
REMARK    2  A    between atoms: N_2  and  C_3
REMARK    3  A    between atoms: C_3  and  C_4
REMARK    4  A    between atoms: C_7  and  C_8
REMARK    5  A    between atoms: C_8  and  O_9
REMARK    6  A    between atoms: C_8  and  C_10
REMARK    7  A    between atoms: C_10  and  N_11
REMARK    8  A    between atoms: C_12  and  C_14
REMARK    9  A    between atoms: C_22  and  C_24
REMARK                            x       y       z     vdW  Elec       q    Type
REMARK                         _______ _______ _______ _____ _____    ______ ____
ROOT
ATOM      1  C   UNL     1      47.987   8.308  12.230  0.00  0.00    +0.000 A 
ATOM      2  C   UNL     1      46.742   8.897  12.493  0.00  0.00    +0.000 A 
ATOM      3  C   UNL     1      45.617   8.102  12.715  0.00  0.00    +0.000 A 
ATOM      4  C   UNL     1      45.708   6.703  12.670  0.00  0.00    +0.000 A 
ATOM      5  C   UNL     1      46.975   6.123  12.496  0.00  0.00    +0.000 A 
ATOM      6  C   UNL     1      48.103   6.916  12.281  0.00  0.00    +0.000 A 
ENDROOT
BRANCH   1   7
ATOM      7  C   UNL     1      49.163   9.153  11.823  0.00  0.00    +0.000 C 
BRANCH   7   9
ATOM      8  C   UNL     1      51.224   7.882  11.071  0.00  0.00    +0.000 C 
ATOM      9  N   UNL     1      50.516   8.665  12.077  0.00  0.00    +0.000 N 
ATOM     10  C   UNL     1      51.202   8.865  13.293  0.00  0.00    +0.000 C 
ATOM     11  O   UNL     1      52.337   8.418  13.451  0.00  0.00    +0.000 OA
BRANCH  10  12
ATOM     12  C   UNL     1      50.555   9.591  14.402  0.00  0.00    +0.000 A 
ATOM     13  C   UNL     1      50.468  10.970  14.512  0.00  0.00    +0.000 A 
ATOM     14  S   UNL     1      49.610  11.508  15.885  0.00  0.00    +0.000 S 
ATOM     15  C   UNL     1      49.184   9.918  16.299  0.00  0.00    +0.000 A 
ATOM     16  N   UNL     1      48.346   9.675  17.338  0.00  0.00    +0.000 NA
ATOM     17  C   UNL     1      48.047   8.429  17.495  0.00  0.00    +0.000 A 
ATOM     18  N   UNL     1      48.548   7.406  16.735  0.00  0.00    +0.000 N 
ATOM     19  C   UNL     1      49.509   7.583  15.763  0.00  0.00    +0.000 A 
ATOM     20  O   UNL     1      50.116   6.637  15.283  0.00  0.00    +0.000 OA
ATOM     21  C   UNL     1      49.779   8.987  15.467  0.00  0.00    +0.000 A 
ATOM     22  H   UNL     1      48.332   6.445  16.957  0.00  0.00    +0.000 HD
ENDBRANCH  10  12
ENDBRANCH   7   9
ENDBRANCH   1   7
BRANCH   4  23
ATOM     23  C   UNL     1      44.446   5.872  12.832  0.00  0.00    +0.000 C 
BRANCH  23  24
ATOM     24  O   UNL     1      44.820   4.514  13.095  0.00  0.00    +0.000 OA
ATOM     25  H   UNL     1      44.556   4.312  14.008  0.00  0.00    +0.000 HD
ENDBRANCH  23  24
BRANCH  23  26
ATOM     26  C   UNL     1      43.509   5.902  11.606  0.00  0.00    +0.000 C 
BRANCH  26  27
ATOM     27  N   UNL     1      44.073   5.249  10.440  0.00  0.00    +0.000 N 
ATOM     28  C   UNL     1      43.900   3.910  10.177  0.00  0.00    +0.000 C 
ATOM     29  O   UNL     1      43.241   3.168  10.898  0.00  0.00    +0.000 OA
ATOM     30  H   UNL     1      44.778   5.727   9.885  0.00  0.00    +0.000 HD
BRANCH  28  31
ATOM     31  C   UNL     1      44.631   3.400   8.917  0.00  0.00    +0.000 C 
ATOM     32  C   UNL     1      45.334   2.071   9.215  0.00  0.00    +0.000 C 
ATOM     33  C   UNL     1      46.122   1.576   8.004  0.00  0.00    +0.000 C 
ATOM     34  C   UNL     1      47.042   2.668   7.466  0.00  0.00    +0.000 C 
ATOM     35  C   UNL     1      46.276   3.967   7.227  0.00  0.00    +0.000 C 
ATOM     36  N   UNL     1      45.612   4.418   8.452  0.00  0.00    +0.000 NA
ATOM     37  H   UNL     1      45.099   5.278   8.250  0.00  0.00    +0.000 HD
ENDBRANCH  28  31
ENDBRANCH  26  27
ENDBRANCH  23  26
ENDBRANCH   4  23
TORSDOF 8
ENDMDL
MODEL 6
REMARK VINA RESULT:    -7.482      2.422      2.937
REMARK INTER + INTRA:         -12.253
REMARK INTER:                 -11.147
REMARK INTRA:                  -1.106
REMARK UNBOUND:                -1.490
REMARK  Name = 
REMARK  9 active torsions:
REMARK  status: ('A' for Active; 'I' for Inactive)
REMARK    1  A    between atoms: C_1  and  N_2
REMARK    2  A    between atoms: N_2  and  C_3
REMARK    3  A    between atoms: C_3  and  C_4
REMARK    4  A    between atoms: C_7  and  C_8
REMARK    5  A    between atoms: C_8  and  O_9
REMARK    6  A    between atoms: C_8  and  C_10
REMARK    7  A    between atoms: C_10  and  N_11
REMARK    8  A    between atoms: C_12  and  C_14
REMARK    9  A    between atoms: C_22  and  C_24
REMARK                            x       y       z     vdW  Elec       q    Type
REMARK                         _______ _______ _______ _____ _____    ______ ____
ROOT
ATOM      1  C   UNL     1      47.568   6.685  12.823  0.00  0.00    +0.000 A 
ATOM      2  C   UNL     1      46.722   7.475  12.032  0.00  0.00    +0.000 A 
ATOM      3  C   UNL     1      45.386   7.115  11.850  0.00  0.00    +0.000 A 
ATOM      4  C   UNL     1      44.870   5.954  12.444  0.00  0.00    +0.000 A 
ATOM      5  C   UNL     1      45.701   5.220  13.306  0.00  0.00    +0.000 A 
ATOM      6  C   UNL     1      47.035   5.582  13.495  0.00  0.00    +0.000 A 
ENDROOT
BRANCH   1   7
ATOM      7  C   UNL     1      49.044   6.971  12.887  0.00  0.00    +0.000 C 
BRANCH   7   9
ATOM      8  C   UNL     1      49.685   9.142  11.746  0.00  0.00    +0.000 C 
ATOM      9  N   UNL     1      49.501   8.356  12.960  0.00  0.00    +0.000 N 
ATOM     10  C   UNL     1      49.834   9.005  14.167  0.00  0.00    +0.000 C 
ATOM     11  O   UNL     1      50.226  10.171  14.163  0.00  0.00    +0.000 OA
BRANCH  10  12
ATOM     12  C   UNL     1      49.744   8.282  15.450  0.00  0.00    +0.000 A 
ATOM     13  C   UNL     1      48.591   8.140  16.208  0.00  0.00    +0.000 A 
ATOM     14  S   UNL     1      48.795   7.203  17.619  0.00  0.00    +0.000 S 
ATOM     15  C   UNL     1      50.391   6.816  17.187  0.00  0.00    +0.000 A 
ATOM     16  N   UNL     1      51.115   5.942  17.929  0.00  0.00    +0.000 NA
ATOM     17  C   UNL     1      52.284   5.681  17.446  0.00  0.00    +0.000 A 
ATOM     18  N   UNL     1      52.805   6.252  16.317  0.00  0.00    +0.000 N 
ATOM     19  C   UNL     1      52.170   7.249  15.608  0.00  0.00    +0.000 A 
ATOM     20  O   UNL     1      52.758   7.911  14.766  0.00  0.00    +0.000 OA
ATOM     21  C   UNL     1      50.796   7.482  16.044  0.00  0.00    +0.000 A 
ATOM     22  H   UNL     1      53.755   6.061  16.033  0.00  0.00    +0.000 HD
ENDBRANCH  10  12
ENDBRANCH   7   9
ENDBRANCH   1   7
BRANCH   4  23
ATOM     23  C   UNL     1      43.434   5.548  12.153  0.00  0.00    +0.000 C 
BRANCH  23  24
ATOM     24  O   UNL     1      42.712   5.495  13.390  0.00  0.00    +0.000 OA
ATOM     25  H   UNL     1      41.839   5.891  13.234  0.00  0.00    +0.000 HD
ENDBRANCH  23  24
BRANCH  23  26
ATOM     26  C   UNL     1      43.295   4.188  11.437  0.00  0.00    +0.000 C 
BRANCH  26  27
ATOM     27  N   UNL     1      44.343   3.945  10.465  0.00  0.00    +0.000 N 
ATOM     28  C   UNL     1      44.497   2.740   9.818  0.00  0.00    +0.000 C 
ATOM     29  O   UNL     1      43.750   1.785  10.000  0.00  0.00    +0.000 OA
ATOM     30  H   UNL     1      45.115   4.601  10.378  0.00  0.00    +0.000 HD
BRANCH  28  31
ATOM     31  C   UNL     1      45.710   2.669   8.866  0.00  0.00    +0.000 C 
ATOM     32  C   UNL     1      45.500   3.605   7.671  0.00  0.00    +0.000 C 
ATOM     33  C   UNL     1      46.655   3.504   6.676  0.00  0.00    +0.000 C 
ATOM     34  C   UNL     1      46.926   2.051   6.298  0.00  0.00    +0.000 C 
ATOM     35  C   UNL     1      47.089   1.178   7.539  0.00  0.00    +0.000 C 
ATOM     36  N   UNL     1      45.911   1.268   8.404  0.00  0.00    +0.000 NA
ATOM     37  H   UNL     1      46.063   0.685   9.229  0.00  0.00    +0.000 HD
ENDBRANCH  28  31
ENDBRANCH  26  27
ENDBRANCH  23  26
ENDBRANCH   4  23
TORSDOF 8
ENDMDL
MODEL 7
REMARK VINA RESULT:    -7.318      3.265      4.904
REMARK INTER + INTRA:         -12.017
REMARK INTER:                  -9.828
REMARK INTRA:                  -2.189
REMARK UNBOUND:                -1.490
REMARK  Name = 
REMARK  9 active torsions:
REMARK  status: ('A' for Active; 'I' for Inactive)
REMARK    1  A    between atoms: C_1  and  N_2
REMARK    2  A    between atoms: N_2  and  C_3
REMARK    3  A    between atoms: C_3  and  C_4
REMARK    4  A    between atoms: C_7  and  C_8
REMARK    5  A    between atoms: C_8  and  O_9
REMARK    6  A    between atoms: C_8  and  C_10
REMARK    7  A    between atoms: C_10  and  N_11
REMARK    8  A    between atoms: C_12  and  C_14
REMARK    9  A    between atoms: C_22  and  C_24
REMARK                            x       y       z     vdW  Elec       q    Type
REMARK                         _______ _______ _______ _____ _____    ______ ____
ROOT
ATOM      1  C   UNL     1      50.238   7.882  17.388  0.00  0.00    +0.000 A 
ATOM      2  C   UNL     1      50.577   7.235  16.191  0.00  0.00    +0.000 A 
ATOM      3  C   UNL     1      49.875   7.507  15.017  0.00  0.00    +0.000 A 
ATOM      4  C   UNL     1      48.812   8.423  15.014  0.00  0.00    +0.000 A 
ATOM      5  C   UNL     1      48.540   9.132  16.196  0.00  0.00    +0.000 A 
ATOM      6  C   UNL     1      49.246   8.866  17.370  0.00  0.00    +0.000 A 
ENDROOT
BRANCH   1   7
ATOM      7  C   UNL     1      50.875   7.471  18.687  0.00  0.00    +0.000 C 
BRANCH   7   9
ATOM      8  C   UNL     1      49.555   7.854  20.818  0.00  0.00    +0.000 C 
ATOM      9  N   UNL     1      50.034   6.962  19.767  0.00  0.00    +0.000 N 
ATOM     10  C   UNL     1      49.671   5.606  19.901  0.00  0.00    +0.000 C 
ATOM     11  O   UNL     1      48.969   5.237  20.842  0.00  0.00    +0.000 OA
BRANCH  10  12
ATOM     12  C   UNL     1      50.152   4.608  18.928  0.00  0.00    +0.000 A 
ATOM     13  C   UNL     1      51.426   4.060  18.908  0.00  0.00    +0.000 A 
ATOM     14  S   UNL     1      51.664   2.890  17.690  0.00  0.00    +0.000 S 
ATOM     15  C   UNL     1      50.026   2.952  17.247  0.00  0.00    +0.000 A 
ATOM     16  N   UNL     1      49.530   2.101  16.314  0.00  0.00    +0.000 NA
ATOM     17  C   UNL     1      48.256   2.206  16.128  0.00  0.00    +0.000 A 
ATOM     18  N   UNL     1      47.449   3.116  16.757  0.00  0.00    +0.000 N 
ATOM     19  C   UNL     1      47.925   4.093  17.604  0.00  0.00    +0.000 A 
ATOM     20  O   UNL     1      47.228   5.037  17.948  0.00  0.00    +0.000 OA
ATOM     21  C   UNL     1      49.336   3.929  17.940  0.00  0.00    +0.000 A 
ATOM     22  H   UNL     1      46.473   3.196  16.512  0.00  0.00    +0.000 HD
ENDBRANCH  10  12
ENDBRANCH   7   9
ENDBRANCH   1   7
BRANCH   4  23
ATOM     23  C   UNL     1      48.015   8.630  13.737  0.00  0.00    +0.000 C 
BRANCH  23  24
ATOM     24  O   UNL     1      46.659   8.933  14.085  0.00  0.00    +0.000 OA
ATOM     25  H   UNL     1      46.364   8.256  14.718  0.00  0.00    +0.000 HD
ENDBRANCH  23  24
BRANCH  23  26
ATOM     26  C   UNL     1      48.026   7.417  12.783  0.00  0.00    +0.000 C 
BRANCH  26  27
ATOM     27  N   UNL     1      46.784   6.667  12.799  0.00  0.00    +0.000 N 
ATOM     28  C   UNL     1      46.623   5.503  13.513  0.00  0.00    +0.000 C 
ATOM     29  O   UNL     1      47.511   5.018  14.207  0.00  0.00    +0.000 OA
ATOM     30  H   UNL     1      46.056   6.881  12.122  0.00  0.00    +0.000 HD
BRANCH  28  31
ATOM     31  C   UNL     1      45.244   4.829  13.350  0.00  0.00    +0.000 C 
ATOM     32  C   UNL     1      45.326   3.699  12.319  0.00  0.00    +0.000 C 
ATOM     33  C   UNL     1      43.959   3.058  12.087  0.00  0.00    +0.000 C 
ATOM     34  C   UNL     1      42.905   4.116  11.778  0.00  0.00    +0.000 C 
ATOM     35  C   UNL     1      42.908   5.222  12.829  0.00  0.00    +0.000 C 
ATOM     36  N   UNL     1      44.231   5.839  12.939  0.00  0.00    +0.000 NA
ATOM     37  H   UNL     1      44.199   6.562  13.661  0.00  0.00    +0.000 HD
ENDBRANCH  28  31
ENDBRANCH  26  27
ENDBRANCH  23  26
ENDBRANCH   4  23
TORSDOF 8
ENDMDL
MODEL 8
REMARK VINA RESULT:    -6.939      2.162      3.372
REMARK INTER + INTRA:         -11.471
REMARK INTER:                  -9.860
REMARK INTRA:                  -1.610
REMARK UNBOUND:                -1.490
REMARK  Name = 
REMARK  9 active torsions:
REMARK  status: ('A' for Active; 'I' for Inactive)
REMARK    1  A    between atoms: C_1  and  N_2
REMARK    2  A    between atoms: N_2  and  C_3
REMARK    3  A    between atoms: C_3  and  C_4
REMARK    4  A    between atoms: C_7  and  C_8
REMARK    5  A    between atoms: C_8  and  O_9
REMARK    6  A    between atoms: C_8  and  C_10
REMARK    7  A    between atoms: C_10  and  N_11
REMARK    8  A    between atoms: C_12  and  C_14
REMARK    9  A    between atoms: C_22  and  C_24
REMARK                            x       y       z     vdW  Elec       q    Type
REMARK                         _______ _______ _______ _____ _____    ______ ____
ROOT
ATOM      1  C   UNL     1      49.595   7.860  14.115  0.00  0.00    +0.000 A 
ATOM      2  C   UNL     1      49.068   9.044  13.580  0.00  0.00    +0.000 A 
ATOM      3  C   UNL     1      47.787   9.060  13.027  0.00  0.00    +0.000 A 
ATOM      4  C   UNL     1      47.010   7.893  12.987  0.00  0.00    +0.000 A 
ATOM      5  C   UNL     1      47.511   6.737  13.606  0.00  0.00    +0.000 A 
ATOM      6  C   UNL     1      48.789   6.720  14.166  0.00  0.00    +0.000 A 
ENDROOT
BRANCH   1   7
ATOM      7  C   UNL     1      51.032   7.793  14.557  0.00  0.00    +0.000 C 
BRANCH   7   9
ATOM      8  C   UNL     1      52.027   9.876  15.605  0.00  0.00    +0.000 C 
ATOM      9  N   UNL     1      51.452   8.542  15.738  0.00  0.00    +0.000 N 
ATOM     10  C   UNL     1      51.382   8.033  17.051  0.00  0.00    +0.000 C 
ATOM     11  O   UNL     1      51.765   8.709  18.005  0.00  0.00    +0.000 OA
BRANCH  10  12
ATOM     12  C   UNL     1      50.875   6.670  17.294  0.00  0.00    +0.000 A 
ATOM     13  C   UNL     1      51.650   5.521  17.322  0.00  0.00    +0.000 A 
ATOM     14  S   UNL     1      50.779   4.099  17.681  0.00  0.00    +0.000 S 
ATOM     15  C   UNL     1      49.361   4.986  17.971  0.00  0.00    +0.000 A 
ATOM     16  N   UNL     1      48.243   4.371  18.431  0.00  0.00    +0.000 NA
ATOM     17  C   UNL     1      47.262   5.174  18.680  0.00  0.00    +0.000 A 
ATOM     18  N   UNL     1      47.290   6.526  18.465  0.00  0.00    +0.000 N 
ATOM     19  C   UNL     1      48.347   7.178  17.869  0.00  0.00    +0.000 A 
ATOM     20  O   UNL     1      48.244   8.327  17.463  0.00  0.00    +0.000 OA
ATOM     21  C   UNL     1      49.522   6.330  17.690  0.00  0.00    +0.000 A 
ATOM     22  H   UNL     1      46.464   7.088  18.611  0.00  0.00    +0.000 HD
ENDBRANCH  10  12
ENDBRANCH   7   9
ENDBRANCH   1   7
BRANCH   4  23
ATOM     23  C   UNL     1      45.654   7.929  12.300  0.00  0.00    +0.000 C 
BRANCH  23  24
ATOM     24  O   UNL     1      44.892   9.014  12.845  0.00  0.00    +0.000 OA
ATOM     25  H   UNL     1      44.112   8.631  13.281  0.00  0.00    +0.000 HD
ENDBRANCH  23  24
BRANCH  23  26
ATOM     26  C   UNL     1      44.839   6.626  12.445  0.00  0.00    +0.000 C 
BRANCH  26  27
ATOM     27  N   UNL     1      44.962   5.745  11.299  0.00  0.00    +0.000 N 
ATOM     28  C   UNL     1      43.876   5.192  10.662  0.00  0.00    +0.000 C 
ATOM     29  O   UNL     1      42.719   5.414  11.001  0.00  0.00    +0.000 OA
ATOM     30  H   UNL     1      45.870   5.356  11.056  0.00  0.00    +0.000 HD
BRANCH  28  31
ATOM     31  C   UNL     1      44.226   4.236   9.502  0.00  0.00    +0.000 C 
ATOM     32  C   UNL     1      44.520   2.833  10.042  0.00  0.00    +0.000 C 
ATOM     33  C   UNL     1      44.935   1.881   8.921  0.00  0.00    +0.000 C 
ATOM     34  C   UNL     1      46.059   2.482   8.083  0.00  0.00    +0.000 C 
ATOM     35  C   UNL     1      45.706   3.889   7.611  0.00  0.00    +0.000 C 
ATOM     36  N   UNL     1      45.395   4.761   8.745  0.00  0.00    +0.000 NA
ATOM     37  H   UNL     1      45.149   5.687   8.391  0.00  0.00    +0.000 HD
ENDBRANCH  28  31
ENDBRANCH  26  27
ENDBRANCH  23  26
ENDBRANCH   4  23
TORSDOF 8
ENDMDL
MODEL 9
REMARK VINA RESULT:    -6.919      2.076      2.808
REMARK INTER + INTRA:         -11.442
REMARK INTER:                 -10.614
REMARK INTRA:                  -0.828
REMARK UNBOUND:                -1.490
REMARK  Name = 
REMARK  9 active torsions:
REMARK  status: ('A' for Active; 'I' for Inactive)
REMARK    1  A    between atoms: C_1  and  N_2
REMARK    2  A    between atoms: N_2  and  C_3
REMARK    3  A    between atoms: C_3  and  C_4
REMARK    4  A    between atoms: C_7  and  C_8
REMARK    5  A    between atoms: C_8  and  O_9
REMARK    6  A    between atoms: C_8  and  C_10
REMARK    7  A    between atoms: C_10  and  N_11
REMARK    8  A    between atoms: C_12  and  C_14
REMARK    9  A    between atoms: C_22  and  C_24
REMARK                            x       y       z     vdW  Elec       q    Type
REMARK                         _______ _______ _______ _____ _____    ______ ____
ROOT
ATOM      1  C   UNL     1      47.314   7.431  13.656  0.00  0.00    +0.000 A 
ATOM      2  C   UNL     1      47.129   6.050  13.816  0.00  0.00    +0.000 A 
ATOM      3  C   UNL     1      46.119   5.388  13.117  0.00  0.00    +0.000 A 
ATOM      4  C   UNL     1      45.266   6.091  12.253  0.00  0.00    +0.000 A 
ATOM      5  C   UNL     1      45.518   7.454  12.032  0.00  0.00    +0.000 A 
ATOM      6  C   UNL     1      46.532   8.117  12.724  0.00  0.00    +0.000 A 
ENDROOT
BRANCH   1   7
ATOM      7  C   UNL     1      48.285   8.178  14.529  0.00  0.00    +0.000 C 
BRANCH   7   9
ATOM      8  C   UNL     1      50.643   7.947  13.627  0.00  0.00    +0.000 C 
ATOM      9  N   UNL     1      49.653   7.684  14.664  0.00  0.00    +0.000 N 
ATOM     10  C   UNL     1      50.094   6.898  15.749  0.00  0.00    +0.000 C 
ATOM     11  O   UNL     1      51.257   6.500  15.799  0.00  0.00    +0.000 OA
BRANCH  10  12
ATOM     12  C   UNL     1      49.158   6.520  16.824  0.00  0.00    +0.000 A 
ATOM     13  C   UNL     1      48.573   5.271  16.972  0.00  0.00    +0.000 A 
ATOM     14  S   UNL     1      47.575   5.127  18.348  0.00  0.00    +0.000 S 
ATOM     15  C   UNL     1      48.015   6.677  18.886  0.00  0.00    +0.000 A 
ATOM     16  N   UNL     1      47.586   7.139  20.087  0.00  0.00    +0.000 NA
ATOM     17  C   UNL     1      48.055   8.299  20.405  0.00  0.00    +0.000 A 
ATOM     18  N   UNL     1      48.874   9.053  19.608  0.00  0.00    +0.000 N 
ATOM     19  C   UNL     1      49.223   8.693  18.324  0.00  0.00    +0.000 A 
ATOM     20  O   UNL     1      49.739   9.491  17.554  0.00  0.00    +0.000 OA
ATOM     21  C   UNL     1      48.820   7.334  17.975  0.00  0.00    +0.000 A 
ATOM     22  H   UNL     1      49.147   9.985  19.883  0.00  0.00    +0.000 HD
ENDBRANCH  10  12
ENDBRANCH   7   9
ENDBRANCH   1   7
BRANCH   4  23
ATOM     23  C   UNL     1      44.125   5.351  11.575  0.00  0.00    +0.000 C 
BRANCH  23  24
ATOM     24  O   UNL     1      42.896   5.715  12.217  0.00  0.00    +0.000 OA
ATOM     25  H   UNL     1      42.187   5.625  11.559  0.00  0.00    +0.000 HD
ENDBRANCH  23  24
BRANCH  23  26
ATOM     26  C   UNL     1      44.264   3.814  11.601  0.00  0.00    +0.000 C 
BRANCH  26  27
ATOM     27  N   UNL     1      44.876   3.276  10.401  0.00  0.00    +0.000 N 
ATOM     28  C   UNL     1      44.543   3.703   9.137  0.00  0.00    +0.000 C 
ATOM     29  O   UNL     1      43.716   4.585   8.926  0.00  0.00    +0.000 OA
ATOM     30  H   UNL     1      45.431   2.426  10.454  0.00  0.00    +0.000 HD
BRANCH  28  31
ATOM     31  C   UNL     1      45.266   2.962   7.992  0.00  0.00    +0.000 C 
ATOM     32  C   UNL     1      46.037   1.759   8.545  0.00  0.00    +0.000 C 
ATOM     33  C   UNL     1      46.818   1.045   7.443  0.00  0.00    +0.000 C 
ATOM     34  C   UNL     1      47.673   2.031   6.652  0.00  0.00    +0.000 C 
ATOM     35  C   UNL     1      46.842   3.216   6.165  0.00  0.00    +0.000 C 
ATOM     36  N   UNL     1      46.187   3.894   7.286  0.00  0.00    +0.000 NA
ATOM     37  H   UNL     1      45.629   4.668   6.921  0.00  0.00    +0.000 HD
ENDBRANCH  28  31
ENDBRANCH  26  27
ENDBRANCH  23  26
ENDBRANCH   4  23
TORSDOF 8
ENDMDL
