MODEL 1
REMARK VINA RESULT:    -8.292      0.000      0.000
REMARK INTER + INTRA:         -13.728
REMARK INTER:                 -12.413
REMARK INTRA:                  -1.315
REMARK UNBOUND:                -1.315
REMARK  Name = 
REMARK  9 active torsions:
REMARK  status: ('A' for Active; 'I' for Inactive)
REMARK    1  A    between atoms: N_1  and  C_2
REMARK    2  A    between atoms: C_2  and  C_3
REMARK    3  A    between atoms: C_3  and  N_4
REMARK    4  A    between atoms: C_3  and  C_17
REMARK    5  A    between atoms: C_5  and  C_7
REMARK    6  A    between atoms: C_20  and  C_21
REMARK    7  A    between atoms: C_21  and  N_22
REMARK    8  A    between atoms: N_22  and  C_23
REMARK    9  A    between atoms: C_23  and  C_24
REMARK                            x       y       z     vdW  Elec       q    Type
REMARK                         _______ _______ _______ _____ _____    ______ ____
ROOT
ATOM      1  C   UNL     1      48.603   6.789  13.579  0.00  0.00    +0.000 C 
ENDROOT
BRANCH   1   2
ATOM      2  C   UNL     1      47.258   6.440  12.936  0.00  0.00    +0.000 A 
ATOM      3  C   UNL     1      46.348   5.604  13.595  0.00  0.00    +0.000 A 
ATOM      4  C   UNL     1      45.126   5.275  13.000  0.00  0.00    +0.000 A 
ATOM      5  C   UNL     1      44.778   5.794  11.744  0.00  0.00    +0.000 A 
ATOM      6  C   UNL     1      45.687   6.629  11.084  0.00  0.00    +0.000 A 
ATOM      7  C   UNL     1      46.911   6.946  11.671  0.00  0.00    +0.000 A 
BRANCH   5   8
ATOM      8  C   UNL     1      43.444   5.481  11.108  0.00  0.00    +0.000 C 
BRANCH   8   9
ATOM      9  N   UNL     1      43.533   4.736   9.852  0.00  0.00    +0.000 NA
ATOM     10  H   UNL     1      44.135   5.243   9.205  0.00  0.00    +0.000 HD
BRANCH   9  11
ATOM     11  C   UNL     1      44.095   3.389  10.028  0.00  0.00    +0.000 C 
BRANCH  11  12
ATOM     12  C   UNL     1      45.125   3.083   8.954  0.00  0.00    +0.000 A 
ATOM     13  C   UNL     1      45.714   4.124   8.239  0.00  0.00    +0.000 A 
ATOM     14  C   UNL     1      46.694   3.831   7.296  0.00  0.00    +0.000 A 
ATOM     15  C   UNL     1      47.060   2.506   7.091  0.00  0.00    +0.000 A 
ATOM     16  C   UNL     1      46.419   1.536   7.840  0.00  0.00    +0.000 A 
ATOM     17 CL   UNL     1      46.811  -0.124   7.648  0.00  0.00    +0.000 Cl
ATOM     18  N   UNL     1      45.465   1.783   8.761  0.00  0.00    +0.000 NA
ENDBRANCH  11  12
ENDBRANCH   9  11
ENDBRANCH   8   9
ENDBRANCH   5   8
ENDBRANCH   1   2
BRANCH   1  19
ATOM     19  N   UNL     1      48.353   7.259  14.932  0.00  0.00    +0.000 N 
ATOM     20  C   UNL     1      49.102   6.885  16.018  0.00  0.00    +0.000 C 
ATOM     21  O   UNL     1      50.124   6.217  15.938  0.00  0.00    +0.000 OA
ATOM     22  H   UNL     1      47.401   7.562  15.103  0.00  0.00    +0.000 HD
BRANCH  20  23
ATOM     23  C   UNL     1      48.631   7.408  17.306  0.00  0.00    +0.000 A 
ATOM     24  C   UNL     1      48.538   8.771  17.529  0.00  0.00    +0.000 A 
ATOM     25  S   UNL     1      47.958   9.158  19.092  0.00  0.00    +0.000 S 
ATOM     26  C   UNL     1      47.856   7.515  19.527  0.00  0.00    +0.000 A 
ATOM     27  N   UNL     1      47.456   7.128  20.764  0.00  0.00    +0.000 NA
ATOM     28  C   UNL     1      47.460   5.850  20.956  0.00  0.00    +0.000 A 
ATOM     29  N   UNL     1      47.811   4.921  20.017  0.00  0.00    +0.000 N 
ATOM     30  C   UNL     1      48.181   5.260  18.738  0.00  0.00    +0.000 A 
ATOM     31  O   UNL     1      48.407   4.399  17.892  0.00  0.00    +0.000 OA
ATOM     32  C   UNL     1      48.227   6.683  18.483  0.00  0.00    +0.000 A 
ATOM     33  H   UNL     1      47.768   3.929  20.213  0.00  0.00    +0.000 HD
ENDBRANCH  20  23
ENDBRANCH   1  19
BRANCH   1  34
ATOM     34  C   UNL     1      49.363   7.849  12.733  0.00  0.00    +0.000 C 
BRANCH  34  35
ATOM     35  N   UNL     1      50.826   7.712  12.751  0.00  0.00    +0.000 NA
ATOM     36  H   UNL     1      51.221   8.393  12.104  0.00  0.00    +0.000 HD
ATOM     37  H   UNL     1      51.086   6.794  12.389  0.00  0.00    +0.000 HD
ENDBRANCH  34  35
ENDBRANCH   1  34
TORSDOF 9
ENDMDL
MODEL 2
REMARK VINA RESULT:    -7.975      1.511      2.015
REMARK INTER + INTRA:         -13.253
REMARK INTER:                 -11.824
REMARK INTRA:                  -1.429
REMARK UNBOUND:                -1.315
REMARK  Name = 
REMARK  9 active torsions:
REMARK  status: ('A' for Active; 'I' for Inactive)
REMARK    1  A    between atoms: N_1  and  C_2
REMARK    2  A    between atoms: C_2  and  C_3
REMARK    3  A    between atoms: C_3  and  N_4
REMARK    4  A    between atoms: C_3  and  C_17
REMARK    5  A    between atoms: C_5  and  C_7
REMARK    6  A    between atoms: C_20  and  C_21
REMARK    7  A    between atoms: C_21  and  N_22
REMARK    8  A    between atoms: N_22  and  C_23
REMARK    9  A    between atoms: C_23  and  C_24
REMARK                            x       y       z     vdW  Elec       q    Type
REMARK                         _______ _______ _______ _____ _____    ______ ____
ROOT
ATOM      1  C   UNL     1      47.930   8.005  13.639  0.00  0.00    +0.000 C 
ENDROOT
BRANCH   1   2
ATOM      2  C   UNL     1      46.736   7.332  12.958  0.00  0.00    +0.000 A 
ATOM      3  C   UNL     1      46.521   5.954  13.093  0.00  0.00    +0.000 A 
ATOM      4  C   UNL     1      45.437   5.338  12.459  0.00  0.00    +0.000 A 
ATOM      5  C   UNL     1      44.533   6.091  11.695  0.00  0.00    +0.000 A 
ATOM      6  C   UNL     1      44.747   7.467  11.559  0.00  0.00    +0.000 A 
ATOM      7  C   UNL     1      45.834   8.079  12.180  0.00  0.00    +0.000 A 
BRANCH   5   8
ATOM      8  C   UNL     1      43.334   5.446  11.039  0.00  0.00    +0.000 C 
BRANCH   8   9
ATOM      9  N   UNL     1      43.622   4.795   9.761  0.00  0.00    +0.000 NA
ATOM     10  H   UNL     1      44.350   5.319   9.276  0.00  0.00    +0.000 HD
BRANCH   9  11
ATOM     11  C   UNL     1      44.095   3.412   9.920  0.00  0.00    +0.000 C 
BRANCH  11  12
ATOM     12  C   UNL     1      45.132   3.065   8.865  0.00  0.00    +0.000 A 
ATOM     13  C   UNL     1      45.732   4.079   8.121  0.00  0.00    +0.000 A 
ATOM     14  C   UNL     1      46.719   3.749   7.196  0.00  0.00    +0.000 A 
ATOM     15  C   UNL     1      47.079   2.417   7.038  0.00  0.00    +0.000 A 
ATOM     16  C   UNL     1      46.427   1.476   7.814  0.00  0.00    +0.000 A 
ATOM     17 CL   UNL     1      46.811  -0.192   7.681  0.00  0.00    +0.000 Cl
ATOM     18  N   UNL     1      45.467   1.757   8.719  0.00  0.00    +0.000 NA
ENDBRANCH  11  12
ENDBRANCH   9  11
ENDBRANCH   8   9
ENDBRANCH   5   8
ENDBRANCH   1   2
BRANCH   1  19
ATOM     19  N   UNL     1      47.926   7.628  15.044  0.00  0.00    +0.000 N 
ATOM     20  C   UNL     1      48.961   6.973  15.659  0.00  0.00    +0.000 C 
ATOM     21  O   UNL     1      50.036   6.748  15.119  0.00  0.00    +0.000 OA
ATOM     22  H   UNL     1      47.003   7.528  15.449  0.00  0.00    +0.000 HD
BRANCH  20  23
ATOM     23  C   UNL     1      48.721   6.612  17.061  0.00  0.00    +0.000 A 
ATOM     24  C   UNL     1      48.872   5.305  17.495  0.00  0.00    +0.000 A 
ATOM     25  S   UNL     1      48.553   5.111  19.165  0.00  0.00    +0.000 S 
ATOM     26  C   UNL     1      48.163   6.759  19.344  0.00  0.00    +0.000 A 
ATOM     27  N   UNL     1      47.761   7.271  20.534  0.00  0.00    +0.000 NA
ATOM     28  C   UNL     1      47.470   8.530  20.507  0.00  0.00    +0.000 A 
ATOM     29  N   UNL     1      47.559   9.328  19.401  0.00  0.00    +0.000 N 
ATOM     30  C   UNL     1      48.001   8.866  18.185  0.00  0.00    +0.000 A 
ATOM     31  O   UNL     1      48.152   9.627  17.233  0.00  0.00    +0.000 OA
ATOM     32  C   UNL     1      48.307   7.453  18.154  0.00  0.00    +0.000 A 
ATOM     33  H   UNL     1      47.344  10.316  19.444  0.00  0.00    +0.000 HD
ENDBRANCH  20  23
ENDBRANCH   1  19
BRANCH   1  34
ATOM     34  C   UNL     1      47.875   9.548  13.457  0.00  0.00    +0.000 C 
BRANCH  34  35
ATOM     35  N   UNL     1      48.601  10.311  14.481  0.00  0.00    +0.000 NA
ATOM     36  H   UNL     1      48.249  11.267  14.479  0.00  0.00    +0.000 HD
ATOM     37  H   UNL     1      49.587  10.371  14.224  0.00  0.00    +0.000 HD
ENDBRANCH  34  35
ENDBRANCH   1  34
TORSDOF 9
ENDMDL
MODEL 3
REMARK VINA RESULT:    -7.263      3.583      8.507
REMARK INTER + INTRA:         -12.187
REMARK INTER:                 -10.351
REMARK INTRA:                  -1.836
REMARK UNBOUND:                -1.315
REMARK  Name = 
REMARK  9 active torsions:
REMARK  status: ('A' for Active; 'I' for Inactive)
REMARK    1  A    between atoms: N_1  and  C_2
REMARK    2  A    between atoms: C_2  and  C_3
REMARK    3  A    between atoms: C_3  and  N_4
REMARK    4  A    between atoms: C_3  and  C_17
REMARK    5  A    between atoms: C_5  and  C_7
REMARK    6  A    between atoms: C_20  and  C_21
REMARK    7  A    between atoms: C_21  and  N_22
REMARK    8  A    between atoms: N_22  and  C_23
REMARK    9  A    between atoms: C_23  and  C_24
REMARK                            x       y       z     vdW  Elec       q    Type
REMARK                         _______ _______ _______ _____ _____    ______ ____
ROOT
ATOM      1  C   UNL     1      47.758   7.838  12.317  0.00  0.00    +0.000 C 
ENDROOT
BRANCH   1   2
ATOM      2  C   UNL     1      48.147   7.813  13.797  0.00  0.00    +0.000 A 
ATOM      3  C   UNL     1      47.931   8.932  14.612  0.00  0.00    +0.000 A 
ATOM      4  C   UNL     1      48.301   8.912  15.960  0.00  0.00    +0.000 A 
ATOM      5  C   UNL     1      48.874   7.765  16.528  0.00  0.00    +0.000 A 
ATOM      6  C   UNL     1      49.091   6.646  15.717  0.00  0.00    +0.000 A 
ATOM      7  C   UNL     1      48.735   6.670  14.369  0.00  0.00    +0.000 A 
BRANCH   5   8
ATOM      8  C   UNL     1      49.240   7.715  17.993  0.00  0.00    +0.000 C 
BRANCH   8   9
ATOM      9  N   UNL     1      48.144   7.314  18.876  0.00  0.00    +0.000 NA
ATOM     10  H   UNL     1      47.300   7.181  18.322  0.00  0.00    +0.000 HD
BRANCH   9  11
ATOM     11  C   UNL     1      48.418   6.057  19.587  0.00  0.00    +0.000 C 
BRANCH  11  12
ATOM     12  C   UNL     1      48.369   4.872  18.637  0.00  0.00    +0.000 A 
ATOM     13  C   UNL     1      47.190   4.575  17.956  0.00  0.00    +0.000 A 
ATOM     14  C   UNL     1      47.178   3.519  17.049  0.00  0.00    +0.000 A 
ATOM     15  C   UNL     1      48.341   2.788  16.848  0.00  0.00    +0.000 A 
ATOM     16  C   UNL     1      49.464   3.148  17.571  0.00  0.00    +0.000 A 
ATOM     17 CL   UNL     1      50.942   2.295  17.382  0.00  0.00    +0.000 Cl
ATOM     18  N   UNL     1      49.513   4.162  18.458  0.00  0.00    +0.000 NA
ENDBRANCH  11  12
ENDBRANCH   9  11
ENDBRANCH   8   9
ENDBRANCH   5   8
ENDBRANCH   1   2
BRANCH   1  19
ATOM     19  N   UNL     1      46.944   6.664  12.041  0.00  0.00    +0.000 N 
ATOM     20  C   UNL     1      45.575   6.686  11.974  0.00  0.00    +0.000 C 
ATOM     21  O   UNL     1      44.912   7.714  12.020  0.00  0.00    +0.000 OA
ATOM     22  H   UNL     1      47.386   5.782  12.271  0.00  0.00    +0.000 HD
BRANCH  20  23
ATOM     23  C   UNL     1      44.942   5.379  11.766  0.00  0.00    +0.000 A 
ATOM     24  C   UNL     1      44.221   4.769  12.779  0.00  0.00    +0.000 A 
ATOM     25  S   UNL     1      43.563   3.258  12.319  0.00  0.00    +0.000 S 
ATOM     26  C   UNL     1      44.258   3.359  10.768  0.00  0.00    +0.000 A 
ATOM     27  N   UNL     1      44.117   2.364   9.857  0.00  0.00    +0.000 NA
ATOM     28  C   UNL     1      44.728   2.569   8.737  0.00  0.00    +0.000 A 
ATOM     29  N   UNL     1      45.455   3.687   8.438  0.00  0.00    +0.000 N 
ATOM     30  C   UNL     1      45.593   4.739   9.310  0.00  0.00    +0.000 A 
ATOM     31  O   UNL     1      46.180   5.766   8.980  0.00  0.00    +0.000 OA
ATOM     32  C   UNL     1      44.955   4.544  10.593  0.00  0.00    +0.000 A 
ATOM     33  H   UNL     1      45.891   3.808   7.532  0.00  0.00    +0.000 HD
ENDBRANCH  20  23
ENDBRANCH   1  19
BRANCH   1  34
ATOM     34  C   UNL     1      49.021   7.888  11.412  0.00  0.00    +0.000 C 
BRANCH  34  35
ATOM     35  N   UNL     1      49.695   9.192  11.374  0.00  0.00    +0.000 NA
ATOM     36  H   UNL     1      49.932   9.460  12.328  0.00  0.00    +0.000 HD
ATOM     37  H   UNL     1      49.045   9.901  11.033  0.00  0.00    +0.000 HD
ENDBRANCH  34  35
ENDBRANCH   1  34
TORSDOF 9
ENDMDL
MODEL 4
REMARK VINA RESULT:    -7.042      4.215      5.546
REMARK INTER + INTRA:         -11.857
REMARK INTER:                 -10.518
REMARK INTRA:                  -1.339
REMARK UNBOUND:                -1.315
REMARK  Name = 
REMARK  9 active torsions:
REMARK  status: ('A' for Active; 'I' for Inactive)
REMARK    1  A    between atoms: N_1  and  C_2
REMARK    2  A    between atoms: C_2  and  C_3
REMARK    3  A    between atoms: C_3  and  N_4
REMARK    4  A    between atoms: C_3  and  C_17
REMARK    5  A    between atoms: C_5  and  C_7
REMARK    6  A    between atoms: C_20  and  C_21
REMARK    7  A    between atoms: C_21  and  N_22
REMARK    8  A    between atoms: N_22  and  C_23
REMARK    9  A    between atoms: C_23  and  C_24
REMARK                            x       y       z     vdW  Elec       q    Type
REMARK                         _______ _______ _______ _____ _____    ______ ____
ROOT
ATOM      1  C   UNL     1      48.912   4.459  17.754  0.00  0.00    +0.000 C 
ENDROOT
BRANCH   1   2
ATOM      2  C   UNL     1      48.413   4.969  16.401  0.00  0.00    +0.000 A 
ATOM      3  C   UNL     1      47.444   4.256  15.682  0.00  0.00    +0.000 A 
ATOM      4  C   UNL     1      47.000   4.715  14.438  0.00  0.00    +0.000 A 
ATOM      5  C   UNL     1      47.497   5.910  13.897  0.00  0.00    +0.000 A 
ATOM      6  C   UNL     1      48.465   6.623  14.613  0.00  0.00    +0.000 A 
ATOM      7  C   UNL     1      48.919   6.158  15.846  0.00  0.00    +0.000 A 
BRANCH   5   8
ATOM      8  C   UNL     1      46.995   6.440  12.574  0.00  0.00    +0.000 C 
BRANCH   8   9
ATOM      9  N   UNL     1      45.590   6.142  12.298  0.00  0.00    +0.000 NA
ATOM     10  H   UNL     1      45.002   6.771  12.844  0.00  0.00    +0.000 HD
BRANCH   9  11
ATOM     11  C   UNL     1      45.240   6.316  10.881  0.00  0.00    +0.000 C 
BRANCH  11  12
ATOM     12  C   UNL     1      45.130   4.973  10.178  0.00  0.00    +0.000 A 
ATOM     13  C   UNL     1      44.439   3.926  10.784  0.00  0.00    +0.000 A 
ATOM     14  C   UNL     1      44.302   2.719  10.104  0.00  0.00    +0.000 A 
ATOM     15  C   UNL     1      44.861   2.590   8.838  0.00  0.00    +0.000 A 
ATOM     16  C   UNL     1      45.535   3.678   8.316  0.00  0.00    +0.000 A 
ATOM     17 CL   UNL     1      46.254   3.602   6.759  0.00  0.00    +0.000 Cl
ATOM     18  N   UNL     1      45.688   4.862   8.945  0.00  0.00    +0.000 NA
ENDBRANCH  11  12
ENDBRANCH   9  11
ENDBRANCH   8   9
ENDBRANCH   5   8
ENDBRANCH   1   2
BRANCH   1  19
ATOM     19  N   UNL     1      50.291   4.022  17.596  0.00  0.00    +0.000 N 
ATOM     20  C   UNL     1      51.248   4.156  18.568  0.00  0.00    +0.000 C 
ATOM     21  O   UNL     1      51.010   4.546  19.704  0.00  0.00    +0.000 OA
ATOM     22  H   UNL     1      50.606   3.965  16.634  0.00  0.00    +0.000 HD
BRANCH  20  23
ATOM     23  C   UNL     1      52.596   3.727  18.176  0.00  0.00    +0.000 A 
ATOM     24  C   UNL     1      53.658   4.615  18.194  0.00  0.00    +0.000 A 
ATOM     25  S   UNL     1      55.137   3.902  17.710  0.00  0.00    +0.000 S 
ATOM     26  C   UNL     1      54.389   2.400  17.422  0.00  0.00    +0.000 A 
ATOM     27  N   UNL     1      55.085   1.336  16.950  0.00  0.00    +0.000 NA
ATOM     28  C   UNL     1      54.375   0.274  16.751  0.00  0.00    +0.000 A 
ATOM     29  N   UNL     1      53.034   0.174  16.997  0.00  0.00    +0.000 N 
ATOM     30  C   UNL     1      52.294   1.209  17.515  0.00  0.00    +0.000 A 
ATOM     31  O   UNL     1      51.111   1.062  17.806  0.00  0.00    +0.000 OA
ATOM     32  C   UNL     1      53.037   2.433  17.723  0.00  0.00    +0.000 A 
ATOM     33  H   UNL     1      52.533  -0.692  16.849  0.00  0.00    +0.000 HD
ENDBRANCH  20  23
ENDBRANCH   1  19
BRANCH   1  34
ATOM     34  C   UNL     1      48.004   3.315  18.286  0.00  0.00    +0.000 C 
BRANCH  34  35
ATOM     35  N   UNL     1      48.245   2.942  19.686  0.00  0.00    +0.000 NA
ATOM     36  H   UNL     1      47.920   3.702  20.282  0.00  0.00    +0.000 HD
ATOM     37  H   UNL     1      49.249   2.863  19.849  0.00  0.00    +0.000 HD
ENDBRANCH  34  35
ENDBRANCH   1  34
TORSDOF 9
ENDMDL
MODEL 5
REMARK VINA RESULT:    -6.690      3.600      7.750
REMARK INTER + INTRA:         -11.329
REMARK INTER:                  -9.285
REMARK INTRA:                  -2.044
REMARK UNBOUND:                -1.315
REMARK  Name = 
REMARK  9 active torsions:
REMARK  status: ('A' for Active; 'I' for Inactive)
REMARK    1  A    between atoms: N_1  and  C_2
REMARK    2  A    between atoms: C_2  and  C_3
REMARK    3  A    between atoms: C_3  and  N_4
REMARK    4  A    between atoms: C_3  and  C_17
REMARK    5  A    between atoms: C_5  and  C_7
REMARK    6  A    between atoms: C_20  and  C_21
REMARK    7  A    between atoms: C_21  and  N_22
REMARK    8  A    between atoms: N_22  and  C_23
REMARK    9  A    between atoms: C_23  and  C_24
REMARK                            x       y       z     vdW  Elec       q    Type
REMARK                         _______ _______ _______ _____ _____    ______ ____
ROOT
ATOM      1  C   UNL     1      48.701   8.714  13.206  0.00  0.00    +0.000 C 
ENDROOT
BRANCH   1   2
ATOM      2  C   UNL     1      48.970   8.356  14.669  0.00  0.00    +0.000 A 
ATOM      3  C   UNL     1      49.826   7.297  15.000  0.00  0.00    +0.000 A 
ATOM      4  C   UNL     1      50.059   6.962  16.337  0.00  0.00    +0.000 A 
ATOM      5  C   UNL     1      49.461   7.694  17.373  0.00  0.00    +0.000 A 
ATOM      6  C   UNL     1      48.606   8.752  17.045  0.00  0.00    +0.000 A 
ATOM      7  C   UNL     1      48.362   9.077  15.712  0.00  0.00    +0.000 A 
BRANCH   5   8
ATOM      8  C   UNL     1      49.737   7.370  18.823  0.00  0.00    +0.000 C 
BRANCH   8   9
ATOM      9  N   UNL     1      48.558   6.963  19.587  0.00  0.00    +0.000 NA
ATOM     10  H   UNL     1      47.727   7.085  19.009  0.00  0.00    +0.000 HD
BRANCH   9  11
ATOM     11  C   UNL     1      48.610   5.554  20.006  0.00  0.00    +0.000 C 
BRANCH  11  12
ATOM     12  C   UNL     1      48.413   4.625  18.820  0.00  0.00    +0.000 A 
ATOM     13  C   UNL     1      47.250   4.709  18.057  0.00  0.00    +0.000 A 
ATOM     14  C   UNL     1      47.109   3.887  16.943  0.00  0.00    +0.000 A 
ATOM     15  C   UNL     1      48.131   3.003  16.621  0.00  0.00    +0.000 A 
ATOM     16  C   UNL     1      49.247   2.982  17.437  0.00  0.00    +0.000 A 
ATOM     17 CL   UNL     1      50.555   1.919  17.111  0.00  0.00    +0.000 Cl
ATOM     18  N   UNL     1      49.419   3.762  18.525  0.00  0.00    +0.000 NA
ENDBRANCH  11  12
ENDBRANCH   9  11
ENDBRANCH   8   9
ENDBRANCH   5   8
ENDBRANCH   1   2
BRANCH   1  19
ATOM     19  N   UNL     1      47.694   7.799  12.691  0.00  0.00    +0.000 N 
ATOM     20  C   UNL     1      46.344   7.999  12.826  0.00  0.00    +0.000 C 
ATOM     21  O   UNL     1      45.854   9.023  13.285  0.00  0.00    +0.000 OA
ATOM     22  H   UNL     1      48.015   6.846  12.569  0.00  0.00    +0.000 HD
BRANCH  20  23
ATOM     23  C   UNL     1      45.501   6.915  12.309  0.00  0.00    +0.000 A 
ATOM     24  C   UNL     1      44.393   7.188  11.525  0.00  0.00    +0.000 A 
ATOM     25  S   UNL     1      43.562   5.779  11.023  0.00  0.00    +0.000 S 
ATOM     26  C   UNL     1      44.635   4.769  11.874  0.00  0.00    +0.000 A 
ATOM     27  N   UNL     1      44.478   3.422  11.900  0.00  0.00    +0.000 NA
ATOM     28  C   UNL     1      45.352   2.791  12.613  0.00  0.00    +0.000 A 
ATOM     29  N   UNL     1      46.380   3.384  13.292  0.00  0.00    +0.000 N 
ATOM     30  C   UNL     1      46.606   4.739  13.263  0.00  0.00    +0.000 A 
ATOM     31  O   UNL     1      47.587   5.232  13.812  0.00  0.00    +0.000 OA
ATOM     32  C   UNL     1      45.633   5.495  12.504  0.00  0.00    +0.000 A 
ATOM     33  H   UNL     1      47.053   2.838  13.814  0.00  0.00    +0.000 HD
ENDBRANCH  20  23
ENDBRANCH   1  19
BRANCH   1  34
ATOM     34  C   UNL     1      50.011   8.656  12.371  0.00  0.00    +0.000 C 
BRANCH  34  35
ATOM     35  N   UNL     1      50.262   7.366  11.715  0.00  0.00    +0.000 NA
ATOM     36  H   UNL     1      50.018   6.621  12.366  0.00  0.00    +0.000 HD
ATOM     37  H   UNL     1      51.261   7.266  11.531  0.00  0.00    +0.000 HD
ENDBRANCH  34  35
ENDBRANCH   1  34
TORSDOF 9
ENDMDL
MODEL 6
REMARK VINA RESULT:    -6.686      4.240      9.432
REMARK INTER + INTRA:         -11.324
REMARK INTER:                  -9.720
REMARK INTRA:                  -1.604
REMARK UNBOUND:                -1.315
REMARK  Name = 
REMARK  9 active torsions:
REMARK  status: ('A' for Active; 'I' for Inactive)
REMARK    1  A    between atoms: N_1  and  C_2
REMARK    2  A    between atoms: C_2  and  C_3
REMARK    3  A    between atoms: C_3  and  N_4
REMARK    4  A    between atoms: C_3  and  C_17
REMARK    5  A    between atoms: C_5  and  C_7
REMARK    6  A    between atoms: C_20  and  C_21
REMARK    7  A    between atoms: C_21  and  N_22
REMARK    8  A    between atoms: N_22  and  C_23
REMARK    9  A    between atoms: C_23  and  C_24
REMARK                            x       y       z     vdW  Elec       q    Type
REMARK                         _______ _______ _______ _____ _____    ______ ____
ROOT
ATOM      1  C   UNL     1      44.787   5.947  11.844  0.00  0.00    +0.000 C 
ENDROOT
BRANCH   1   2
ATOM      2  C   UNL     1      46.013   6.269  12.700  0.00  0.00    +0.000 A 
ATOM      3  C   UNL     1      46.510   7.577  12.775  0.00  0.00    +0.000 A 
ATOM      4  C   UNL     1      47.639   7.866  13.546  0.00  0.00    +0.000 A 
ATOM      5  C   UNL     1      48.283   6.858  14.279  0.00  0.00    +0.000 A 
ATOM      6  C   UNL     1      47.789   5.551  14.206  0.00  0.00    +0.000 A 
ATOM      7  C   UNL     1      46.672   5.260  13.426  0.00  0.00    +0.000 A 
BRANCH   5   8
ATOM      8  C   UNL     1      49.479   7.164  15.150  0.00  0.00    +0.000 C 
BRANCH   8   9
ATOM      9  N   UNL     1      49.147   7.503  16.534  0.00  0.00    +0.000 NA
ATOM     10  H   UNL     1      48.142   7.411  16.669  0.00  0.00    +0.000 HD
BRANCH   9  11
ATOM     11  C   UNL     1      49.814   6.628  17.510  0.00  0.00    +0.000 C 
BRANCH  11  12
ATOM     12  C   UNL     1      49.202   5.237  17.502  0.00  0.00    +0.000 A 
ATOM     13  C   UNL     1      47.826   5.083  17.662  0.00  0.00    +0.000 A 
ATOM     14  C   UNL     1      47.275   3.806  17.598  0.00  0.00    +0.000 A 
ATOM     15  C   UNL     1      48.112   2.719  17.379  0.00  0.00    +0.000 A 
ATOM     16  C   UNL     1      49.465   2.964  17.238  0.00  0.00    +0.000 A 
ATOM     17 CL   UNL     1      50.568   1.677  16.965  0.00  0.00    +0.000 Cl
ATOM     18  N   UNL     1      50.035   4.185  17.294  0.00  0.00    +0.000 NA
ENDBRANCH  11  12
ENDBRANCH   9  11
ENDBRANCH   8   9
ENDBRANCH   5   8
ENDBRANCH   1   2
BRANCH   1  19
ATOM     19  N   UNL     1      45.144   4.883  10.919  0.00  0.00    +0.000 N 
ATOM     20  C   UNL     1      44.229   4.172  10.187  0.00  0.00    +0.000 C 
ATOM     21  O   UNL     1      43.035   4.441  10.150  0.00  0.00    +0.000 OA
ATOM     22  H   UNL     1      46.034   4.439  11.112  0.00  0.00    +0.000 HD
BRANCH  20  23
ATOM     23  C   UNL     1      44.791   3.086   9.376  0.00  0.00    +0.000 A 
ATOM     24  C   UNL     1      44.348   1.782   9.527  0.00  0.00    +0.000 A 
ATOM     25  S   UNL     1      45.130   0.681   8.477  0.00  0.00    +0.000 S 
ATOM     26  C   UNL     1      46.112   1.909   7.822  0.00  0.00    +0.000 A 
ATOM     27  N   UNL     1      47.051   1.644   6.880  0.00  0.00    +0.000 NA
ATOM     28  C   UNL     1      47.740   2.670   6.504  0.00  0.00    +0.000 A 
ATOM     29  N   UNL     1      47.564   3.943   6.972  0.00  0.00    +0.000 N 
ATOM     30  C   UNL     1      46.600   4.269   7.894  0.00  0.00    +0.000 A 
ATOM     31  O   UNL     1      46.410   5.434   8.231  0.00  0.00    +0.000 OA
ATOM     32  C   UNL     1      45.823   3.146   8.374  0.00  0.00    +0.000 A 
ATOM     33  H   UNL     1      48.115   4.716   6.621  0.00  0.00    +0.000 HD
ENDBRANCH  20  23
ENDBRANCH   1  19
BRANCH   1  34
ATOM     34  C   UNL     1      44.284   7.215  11.097  0.00  0.00    +0.000 C 
BRANCH  34  35
ATOM     35  N   UNL     1      42.824   7.373  11.073  0.00  0.00    +0.000 NA
ATOM     36  H   UNL     1      42.570   8.104  11.736  0.00  0.00    +0.000 HD
ATOM     37  H   UNL     1      42.384   6.517  11.412  0.00  0.00    +0.000 HD
ENDBRANCH  34  35
ENDBRANCH   1  34
TORSDOF 9
ENDMDL
MODEL 7
REMARK VINA RESULT:    -6.353      5.936      9.673
REMARK INTER + INTRA:         -10.824
REMARK INTER:                 -10.177
REMARK INTRA:                  -0.647
REMARK UNBOUND:                -1.315
REMARK  Name = 
REMARK  9 active torsions:
REMARK  status: ('A' for Active; 'I' for Inactive)
REMARK    1  A    between atoms: N_1  and  C_2
REMARK    2  A    between atoms: C_2  and  C_3
REMARK    3  A    between atoms: C_3  and  N_4
REMARK    4  A    between atoms: C_3  and  C_17
REMARK    5  A    between atoms: C_5  and  C_7
REMARK    6  A    between atoms: C_20  and  C_21
REMARK    7  A    between atoms: C_21  and  N_22
REMARK    8  A    between atoms: N_22  and  C_23
REMARK    9  A    between atoms: C_23  and  C_24
REMARK                            x       y       z     vdW  Elec       q    Type
REMARK                         _______ _______ _______ _____ _____    ______ ____
ROOT
ATOM      1  C   UNL     1      47.451   4.343  17.506  0.00  0.00    +0.000 C 
ENDROOT
BRANCH   1   2
ATOM      2  C   UNL     1      48.904   3.865  17.559  0.00  0.00    +0.000 A 
ATOM      3  C   UNL     1      49.220   2.516  17.353  0.00  0.00    +0.000 A 
ATOM      4  C   UNL     1      50.547   2.079  17.416  0.00  0.00    +0.000 A 
ATOM      5  C   UNL     1      51.588   2.986  17.663  0.00  0.00    +0.000 A 
ATOM      6  C   UNL     1      51.275   4.334  17.869  0.00  0.00    +0.000 A 
ATOM      7  C   UNL     1      49.950   4.768  17.820  0.00  0.00    +0.000 A 
BRANCH   5   8
ATOM      8  C   UNL     1      53.030   2.536  17.691  0.00  0.00    +0.000 C 
BRANCH   8   9
ATOM      9  N   UNL     1      53.286   1.384  18.556  0.00  0.00    +0.000 NA
ATOM     10  H   UNL     1      52.556   0.689  18.412  0.00  0.00    +0.000 HD
BRANCH   9  11
ATOM     11  C   UNL     1      54.580   0.741  18.279  0.00  0.00    +0.000 C 
BRANCH  11  12
ATOM     12  C   UNL     1      54.446  -0.773  18.277  0.00  0.00    +0.000 A 
ATOM     13  C   UNL     1      55.021  -1.520  17.250  0.00  0.00    +0.000 A 
ATOM     14  C   UNL     1      54.936  -2.908  17.291  0.00  0.00    +0.000 A 
ATOM     15  C   UNL     1      54.278  -3.514  18.354  0.00  0.00    +0.000 A 
ATOM     16  C   UNL     1      53.731  -2.695  19.326  0.00  0.00    +0.000 A 
ATOM     17 CL   UNL     1      52.901  -3.362  20.673  0.00  0.00    +0.000 Cl
ATOM     18  N   UNL     1      53.793  -1.348  19.319  0.00  0.00    +0.000 NA
ENDBRANCH  11  12
ENDBRANCH   9  11
ENDBRANCH   8   9
ENDBRANCH   5   8
ENDBRANCH   1   2
BRANCH   1  19
ATOM     19  N   UNL     1      47.253   5.062  16.258  0.00  0.00    +0.000 N 
ATOM     20  C   UNL     1      47.237   4.460  15.026  0.00  0.00    +0.000 C 
ATOM     21  O   UNL     1      47.268   3.246  14.866  0.00  0.00    +0.000 OA
ATOM     22  H   UNL     1      47.500   6.044  16.294  0.00  0.00    +0.000 HD
BRANCH  20  23
ATOM     23  C   UNL     1      47.106   5.377  13.888  0.00  0.00    +0.000 A 
ATOM     24  C   UNL     1      48.127   6.253  13.560  0.00  0.00    +0.000 A 
ATOM     25  S   UNL     1      47.768   7.221  12.195  0.00  0.00    +0.000 S 
ATOM     26  C   UNL     1      46.222   6.525  12.032  0.00  0.00    +0.000 A 
ATOM     27  N   UNL     1      45.357   6.928  11.068  0.00  0.00    +0.000 NA
ATOM     28  C   UNL     1      44.212   6.330  11.089  0.00  0.00    +0.000 A 
ATOM     29  N   UNL     1      43.857   5.354  11.979  0.00  0.00    +0.000 N 
ATOM     30  C   UNL     1      44.712   4.883  12.945  0.00  0.00    +0.000 A 
ATOM     31  O   UNL     1      44.395   3.946  13.672  0.00  0.00    +0.000 OA
ATOM     32  C   UNL     1      45.998   5.545  12.985  0.00  0.00    +0.000 A 
ATOM     33  H   UNL     1      42.954   4.899  11.932  0.00  0.00    +0.000 HD
ENDBRANCH  20  23
ENDBRANCH   1  19
BRANCH   1  34
ATOM     34  C   UNL     1      47.113   5.227  18.740  0.00  0.00    +0.000 C 
BRANCH  34  35
ATOM     35  N   UNL     1      47.105   6.672  18.474  0.00  0.00    +0.000 NA
ATOM     36  H   UNL     1      46.149   7.010  18.565  0.00  0.00    +0.000 HD
ATOM     37  H   UNL     1      47.375   6.840  17.504  0.00  0.00    +0.000 HD
ENDBRANCH  34  35
ENDBRANCH   1  34
TORSDOF 9
ENDMDL
MODEL 8
REMARK VINA RESULT:    -5.931      5.454      9.437
REMARK INTER + INTRA:         -10.193
REMARK INTER:                  -9.238
REMARK INTRA:                  -0.955
REMARK UNBOUND:                -1.315
REMARK  Name = 
REMARK  9 active torsions:
REMARK  status: ('A' for Active; 'I' for Inactive)
REMARK    1  A    between atoms: N_1  and  C_2
REMARK    2  A    between atoms: C_2  and  C_3
REMARK    3  A    between atoms: C_3  and  N_4
REMARK    4  A    between atoms: C_3  and  C_17
REMARK    5  A    between atoms: C_5  and  C_7
REMARK    6  A    between atoms: C_20  and  C_21
REMARK    7  A    between atoms: C_21  and  N_22
REMARK    8  A    between atoms: N_22  and  C_23
REMARK    9  A    between atoms: C_23  and  C_24
REMARK                            x       y       z     vdW  Elec       q    Type
REMARK                         _______ _______ _______ _____ _____    ______ ____
ROOT
ATOM      1  C   UNL     1      47.906   4.406  17.194  0.00  0.00    +0.000 C 
ENDROOT
BRANCH   1   2
ATOM      2  C   UNL     1      49.427   4.475  17.344  0.00  0.00    +0.000 A 
ATOM      3  C   UNL     1      50.115   5.669  17.095  0.00  0.00    +0.000 A 
ATOM      4  C   UNL     1      51.507   5.727  17.218  0.00  0.00    +0.000 A 
ATOM      5  C   UNL     1      52.238   4.598  17.616  0.00  0.00    +0.000 A 
ATOM      6  C   UNL     1      51.553   3.404  17.865  0.00  0.00    +0.000 A 
ATOM      7  C   UNL     1      50.167   3.343  17.729  0.00  0.00    +0.000 A 
BRANCH   5   8
ATOM      8  C   UNL     1      53.737   4.658  17.794  0.00  0.00    +0.000 C 
BRANCH   8   9
ATOM      9  N   UNL     1      54.268   3.707  18.771  0.00  0.00    +0.000 NA
ATOM     10  H   UNL     1      53.597   2.950  18.899  0.00  0.00    +0.000 HD
BRANCH   9  11
ATOM     11  C   UNL     1      55.543   3.109  18.349  0.00  0.00    +0.000 C 
BRANCH  11  12
ATOM     12  C   UNL     1      55.321   1.760  17.686  0.00  0.00    +0.000 A 
ATOM     13  C   UNL     1      55.773   1.542  16.386  0.00  0.00    +0.000 A 
ATOM     14  C   UNL     1      55.609   0.284  15.813  0.00  0.00    +0.000 A 
ATOM     15  C   UNL     1      54.996  -0.721  16.552  0.00  0.00    +0.000 A 
ATOM     16  C   UNL     1      54.572  -0.414  17.832  0.00  0.00    +0.000 A 
ATOM     17 CL   UNL     1      53.806  -1.597  18.812  0.00  0.00    +0.000 Cl
ATOM     18  N   UNL     1      54.713   0.792  18.420  0.00  0.00    +0.000 NA
ENDBRANCH  11  12
ENDBRANCH   9  11
ENDBRANCH   8   9
ENDBRANCH   5   8
ENDBRANCH   1   2
BRANCH   1  19
ATOM     19  N   UNL     1      47.534   5.128  15.987  0.00  0.00    +0.000 N 
ATOM     20  C   UNL     1      47.343   4.529  14.769  0.00  0.00    +0.000 C 
ATOM     21  O   UNL     1      47.350   3.316  14.604  0.00  0.00    +0.000 OA
ATOM     22  H   UNL     1      47.785   6.110  15.991  0.00  0.00    +0.000 HD
BRANCH  20  23
ATOM     23  C   UNL     1      47.053   5.448  13.663  0.00  0.00    +0.000 A 
ATOM     24  C   UNL     1      47.985   6.391  13.260  0.00  0.00    +0.000 A 
ATOM     25  S   UNL     1      47.445   7.350  11.950  0.00  0.00    +0.000 S 
ATOM     26  C   UNL     1      45.937   6.560  11.913  0.00  0.00    +0.000 A 
ATOM     27  N   UNL     1      44.965   6.917  11.037  0.00  0.00    +0.000 NA
ATOM     28  C   UNL     1      43.865   6.249  11.151  0.00  0.00    +0.000 A 
ATOM     29  N   UNL     1      43.653   5.242  12.051  0.00  0.00    +0.000 N 
ATOM     30  C   UNL     1      44.619   4.815  12.930  0.00  0.00    +0.000 A 
ATOM     31  O   UNL     1      44.428   3.852  13.666  0.00  0.00    +0.000 OA
ATOM     32  C   UNL     1      45.860   5.556  12.866  0.00  0.00    +0.000 A 
ATOM     33  H   UNL     1      42.780   4.732  12.078  0.00  0.00    +0.000 HD
ENDBRANCH  20  23
ENDBRANCH   1  19
BRANCH   1  34
ATOM     34  C   UNL     1      47.197   4.983  18.452  0.00  0.00    +0.000 C 
BRANCH  34  35
ATOM     35  N   UNL     1      47.828   4.623  19.729  0.00  0.00    +0.000 NA
ATOM     36  H   UNL     1      48.824   4.483  19.567  0.00  0.00    +0.000 HD
ATOM     37  H   UNL     1      47.463   3.725  20.047  0.00  0.00    +0.000 HD
ENDBRANCH  34  35
ENDBRANCH   1  34
TORSDOF 9
ENDMDL
MODEL 9
REMARK VINA RESULT:    -5.710      4.803      9.349
REMARK INTER + INTRA:          -9.862
REMARK INTER:                  -8.441
REMARK INTRA:                  -1.420
REMARK UNBOUND:                -1.315
REMARK  Name = 
REMARK  9 active torsions:
REMARK  status: ('A' for Active; 'I' for Inactive)
REMARK    1  A    between atoms: N_1  and  C_2
REMARK    2  A    between atoms: C_2  and  C_3
REMARK    3  A    between atoms: C_3  and  N_4
REMARK    4  A    between atoms: C_3  and  C_17
REMARK    5  A    between atoms: C_5  and  C_7
REMARK    6  A    between atoms: C_20  and  C_21
REMARK    7  A    between atoms: C_21  and  N_22
REMARK    8  A    between atoms: N_22  and  C_23
REMARK    9  A    between atoms: C_23  and  C_24
REMARK                            x       y       z     vdW  Elec       q    Type
REMARK                         _______ _______ _______ _____ _____    ______ ____
ROOT
ATOM      1  C   UNL     1      47.650   4.116  17.441  0.00  0.00    +0.000 C 
ENDROOT
BRANCH   1   2
ATOM      2  C   UNL     1      49.154   3.862  17.570  0.00  0.00    +0.000 A 
ATOM      3  C   UNL     1      50.026   4.899  17.927  0.00  0.00    +0.000 A 
ATOM      4  C   UNL     1      51.401   4.668  18.030  0.00  0.00    +0.000 A 
ATOM      5  C   UNL     1      51.931   3.390  17.802  0.00  0.00    +0.000 A 
ATOM      6  C   UNL     1      51.062   2.352  17.446  0.00  0.00    +0.000 A 
ATOM      7  C   UNL     1      49.693   2.586  17.329  0.00  0.00    +0.000 A 
BRANCH   5   8
ATOM      8  C   UNL     1      53.410   3.116  17.952  0.00  0.00    +0.000 C 
BRANCH   8   9
ATOM      9  N   UNL     1      54.257   3.835  17.000  0.00  0.00    +0.000 NA
ATOM     10  H   UNL     1      53.680   4.179  16.234  0.00  0.00    +0.000 HD
BRANCH   9  11
ATOM     11  C   UNL     1      54.938   4.989  17.604  0.00  0.00    +0.000 C 
BRANCH  11  12
ATOM     12  C   UNL     1      54.279   6.293  17.184  0.00  0.00    +0.000 A 
ATOM     13  C   UNL     1      53.855   6.463  15.867  0.00  0.00    +0.000 A 
ATOM     14  C   UNL     1      53.205   7.642  15.512  0.00  0.00    +0.000 A 
ATOM     15  C   UNL     1      52.998   8.618  16.478  0.00  0.00    +0.000 A 
ATOM     16  C   UNL     1      53.457   8.367  17.758  0.00  0.00    +0.000 A 
ATOM     17 CL   UNL     1      53.242   9.520  19.011  0.00  0.00    +0.000 Cl
ATOM     18  N   UNL     1      54.091   7.239  18.139  0.00  0.00    +0.000 NA
ENDBRANCH  11  12
ENDBRANCH   9  11
ENDBRANCH   8   9
ENDBRANCH   5   8
ENDBRANCH   1   2
BRANCH   1  19
ATOM     19  N   UNL     1      47.423   4.897  16.234  0.00  0.00    +0.000 N 
ATOM     20  C   UNL     1      47.385   4.357  14.975  0.00  0.00    +0.000 C 
ATOM     21  O   UNL     1      47.418   3.154  14.753  0.00  0.00    +0.000 OA
ATOM     22  H   UNL     1      47.667   5.877  16.315  0.00  0.00    +0.000 HD
BRANCH  20  23
ATOM     23  C   UNL     1      47.226   5.330  13.887  0.00  0.00    +0.000 A 
ATOM     24  C   UNL     1      48.234   6.230  13.586  0.00  0.00    +0.000 A 
ATOM     25  S   UNL     1      47.842   7.263  12.279  0.00  0.00    +0.000 S 
ATOM     26  C   UNL     1      46.300   6.563  12.108  0.00  0.00    +0.000 A 
ATOM     27  N   UNL     1      45.414   7.006  11.181  0.00  0.00    +0.000 NA
ATOM     28  C   UNL     1      44.274   6.399  11.193  0.00  0.00    +0.000 A 
ATOM     29  N   UNL     1      43.943   5.375  12.037  0.00  0.00    +0.000 N 
ATOM     30  C   UNL     1      44.819   4.864  12.963  0.00  0.00    +0.000 A 
ATOM     31  O   UNL     1      44.522   3.888  13.647  0.00  0.00    +0.000 OA
ATOM     32  C   UNL     1      46.100   5.534  13.014  0.00  0.00    +0.000 A 
ATOM     33  H   UNL     1      43.043   4.916  11.983  0.00  0.00    +0.000 HD
ENDBRANCH  20  23
ENDBRANCH   1  19
BRANCH   1  34
ATOM     34  C   UNL     1      47.099   4.836  18.704  0.00  0.00    +0.000 C 
BRANCH  34  35
ATOM     35  N   UNL     1      46.845   6.272  18.528  0.00  0.00    +0.000 NA
ATOM     36  H   UNL     1      46.212   6.579  19.265  0.00  0.00    +0.000 HD
ATOM     37  H   UNL     1      46.351   6.425  17.648  0.00  0.00    +0.000 HD
ENDBRANCH  34  35
ENDBRANCH   1  34
TORSDOF 9
ENDMDL
