MODEL 1
REMARK VINA RESULT:    -8.789      0.000      0.000
REMARK INTER + INTRA:         -13.501
REMARK INTER:                 -12.386
REMARK INTRA:                  -1.115
REMARK UNBOUND:                -1.115
REMARK  Name = 
REMARK  8 active torsions:
REMARK  status: ('A' for Active; 'I' for Inactive)
REMARK    1  A    between atoms: C_1  and  N_2
REMARK    2  A    between atoms: N_5  and  C_6
REMARK    3  A    between atoms: C_8  and  C_9
REMARK    4  A    between atoms: C_9  and  C_10
REMARK    5  A    between atoms: C_10  and  N_11
REMARK    6  A    between atoms: N_11  and  C_12
REMARK    7  A    between atoms: C_15  and  C_16
REMARK    8  A    between atoms: C_23  and  C_24
REMARK                            x       y       z     vdW  Elec       q    Type
REMARK                         _______ _______ _______ _____ _____    ______ ____
ROOT
ATOM      1  C   UNL     1      47.853   5.797  14.707  0.00  0.00    +0.000 A 
ATOM      2  C   UNL     1      46.755   5.196  14.065  0.00  0.00    +0.000 A 
ATOM      3  C   UNL     1      46.359   5.552  12.763  0.00  0.00    +0.000 A 
ATOM      4  C   UNL     1      47.109   6.522  12.087  0.00  0.00    +0.000 A 
ATOM      5  C   UNL     1      48.195   7.155  12.694  0.00  0.00    +0.000 A 
ATOM      6  C   UNL     1      48.553   6.777  13.991  0.00  0.00    +0.000 A 
ENDROOT
BRANCH   1  11
ATOM      7  C   UNL     1      48.427   5.301  20.216  0.00  0.00    +0.000 C 
ATOM      8  N   UNL     1      48.703   5.028  18.810  0.00  0.00    +0.000 NA
ATOM      9  C   UNL     1      47.494   4.516  18.128  0.00  0.00    +0.000 C 
ATOM     10  C   UNL     1      47.756   4.219  16.635  0.00  0.00    +0.000 C 
ATOM     11  N   UNL     1      48.270   5.430  15.969  0.00  0.00    +0.000 N 
ATOM     12  C   UNL     1      49.453   6.017  16.613  0.00  0.00    +0.000 C 
ATOM     13  C   UNL     1      49.160   6.254  18.115  0.00  0.00    +0.000 C 
ENDBRANCH   1  11
BRANCH   5  14
ATOM     14  C   UNL     1      48.959   8.231  11.976  0.00  0.00    +0.000 C 
ATOM     15  F   UNL     1      49.776   8.957  12.790  0.00  0.00    +0.000 F 
ATOM     16  F   UNL     1      49.766   7.731  11.001  0.00  0.00    +0.000 F 
ATOM     17  F   UNL     1      48.150   9.136  11.362  0.00  0.00    +0.000 F 
ENDBRANCH   5  14
BRANCH   3  18
ATOM     18  C   UNL     1      45.126   4.905  12.154  0.00  0.00    +0.000 C 
BRANCH  18  19
ATOM     19  C   UNL     1      44.540   5.705  10.985  0.00  0.00    +0.000 C 
BRANCH  19  20
ATOM     20  N   UNL     1      43.835   4.875  10.017  0.00  0.00    +0.000 N 
ATOM     21  H   UNL     1      43.195   5.404   9.421  0.00  0.00    +0.000 HD
BRANCH  20  22
ATOM     22  C   UNL     1      44.655   4.045   9.216  0.00  0.00    +0.000 A 
ATOM     23  C   UNL     1      45.583   4.546   8.294  0.00  0.00    +0.000 A 
ATOM     24  C   UNL     1      46.439   3.691   7.589  0.00  0.00    +0.000 A 
ATOM     25  C   UNL     1      46.408   2.307   7.810  0.00  0.00    +0.000 A 
ATOM     26  C   UNL     1      45.505   1.793   8.742  0.00  0.00    +0.000 A 
ATOM     27  C   UNL     1      44.655   2.659   9.433  0.00  0.00    +0.000 A 
ATOM     28  F   UNL     1      43.793   2.134  10.319  0.00  0.00    +0.000 F 
BRANCH  25  29
ATOM     29  C   UNL     1      47.373   1.469   7.047  0.00  0.00    +0.000 C 
ATOM     30  N   UNL     1      48.480   2.069   6.510  0.00  0.00    +0.000 N 
ATOM     31  O   UNL     1      47.198   0.267   6.896  0.00  0.00    +0.000 OA
ATOM     32  H   UNL     1      48.709   3.046   6.581  0.00  0.00    +0.000 HD
ATOM     33  H   UNL     1      49.107   1.471   5.988  0.00  0.00    +0.000 HD
ENDBRANCH  25  29
ENDBRANCH  20  22
ENDBRANCH  19  20
ENDBRANCH  18  19
ENDBRANCH   3  18
TORSDOF 7
ENDMDL
MODEL 2
REMARK VINA RESULT:    -8.544      2.780      4.437
REMARK INTER + INTRA:         -13.155
REMARK INTER:                 -12.146
REMARK INTRA:                  -1.009
REMARK UNBOUND:                -1.115
REMARK  Name = 
REMARK  8 active torsions:
REMARK  status: ('A' for Active; 'I' for Inactive)
REMARK    1  A    between atoms: C_1  and  N_2
REMARK    2  A    between atoms: N_5  and  C_6
REMARK    3  A    between atoms: C_8  and  C_9
REMARK    4  A    between atoms: C_9  and  C_10
REMARK    5  A    between atoms: C_10  and  N_11
REMARK    6  A    between atoms: N_11  and  C_12
REMARK    7  A    between atoms: C_15  and  C_16
REMARK    8  A    between atoms: C_23  and  C_24
REMARK                            x       y       z     vdW  Elec       q    Type
REMARK                         _______ _______ _______ _____ _____    ______ ____
ROOT
ATOM      1  C   UNL     1      47.825   6.623  13.602  0.00  0.00    +0.000 A 
ATOM      2  C   UNL     1      46.735   6.180  12.830  0.00  0.00    +0.000 A 
ATOM      3  C   UNL     1      45.967   5.058  13.192  0.00  0.00    +0.000 A 
ATOM      4  C   UNL     1      46.294   4.387  14.377  0.00  0.00    +0.000 A 
ATOM      5  C   UNL     1      47.378   4.785  15.162  0.00  0.00    +0.000 A 
ATOM      6  C   UNL     1      48.121   5.900  14.765  0.00  0.00    +0.000 A 
ENDROOT
BRANCH   1  11
ATOM      7  C   UNL     1      50.995  10.354  10.964  0.00  0.00    +0.000 C 
ATOM      8  N   UNL     1      50.188   9.811  12.052  0.00  0.00    +0.000 NA
ATOM      9  C   UNL     1      48.809   9.534  11.593  0.00  0.00    +0.000 C 
ATOM     10  C   UNL     1      47.931   8.955  12.724  0.00  0.00    +0.000 C 
ATOM     11  N   UNL     1      48.563   7.741  13.274  0.00  0.00    +0.000 N 
ATOM     12  C   UNL     1      49.950   7.932  13.719  0.00  0.00    +0.000 C 
ATOM     13  C   UNL     1      50.781   8.556  12.570  0.00  0.00    +0.000 C 
ENDBRANCH   1  11
BRANCH   5  14
ATOM     14  C   UNL     1      47.750   4.024  16.402  0.00  0.00    +0.000 C 
ATOM     15  F   UNL     1      46.759   3.983  17.337  0.00  0.00    +0.000 F 
ATOM     16  F   UNL     1      48.058   2.725  16.138  0.00  0.00    +0.000 F 
ATOM     17  F   UNL     1      48.836   4.543  17.037  0.00  0.00    +0.000 F 
ENDBRANCH   5  14
BRANCH   3  18
ATOM     18  C   UNL     1      44.842   4.598  12.279  0.00  0.00    +0.000 C 
BRANCH  18  19
ATOM     19  C   UNL     1      44.563   5.571  11.127  0.00  0.00    +0.000 C 
BRANCH  19  20
ATOM     20  N   UNL     1      43.887   4.945   9.998  0.00  0.00    +0.000 N 
ATOM     21  H   UNL     1      43.390   5.613   9.404  0.00  0.00    +0.000 HD
BRANCH  20  22
ATOM     22  C   UNL     1      44.693   4.104   9.196  0.00  0.00    +0.000 A 
ATOM     23  C   UNL     1      45.638   4.591   8.283  0.00  0.00    +0.000 A 
ATOM     24  C   UNL     1      46.479   3.722   7.577  0.00  0.00    +0.000 A 
ATOM     25  C   UNL     1      46.417   2.338   7.788  0.00  0.00    +0.000 A 
ATOM     26  C   UNL     1      45.497   1.837   8.711  0.00  0.00    +0.000 A 
ATOM     27  C   UNL     1      44.662   2.716   9.403  0.00  0.00    +0.000 A 
ATOM     28  F   UNL     1      43.784   2.204  10.280  0.00  0.00    +0.000 F 
BRANCH  25  29
ATOM     29  C   UNL     1      47.369   1.485   7.024  0.00  0.00    +0.000 C 
ATOM     30  N   UNL     1      48.483   2.067   6.485  0.00  0.00    +0.000 N 
ATOM     31  O   UNL     1      47.175   0.285   6.876  0.00  0.00    +0.000 OA
ATOM     32  H   UNL     1      48.726   3.041   6.553  0.00  0.00    +0.000 HD
ATOM     33  H   UNL     1      49.100   1.459   5.962  0.00  0.00    +0.000 HD
ENDBRANCH  25  29
ENDBRANCH  20  22
ENDBRANCH  19  20
ENDBRANCH  18  19
ENDBRANCH   3  18
TORSDOF 7
ENDMDL
MODEL 3
REMARK VINA RESULT:    -8.181      2.993      4.682
REMARK INTER + INTRA:         -12.645
REMARK INTER:                 -11.489
REMARK INTRA:                  -1.155
REMARK UNBOUND:                -1.115
REMARK  Name = 
REMARK  8 active torsions:
REMARK  status: ('A' for Active; 'I' for Inactive)
REMARK    1  A    between atoms: C_1  and  N_2
REMARK    2  A    between atoms: N_5  and  C_6
REMARK    3  A    between atoms: C_8  and  C_9
REMARK    4  A    between atoms: C_9  and  C_10
REMARK    5  A    between atoms: C_10  and  N_11
REMARK    6  A    between atoms: N_11  and  C_12
REMARK    7  A    between atoms: C_15  and  C_16
REMARK    8  A    between atoms: C_23  and  C_24
REMARK                            x       y       z     vdW  Elec       q    Type
REMARK                         _______ _______ _______ _____ _____    ______ ____
ROOT
ATOM      1  C   UNL     1      46.909   6.984  12.639  0.00  0.00    +0.000 A 
ATOM      2  C   UNL     1      45.571   6.802  12.243  0.00  0.00    +0.000 A 
ATOM      3  C   UNL     1      44.759   5.791  12.788  0.00  0.00    +0.000 A 
ATOM      4  C   UNL     1      45.307   4.964  13.777  0.00  0.00    +0.000 A 
ATOM      5  C   UNL     1      46.634   5.101  14.185  0.00  0.00    +0.000 A 
ATOM      6  C   UNL     1      47.411   6.113  13.614  0.00  0.00    +0.000 A 
ENDROOT
BRANCH   1  11
ATOM      7  C   UNL     1      50.670  11.037  12.045  0.00  0.00    +0.000 C 
ATOM      8  N   UNL     1      49.620  10.112  11.631  0.00  0.00    +0.000 NA
ATOM      9  C   UNL     1      50.047   8.710  11.834  0.00  0.00    +0.000 C 
ATOM     10  C   UNL     1      48.953   7.707  11.407  0.00  0.00    +0.000 C 
ATOM     11  N   UNL     1      47.703   7.993  12.136  0.00  0.00    +0.000 N 
ATOM     12  C   UNL     1      47.235   9.380  12.009  0.00  0.00    +0.000 C 
ATOM     13  C   UNL     1      48.377  10.349  12.402  0.00  0.00    +0.000 C 
ENDBRANCH   1  11
BRANCH   5  14
ATOM     14  C   UNL     1      47.225   4.173  15.207  0.00  0.00    +0.000 C 
ATOM     15  F   UNL     1      47.525   2.938  14.716  0.00  0.00    +0.000 F 
ATOM     16  F   UNL     1      48.388   4.651  15.729  0.00  0.00    +0.000 F 
ATOM     17  F   UNL     1      46.402   3.959  16.269  0.00  0.00    +0.000 F 
ENDBRANCH   5  14
BRANCH   3  18
ATOM     18  C   UNL     1      43.341   5.612  12.270  0.00  0.00    +0.000 C 
BRANCH  18  19
ATOM     19  C   UNL     1      43.211   4.476  11.249  0.00  0.00    +0.000 C 
BRANCH  19  20
ATOM     20  N   UNL     1      43.761   4.812   9.942  0.00  0.00    +0.000 N 
ATOM     21  H   UNL     1      44.221   5.725   9.920  0.00  0.00    +0.000 HD
BRANCH  20  22
ATOM     22  C   UNL     1      44.611   3.837   9.370  0.00  0.00    +0.000 A 
ATOM     23  C   UNL     1      44.366   2.460   9.460  0.00  0.00    +0.000 A 
ATOM     24  C   UNL     1      45.183   1.534   8.801  0.00  0.00    +0.000 A 
ATOM     25  C   UNL     1      46.257   1.963   8.009  0.00  0.00    +0.000 A 
ATOM     26  C   UNL     1      46.502   3.333   7.890  0.00  0.00    +0.000 A 
ATOM     27  C   UNL     1      45.680   4.243   8.558  0.00  0.00    +0.000 A 
ATOM     28  F   UNL     1      45.944   5.553   8.429  0.00  0.00    +0.000 F 
BRANCH  25  29
ATOM     29  C   UNL     1      47.057   0.918   7.313  0.00  0.00    +0.000 C 
ATOM     30  N   UNL     1      46.805  -0.396   7.596  0.00  0.00    +0.000 N 
ATOM     31  O   UNL     1      47.924   1.212   6.501  0.00  0.00    +0.000 OA
ATOM     32  H   UNL     1      46.116  -0.734   8.246  0.00  0.00    +0.000 HD
ATOM     33  H   UNL     1      47.377  -1.078   7.114  0.00  0.00    +0.000 HD
ENDBRANCH  25  29
ENDBRANCH  20  22
ENDBRANCH  19  20
ENDBRANCH  18  19
ENDBRANCH   3  18
TORSDOF 7
ENDMDL
MODEL 4
REMARK VINA RESULT:    -8.053      2.489      3.442
REMARK INTER + INTRA:         -12.463
REMARK INTER:                 -11.124
REMARK INTRA:                  -1.340
REMARK UNBOUND:                -1.115
REMARK  Name = 
REMARK  8 active torsions:
REMARK  status: ('A' for Active; 'I' for Inactive)
REMARK    1  A    between atoms: C_1  and  N_2
REMARK    2  A    between atoms: N_5  and  C_6
REMARK    3  A    between atoms: C_8  and  C_9
REMARK    4  A    between atoms: C_9  and  C_10
REMARK    5  A    between atoms: C_10  and  N_11
REMARK    6  A    between atoms: N_11  and  C_12
REMARK    7  A    between atoms: C_15  and  C_16
REMARK    8  A    between atoms: C_23  and  C_24
REMARK                            x       y       z     vdW  Elec       q    Type
REMARK                         _______ _______ _______ _____ _____    ______ ____
ROOT
ATOM      1  C   UNL     1      46.712   6.922  13.071  0.00  0.00    +0.000 A 
ATOM      2  C   UNL     1      45.855   5.806  13.111  0.00  0.00    +0.000 A 
ATOM      3  C   UNL     1      44.556   5.838  12.574  0.00  0.00    +0.000 A 
ATOM      4  C   UNL     1      44.123   7.021  11.959  0.00  0.00    +0.000 A 
ATOM      5  C   UNL     1      44.935   8.155  11.914  0.00  0.00    +0.000 A 
ATOM      6  C   UNL     1      46.218   8.085  12.464  0.00  0.00    +0.000 A 
ENDROOT
BRANCH   1  11
ATOM      7  C   UNL     1      51.523   8.202  15.548  0.00  0.00    +0.000 C 
ATOM      8  N   UNL     1      50.571   7.372  14.817  0.00  0.00    +0.000 NA
ATOM      9  C   UNL     1      49.346   7.152  15.617  0.00  0.00    +0.000 C 
ATOM     10  C   UNL     1      48.317   6.278  14.867  0.00  0.00    +0.000 C 
ATOM     11  N   UNL     1      47.999   6.890  13.563  0.00  0.00    +0.000 N 
ATOM     12  C   UNL     1      49.173   7.170  12.726  0.00  0.00    +0.000 C 
ATOM     13  C   UNL     1      50.196   8.009  13.533  0.00  0.00    +0.000 C 
ENDBRANCH   1  11
BRANCH   5  14
ATOM     14  C   UNL     1      44.440   9.433  11.299  0.00  0.00    +0.000 C 
ATOM     15  F   UNL     1      43.528   9.243  10.304  0.00  0.00    +0.000 F 
ATOM     16  F   UNL     1      43.826  10.239  12.208  0.00  0.00    +0.000 F 
ATOM     17  F   UNL     1      45.436  10.180  10.752  0.00  0.00    +0.000 F 
ENDBRANCH   5  14
BRANCH   3  18
ATOM     18  C   UNL     1      43.663   4.615  12.706  0.00  0.00    +0.000 C 
BRANCH  18  19
ATOM     19  C   UNL     1      44.082   3.460  11.791  0.00  0.00    +0.000 C 
BRANCH  19  20
ATOM     20  N   UNL     1      43.773   3.697  10.386  0.00  0.00    +0.000 N 
ATOM     21  H   UNL     1      43.473   4.656  10.196  0.00  0.00    +0.000 HD
BRANCH  20  22
ATOM     22  C   UNL     1      44.782   3.322   9.469  0.00  0.00    +0.000 A 
ATOM     23  C   UNL     1      45.025   1.993   9.098  0.00  0.00    +0.000 A 
ATOM     24  C   UNL     1      45.972   1.675   8.118  0.00  0.00    +0.000 A 
ATOM     25  C   UNL     1      46.685   2.685   7.458  0.00  0.00    +0.000 A 
ATOM     26  C   UNL     1      46.439   4.016   7.798  0.00  0.00    +0.000 A 
ATOM     27  C   UNL     1      45.495   4.316   8.782  0.00  0.00    +0.000 A 
ATOM     28  F   UNL     1      45.284   5.606   9.091  0.00  0.00    +0.000 F 
BRANCH  25  29
ATOM     29  C   UNL     1      47.649   2.267   6.403  0.00  0.00    +0.000 C 
ATOM     30  N   UNL     1      47.799   3.063   5.301  0.00  0.00    +0.000 N 
ATOM     31  O   UNL     1      48.304   1.238   6.506  0.00  0.00    +0.000 OA
ATOM     32  H   UNL     1      47.307   3.924   5.128  0.00  0.00    +0.000 HD
ATOM     33  H   UNL     1      48.453   2.742   4.599  0.00  0.00    +0.000 HD
ENDBRANCH  25  29
ENDBRANCH  20  22
ENDBRANCH  19  20
ENDBRANCH  18  19
ENDBRANCH   3  18
TORSDOF 7
ENDMDL
MODEL 5
REMARK VINA RESULT:    -6.864      2.067      2.708
REMARK INTER + INTRA:         -10.788
REMARK INTER:                  -9.964
REMARK INTRA:                  -0.823
REMARK UNBOUND:                -1.115
REMARK  Name = 
REMARK  8 active torsions:
REMARK  status: ('A' for Active; 'I' for Inactive)
REMARK    1  A    between atoms: C_1  and  N_2
REMARK    2  A    between atoms: N_5  and  C_6
REMARK    3  A    between atoms: C_8  and  C_9
REMARK    4  A    between atoms: C_9  and  C_10
REMARK    5  A    between atoms: C_10  and  N_11
REMARK    6  A    between atoms: N_11  and  C_12
REMARK    7  A    between atoms: C_15  and  C_16
REMARK    8  A    between atoms: C_23  and  C_24
REMARK                            x       y       z     vdW  Elec       q    Type
REMARK                         _______ _______ _______ _____ _____    ______ ____
ROOT
ATOM      1  C   UNL     1      47.318   6.890  14.232  0.00  0.00    +0.000 A 
ATOM      2  C   UNL     1      46.594   5.693  14.079  0.00  0.00    +0.000 A 
ATOM      3  C   UNL     1      45.479   5.594  13.227  0.00  0.00    +0.000 A 
ATOM      4  C   UNL     1      45.106   6.727  12.493  0.00  0.00    +0.000 A 
ATOM      5  C   UNL     1      45.787   7.938  12.628  0.00  0.00    +0.000 A 
ATOM      6  C   UNL     1      46.886   7.997  13.490  0.00  0.00    +0.000 A 
ENDROOT
BRANCH   1  11
ATOM      7  C   UNL     1      52.346   6.214  16.510  0.00  0.00    +0.000 C 
ATOM      8  N   UNL     1      51.013   6.786  16.350  0.00  0.00    +0.000 NA
ATOM      9  C   UNL     1      50.867   7.408  15.015  0.00  0.00    +0.000 C 
ATOM     10  C   UNL     1      49.463   8.020  14.815  0.00  0.00    +0.000 C 
ATOM     11  N   UNL     1      48.433   6.988  15.037  0.00  0.00    +0.000 N 
ATOM     12  C   UNL     1      48.537   6.301  16.331  0.00  0.00    +0.000 C 
ATOM     13  C   UNL     1      49.972   5.744  16.508  0.00  0.00    +0.000 C 
ENDBRANCH   1  11
BRANCH   5  14
ATOM     14  C   UNL     1      45.343   9.159  11.876  0.00  0.00    +0.000 C 
ATOM     15  F   UNL     1      46.373   9.940  11.444  0.00  0.00    +0.000 F 
ATOM     16  F   UNL     1      44.629   8.847  10.759  0.00  0.00    +0.000 F 
ATOM     17  F   UNL     1      44.543   9.975  12.613  0.00  0.00    +0.000 F 
ENDBRANCH   5  14
BRANCH   3  18
ATOM     18  C   UNL     1      44.707   4.287  13.157  0.00  0.00    +0.000 C 
BRANCH  18  19
ATOM     19  C   UNL     1      45.024   3.465  11.903  0.00  0.00    +0.000 C 
BRANCH  19  20
ATOM     20  N   UNL     1      44.376   3.976  10.701  0.00  0.00    +0.000 N 
ATOM     21  H   UNL     1      44.146   4.970  10.759  0.00  0.00    +0.000 HD
BRANCH  20  22
ATOM     22  C   UNL     1      45.053   3.714   9.487  0.00  0.00    +0.000 A 
ATOM     23  C   UNL     1      45.798   4.682   8.801  0.00  0.00    +0.000 A 
ATOM     24  C   UNL     1      46.528   4.355   7.651  0.00  0.00    +0.000 A 
ATOM     25  C   UNL     1      46.553   3.039   7.171  0.00  0.00    +0.000 A 
ATOM     26  C   UNL     1      45.835   2.056   7.856  0.00  0.00    +0.000 A 
ATOM     27  C   UNL     1      45.109   2.400   8.998  0.00  0.00    +0.000 A 
ATOM     28  F   UNL     1      44.424   1.435   9.632  0.00  0.00    +0.000 F 
BRANCH  25  29
ATOM     29  C   UNL     1      47.380   2.765   5.964  0.00  0.00    +0.000 C 
ATOM     30  N   UNL     1      48.690   2.408   6.134  0.00  0.00    +0.000 N 
ATOM     31  O   UNL     1      46.913   2.850   4.836  0.00  0.00    +0.000 OA
ATOM     32  H   UNL     1      49.161   2.312   7.018  0.00  0.00    +0.000 HD
ATOM     33  H   UNL     1      49.225   2.242   5.291  0.00  0.00    +0.000 HD
ENDBRANCH  25  29
ENDBRANCH  20  22
ENDBRANCH  19  20
ENDBRANCH  18  19
ENDBRANCH   3  18
TORSDOF 7
ENDMDL
MODEL 6
REMARK VINA RESULT:    -6.505      3.717      5.538
REMARK INTER + INTRA:         -10.283
REMARK INTER:                  -9.233
REMARK INTRA:                  -1.049
REMARK UNBOUND:                -1.115
REMARK  Name = 
REMARK  8 active torsions:
REMARK  status: ('A' for Active; 'I' for Inactive)
REMARK    1  A    between atoms: C_1  and  N_2
REMARK    2  A    between atoms: N_5  and  C_6
REMARK    3  A    between atoms: C_8  and  C_9
REMARK    4  A    between atoms: C_9  and  C_10
REMARK    5  A    between atoms: C_10  and  N_11
REMARK    6  A    between atoms: N_11  and  C_12
REMARK    7  A    between atoms: C_15  and  C_16
REMARK    8  A    between atoms: C_23  and  C_24
REMARK                            x       y       z     vdW  Elec       q    Type
REMARK                         _______ _______ _______ _____ _____    ______ ____
ROOT
ATOM      1  C   UNL     1      49.800   5.343  17.645  0.00  0.00    +0.000 A 
ATOM      2  C   UNL     1      49.847   5.956  16.379  0.00  0.00    +0.000 A 
ATOM      3  C   UNL     1      49.248   7.203  16.127  0.00  0.00    +0.000 A 
ATOM      4  C   UNL     1      48.609   7.857  17.189  0.00  0.00    +0.000 A 
ATOM      5  C   UNL     1      48.526   7.276  18.456  0.00  0.00    +0.000 A 
ATOM      6  C   UNL     1      49.129   6.032  18.664  0.00  0.00    +0.000 A 
ENDROOT
BRANCH   1  11
ATOM      7  C   UNL     1      52.901   0.738  17.335  0.00  0.00    +0.000 C 
ATOM      8  N   UNL     1      51.977   1.693  17.937  0.00  0.00    +0.000 NA
ATOM      9  C   UNL     1      52.612   3.022  18.073  0.00  0.00    +0.000 C 
ATOM     10  C   UNL     1      51.654   4.056  18.706  0.00  0.00    +0.000 C 
ATOM     11  N   UNL     1      50.414   4.138  17.911  0.00  0.00    +0.000 N 
ATOM     12  C   UNL     1      49.745   2.846  17.704  0.00  0.00    +0.000 C 
ATOM     13  C   UNL     1      50.753   1.830  17.112  0.00  0.00    +0.000 C 
ENDBRANCH   1  11
BRANCH   5  14
ATOM     14  C   UNL     1      47.793   7.963  19.572  0.00  0.00    +0.000 C 
ATOM     15  F   UNL     1      46.787   8.777  19.145  0.00  0.00    +0.000 F 
ATOM     16  F   UNL     1      47.210   7.080  20.428  0.00  0.00    +0.000 F 
ATOM     17  F   UNL     1      48.603   8.744  20.337  0.00  0.00    +0.000 F 
ENDBRANCH   5  14
BRANCH   3  18
ATOM     18  C   UNL     1      49.284   7.778  14.721  0.00  0.00    +0.000 C 
BRANCH  18  19
ATOM     19  C   UNL     1      48.529   6.920  13.699  0.00  0.00    +0.000 C 
BRANCH  19  20
ATOM     20  N   UNL     1      47.088   7.136  13.720  0.00  0.00    +0.000 N 
ATOM     21  H   UNL     1      46.815   8.071  13.409  0.00  0.00    +0.000 HD
BRANCH  20  22
ATOM     22  C   UNL     1      46.317   6.164  13.039  0.00  0.00    +0.000 A 
ATOM     23  C   UNL     1      45.930   6.294  11.699  0.00  0.00    +0.000 A 
ATOM     24  C   UNL     1      45.247   5.266  11.039  0.00  0.00    +0.000 A 
ATOM     25  C   UNL     1      44.956   4.063  11.696  0.00  0.00    +0.000 A 
ATOM     26  C   UNL     1      45.355   3.907  13.025  0.00  0.00    +0.000 A 
ATOM     27  C   UNL     1      46.031   4.944  13.671  0.00  0.00    +0.000 A 
ATOM     28  F   UNL     1      46.397   4.767  14.950  0.00  0.00    +0.000 F 
BRANCH  25  29
ATOM     29  C   UNL     1      44.257   3.005  10.915  0.00  0.00    +0.000 C 
ATOM     30  N   UNL     1      44.910   2.434   9.857  0.00  0.00    +0.000 N 
ATOM     31  O   UNL     1      43.125   2.641  11.202  0.00  0.00    +0.000 OA
ATOM     32  H   UNL     1      45.838   2.667   9.546  0.00  0.00    +0.000 HD
ATOM     33  H   UNL     1      44.400   1.728   9.341  0.00  0.00    +0.000 HD
ENDBRANCH  25  29
ENDBRANCH  20  22
ENDBRANCH  19  20
ENDBRANCH  18  19
ENDBRANCH   3  18
TORSDOF 7
ENDMDL
MODEL 7
REMARK VINA RESULT:    -6.493      3.688      7.450
REMARK INTER + INTRA:         -10.265
REMARK INTER:                  -8.714
REMARK INTRA:                  -1.552
REMARK UNBOUND:                -1.115
REMARK  Name = 
REMARK  8 active torsions:
REMARK  status: ('A' for Active; 'I' for Inactive)
REMARK    1  A    between atoms: C_1  and  N_2
REMARK    2  A    between atoms: N_5  and  C_6
REMARK    3  A    between atoms: C_8  and  C_9
REMARK    4  A    between atoms: C_9  and  C_10
REMARK    5  A    between atoms: C_10  and  N_11
REMARK    6  A    between atoms: N_11  and  C_12
REMARK    7  A    between atoms: C_15  and  C_16
REMARK    8  A    between atoms: C_23  and  C_24
REMARK                            x       y       z     vdW  Elec       q    Type
REMARK                         _______ _______ _______ _____ _____    ______ ____
ROOT
ATOM      1  C   UNL     1      48.382   6.879  13.694  0.00  0.00    +0.000 A 
ATOM      2  C   UNL     1      48.817   7.356  14.944  0.00  0.00    +0.000 A 
ATOM      3  C   UNL     1      49.974   8.144  15.085  0.00  0.00    +0.000 A 
ATOM      4  C   UNL     1      50.691   8.478  13.928  0.00  0.00    +0.000 A 
ATOM      5  C   UNL     1      50.302   8.012  12.672  0.00  0.00    +0.000 A 
ATOM      6  C   UNL     1      49.150   7.226  12.574  0.00  0.00    +0.000 A 
ENDROOT
BRANCH   1  11
ATOM      7  C   UNL     1      44.544   3.269  11.915  0.00  0.00    +0.000 C 
ATOM      8  N   UNL     1      45.116   4.304  12.769  0.00  0.00    +0.000 NA
ATOM      9  C   UNL     1      46.363   3.827  13.408  0.00  0.00    +0.000 C 
ATOM     10  C   UNL     1      46.993   4.905  14.318  0.00  0.00    +0.000 C 
ATOM     11  N   UNL     1      47.231   6.136  13.541  0.00  0.00    +0.000 N 
ATOM     12  C   UNL     1      46.042   6.651  12.848  0.00  0.00    +0.000 C 
ATOM     13  C   UNL     1      45.418   5.525  11.985  0.00  0.00    +0.000 C 
ENDBRANCH   1  11
BRANCH   5  14
ATOM     14  C   UNL     1      51.109   8.334  11.447  0.00  0.00    +0.000 C 
ATOM     15  F   UNL     1      52.436   8.515  11.699  0.00  0.00    +0.000 F 
ATOM     16  F   UNL     1      51.047   7.346  10.512  0.00  0.00    +0.000 F 
ATOM     17  F   UNL     1      50.694   9.467  10.819  0.00  0.00    +0.000 F 
ENDBRANCH   5  14
BRANCH   3  18
ATOM     18  C   UNL     1      50.421   8.573  16.473  0.00  0.00    +0.000 C 
BRANCH  18  19
ATOM     19  C   UNL     1      49.345   8.365  17.544  0.00  0.00    +0.000 C 
BRANCH  19  20
ATOM     20  N   UNL     1      49.725   7.390  18.559  0.00  0.00    +0.000 N 
ATOM     21  H   UNL     1      49.096   7.380  19.365  0.00  0.00    +0.000 HD
BRANCH  20  22
ATOM     22  C   UNL     1      49.921   6.070  18.092  0.00  0.00    +0.000 A 
ATOM     23  C   UNL     1      51.186   5.478  17.976  0.00  0.00    +0.000 A 
ATOM     24  C   UNL     1      51.327   4.138  17.596  0.00  0.00    +0.000 A 
ATOM     25  C   UNL     1      50.200   3.342  17.348  0.00  0.00    +0.000 A 
ATOM     26  C   UNL     1      48.932   3.909  17.481  0.00  0.00    +0.000 A 
ATOM     27  C   UNL     1      48.808   5.249  17.855  0.00  0.00    +0.000 A 
ATOM     28  F   UNL     1      47.575   5.767  17.969  0.00  0.00    +0.000 F 
BRANCH  25  29
ATOM     29  C   UNL     1      50.433   1.918  16.983  0.00  0.00    +0.000 C 
ATOM     30  N   UNL     1      51.206   1.148  17.809  0.00  0.00    +0.000 N 
ATOM     31  O   UNL     1      49.949   1.429  15.971  0.00  0.00    +0.000 OA
ATOM     32  H   UNL     1      51.645   1.459  18.659  0.00  0.00    +0.000 HD
ATOM     33  H   UNL     1      51.353   0.188  17.523  0.00  0.00    +0.000 HD
ENDBRANCH  25  29
ENDBRANCH  20  22
ENDBRANCH  19  20
ENDBRANCH  18  19
ENDBRANCH   3  18
TORSDOF 7
ENDMDL
MODEL 8
REMARK VINA RESULT:    -6.401      4.185      8.506
REMARK INTER + INTRA:         -10.135
REMARK INTER:                  -9.322
REMARK INTRA:                  -0.813
REMARK UNBOUND:                -1.115
REMARK  Name = 
REMARK  8 active torsions:
REMARK  status: ('A' for Active; 'I' for Inactive)
REMARK    1  A    between atoms: C_1  and  N_2
REMARK    2  A    between atoms: N_5  and  C_6
REMARK    3  A    between atoms: C_8  and  C_9
REMARK    4  A    between atoms: C_9  and  C_10
REMARK    5  A    between atoms: C_10  and  N_11
REMARK    6  A    between atoms: N_11  and  C_12
REMARK    7  A    between atoms: C_15  and  C_16
REMARK    8  A    between atoms: C_23  and  C_24
REMARK                            x       y       z     vdW  Elec       q    Type
REMARK                         _______ _______ _______ _____ _____    ______ ____
ROOT
ATOM      1  C   UNL     1      45.264   6.122  12.212  0.00  0.00    +0.000 A 
ATOM      2  C   UNL     1      46.077   5.519  13.189  0.00  0.00    +0.000 A 
ATOM      3  C   UNL     1      46.344   4.138  13.195  0.00  0.00    +0.000 A 
ATOM      4  C   UNL     1      45.796   3.355  12.171  0.00  0.00    +0.000 A 
ATOM      5  C   UNL     1      44.971   3.911  11.192  0.00  0.00    +0.000 A 
ATOM      6  C   UNL     1      44.724   5.287  11.225  0.00  0.00    +0.000 A 
ENDROOT
BRANCH   1  11
ATOM      7  C   UNL     1      45.225  11.513  10.846  0.00  0.00    +0.000 C 
ATOM      8  N   UNL     1      44.868  10.321  11.608  0.00  0.00    +0.000 NA
ATOM      9  C   UNL     1      44.218   9.317  10.736  0.00  0.00    +0.000 C 
ATOM     10  C   UNL     1      43.831   8.041  11.516  0.00  0.00    +0.000 C 
ATOM     11  N   UNL     1      45.025   7.480  12.177  0.00  0.00    +0.000 N 
ATOM     12  C   UNL     1      45.743   8.432  13.034  0.00  0.00    +0.000 C 
ATOM     13  C   UNL     1      46.070   9.712  12.224  0.00  0.00    +0.000 C 
ENDBRANCH   1  11
BRANCH   5  14
ATOM     14  C   UNL     1      44.347   3.051  10.131  0.00  0.00    +0.000 C 
ATOM     15  F   UNL     1      43.379   2.216  10.604  0.00  0.00    +0.000 F 
ATOM     16  F   UNL     1      43.749   3.787   9.154  0.00  0.00    +0.000 F 
ATOM     17  F   UNL     1      45.247   2.253   9.497  0.00  0.00    +0.000 F 
ENDBRANCH   5  14
BRANCH   3  18
ATOM     18  C   UNL     1      47.181   3.544  14.316  0.00  0.00    +0.000 C 
BRANCH  18  19
ATOM     19  C   UNL     1      47.103   4.349  15.619  0.00  0.00    +0.000 C 
BRANCH  19  20
ATOM     20  N   UNL     1      47.300   3.534  16.811  0.00  0.00    +0.000 N 
ATOM     21  H   UNL     1      46.846   2.620  16.754  0.00  0.00    +0.000 HD
BRANCH  20  22
ATOM     22  C   UNL     1      48.643   3.375  17.225  0.00  0.00    +0.000 A 
ATOM     23  C   UNL     1      49.421   2.260  16.888  0.00  0.00    +0.000 A 
ATOM     24  C   UNL     1      50.774   2.187  17.240  0.00  0.00    +0.000 A 
ATOM     25  C   UNL     1      51.394   3.244  17.919  0.00  0.00    +0.000 A 
ATOM     26  C   UNL     1      50.640   4.374  18.242  0.00  0.00    +0.000 A 
ATOM     27  C   UNL     1      49.290   4.429  17.887  0.00  0.00    +0.000 A 
ATOM     28  F   UNL     1      48.589   5.525  18.217  0.00  0.00    +0.000 F 
BRANCH  25  29
ATOM     29  C   UNL     1      52.845   3.105  18.227  0.00  0.00    +0.000 C 
ATOM     30  N   UNL     1      53.210   2.488  19.392  0.00  0.00    +0.000 N 
ATOM     31  O   UNL     1      53.704   3.525  17.464  0.00  0.00    +0.000 OA
ATOM     32  H   UNL     1      52.578   2.112  20.079  0.00  0.00    +0.000 HD
ATOM     33  H   UNL     1      54.203   2.422  19.575  0.00  0.00    +0.000 HD
ENDBRANCH  25  29
ENDBRANCH  20  22
ENDBRANCH  19  20
ENDBRANCH  18  19
ENDBRANCH   3  18
TORSDOF 7
ENDMDL
MODEL 9
REMARK VINA RESULT:    -6.330      1.815      2.347
REMARK INTER + INTRA:         -10.036
REMARK INTER:                  -9.001
REMARK INTRA:                  -1.035
REMARK UNBOUND:                -1.115
REMARK  Name = 
REMARK  8 active torsions:
REMARK  status: ('A' for Active; 'I' for Inactive)
REMARK    1  A    between atoms: C_1  and  N_2
REMARK    2  A    between atoms: N_5  and  C_6
REMARK    3  A    between atoms: C_8  and  C_9
REMARK    4  A    between atoms: C_9  and  C_10
REMARK    5  A    between atoms: C_10  and  N_11
REMARK    6  A    between atoms: N_11  and  C_12
REMARK    7  A    between atoms: C_15  and  C_16
REMARK    8  A    between atoms: C_23  and  C_24
REMARK                            x       y       z     vdW  Elec       q    Type
REMARK                         _______ _______ _______ _____ _____    ______ ____
ROOT
ATOM      1  C   UNL     1      49.345   7.288  15.098  0.00  0.00    +0.000 A 
ATOM      2  C   UNL     1      48.233   6.475  14.811  0.00  0.00    +0.000 A 
ATOM      3  C   UNL     1      47.819   6.208  13.493  0.00  0.00    +0.000 A 
ATOM      4  C   UNL     1      48.565   6.756  12.442  0.00  0.00    +0.000 A 
ATOM      5  C   UNL     1      49.664   7.581  12.684  0.00  0.00    +0.000 A 
ATOM      6  C   UNL     1      50.040   7.828  14.008  0.00  0.00    +0.000 A 
ENDROOT
BRANCH   1  11
ATOM      7  C   UNL     1      49.583   8.260  20.568  0.00  0.00    +0.000 C 
ATOM      8  N   UNL     1      50.102   8.019  19.226  0.00  0.00    +0.000 NA
ATOM      9  C   UNL     1      49.637   6.712  18.711  0.00  0.00    +0.000 C 
ATOM     10  C   UNL     1      50.169   6.429  17.289  0.00  0.00    +0.000 C 
ATOM     11  N   UNL     1      49.780   7.527  16.384  0.00  0.00    +0.000 N 
ATOM     12  C   UNL     1      50.179   8.862  16.849  0.00  0.00    +0.000 C 
ATOM     13  C   UNL     1      49.664   9.083  18.293  0.00  0.00    +0.000 C 
ENDBRANCH   1  11
BRANCH   5  14
ATOM     14  C   UNL     1      50.423   8.206  11.549  0.00  0.00    +0.000 C 
ATOM     15  F   UNL     1      50.674   7.347  10.520  0.00  0.00    +0.000 F 
ATOM     16  F   UNL     1      49.754   9.254  10.994  0.00  0.00    +0.000 F 
ATOM     17  F   UNL     1      51.635   8.695  11.926  0.00  0.00    +0.000 F 
ENDBRANCH   5  14
BRANCH   3  18
ATOM     18  C   UNL     1      46.572   5.371  13.258  0.00  0.00    +0.000 C 
BRANCH  18  19
ATOM     19  C   UNL     1      45.344   6.210  12.886  0.00  0.00    +0.000 C 
BRANCH  19  20
ATOM     20  N   UNL     1      44.294   5.436  12.237  0.00  0.00    +0.000 N 
ATOM     21  H   UNL     1      43.430   5.964  12.098  0.00  0.00    +0.000 HD
BRANCH  20  22
ATOM     22  C   UNL     1      44.664   4.801  11.028  0.00  0.00    +0.000 A 
ATOM     23  C   UNL     1      45.342   5.461   9.994  0.00  0.00    +0.000 A 
ATOM     24  C   UNL     1      45.771   4.771   8.853  0.00  0.00    +0.000 A 
ATOM     25  C   UNL     1      45.557   3.392   8.729  0.00  0.00    +0.000 A 
ATOM     26  C   UNL     1      44.904   2.715   9.760  0.00  0.00    +0.000 A 
ATOM     27  C   UNL     1      44.478   3.418  10.889  0.00  0.00    +0.000 A 
ATOM     28  F   UNL     1      43.848   2.740  11.862  0.00  0.00    +0.000 F 
BRANCH  25  29
ATOM     29  C   UNL     1      46.074   2.725   7.502  0.00  0.00    +0.000 C 
ATOM     30  N   UNL     1      46.756   1.547   7.634  0.00  0.00    +0.000 N 
ATOM     31  O   UNL     1      45.898   3.206   6.390  0.00  0.00    +0.000 OA
ATOM     32  H   UNL     1      46.949   1.077   8.502  0.00  0.00    +0.000 HD
ATOM     33  H   UNL     1      47.104   1.129   6.780  0.00  0.00    +0.000 HD
ENDBRANCH  25  29
ENDBRANCH  20  22
ENDBRANCH  19  20
ENDBRANCH  18  19
ENDBRANCH   3  18
TORSDOF 7
ENDMDL
