MODEL 1
REMARK VINA RESULT:    -7.655      0.000      0.000
REMARK INTER + INTRA:         -11.483
REMARK INTER:                 -10.788
REMARK INTRA:                  -0.696
REMARK UNBOUND:                -0.696
REMARK  Name = 
REMARK  8 active torsions:
REMARK  status: ('A' for Active; 'I' for Inactive)
REMARK    1  A    between atoms: C_1  and  S_2
REMARK    2  A    between atoms: S_2  and  C_3
REMARK    3  A    between atoms: C_5  and  C_6
REMARK    4  A    between atoms: C_11  and  N_12
REMARK    5  A    between atoms: N_12  and  C_13
REMARK    6  A    between atoms: C_13  and  C_14
REMARK    7  A    between atoms: C_17  and  O_18
REMARK    8  A    between atoms: O_18  and  C_19
REMARK                            x       y       z     vdW  Elec       q    Type
REMARK                         _______ _______ _______ _____ _____    ______ ____
ROOT
ATOM      1  N   UNL     1      44.735   6.155  12.077  0.00  0.00    +0.000 N 
ATOM      2  H   UNL     1      44.533   6.937  11.452  0.00  0.00    +0.000 HD
ENDROOT
BRANCH   1   8
ATOM      3  C   UNL     1      46.454   7.671  12.951  0.00  0.00    +0.000 A 
ATOM      4  C   UNL     1      47.677   7.876  13.593  0.00  0.00    +0.000 A 
ATOM      5  C   UNL     1      48.356   6.766  14.070  0.00  0.00    +0.000 A 
ATOM      6  N   UNL     1      47.890   5.491  13.967  0.00  0.00    +0.000 NA
ATOM      7  C   UNL     1      46.712   5.334  13.313  0.00  0.00    +0.000 A 
ATOM      8  C   UNL     1      45.967   6.363  12.740  0.00  0.00    +0.000 A 
BRANCH   5   9
ATOM      9  C   UNL     1      49.683   6.941  14.748  0.00  0.00    +0.000 C 
ATOM     10  N   UNL     1      50.589   7.714  14.072  0.00  0.00    +0.000 N 
ATOM     11  O   UNL     1      49.945   6.433  15.826  0.00  0.00    +0.000 OA
ATOM     12  H   UNL     1      50.330   8.134  13.185  0.00  0.00    +0.000 HD
ATOM     13  H   UNL     1      51.494   7.891  14.484  0.00  0.00    +0.000 HD
ENDBRANCH   5   9
BRANCH   3  15
ATOM     14  C   UNL     1      46.947  10.249  12.117  0.00  0.00    +0.000 C 
ATOM     15  S   UNL     1      45.550   9.113  12.368  0.00  0.00    +0.000 S 
ENDBRANCH   3  15
ENDBRANCH   1   8
BRANCH   1  16
ATOM     16  C   UNL     1      44.253   4.829  11.646  0.00  0.00    +0.000 C 
ATOM     17  C   UNL     1      42.746   4.590  11.764  0.00  0.00    +0.000 C 
ATOM     18  C   UNL     1      43.681   3.883  12.688  0.00  0.00    +0.000 C 
BRANCH  16  19
ATOM     19  C   UNL     1      44.869   4.272  10.359  0.00  0.00    +0.000 A 
ATOM     20  C   UNL     1      44.773   2.915  10.003  0.00  0.00    +0.000 A 
ATOM     21  C   UNL     1      45.189   2.446   8.747  0.00  0.00    +0.000 A 
ATOM     22  C   UNL     1      45.700   3.334   7.806  0.00  0.00    +0.000 A 
ATOM     23  C   UNL     1      45.898   4.664   8.176  0.00  0.00    +0.000 A 
ATOM     24  C   UNL     1      45.486   5.126   9.431  0.00  0.00    +0.000 A 
BRANCH  22  25
ATOM     25  O   UNL     1      46.082   3.024   6.537  0.00  0.00    +0.000 OA
BRANCH  25  26
ATOM     26  C   UNL     1      47.268   2.267   6.336  0.00  0.00    +0.000 C 
ATOM     27  F   UNL     1      48.260   2.542   7.209  0.00  0.00    +0.000 F 
ATOM     28  F   UNL     1      46.966   0.952   6.465  0.00  0.00    +0.000 F 
ATOM     29  F   UNL     1      47.723   2.469   5.080  0.00  0.00    +0.000 F 
ENDBRANCH  25  26
ENDBRANCH  22  25
ENDBRANCH  16  19
ENDBRANCH   1  16
TORSDOF 7
ENDMDL
MODEL 2
REMARK VINA RESULT:    -7.328      1.461      1.773
REMARK INTER + INTRA:         -11.022
REMARK INTER:                 -10.440
REMARK INTRA:                  -0.582
REMARK UNBOUND:                -0.696
REMARK  Name = 
REMARK  8 active torsions:
REMARK  status: ('A' for Active; 'I' for Inactive)
REMARK    1  A    between atoms: C_1  and  S_2
REMARK    2  A    between atoms: S_2  and  C_3
REMARK    3  A    between atoms: C_5  and  C_6
REMARK    4  A    between atoms: C_11  and  N_12
REMARK    5  A    between atoms: N_12  and  C_13
REMARK    6  A    between atoms: C_13  and  C_14
REMARK    7  A    between atoms: C_17  and  O_18
REMARK    8  A    between atoms: O_18  and  C_19
REMARK                            x       y       z     vdW  Elec       q    Type
REMARK                         _______ _______ _______ _____ _____    ______ ____
ROOT
ATOM      1  N   UNL     1      45.168   5.958  12.131  0.00  0.00    +0.000 N 
ATOM      2  H   UNL     1      45.566   6.692  11.543  0.00  0.00    +0.000 HD
ENDROOT
BRANCH   1   8
ATOM      3  C   UNL     1      47.072   6.552  13.560  0.00  0.00    +0.000 A 
ATOM      4  C   UNL     1      47.950   6.242  14.600  0.00  0.00    +0.000 A 
ATOM      5  C   UNL     1      47.744   5.062  15.297  0.00  0.00    +0.000 A 
ATOM      6  N   UNL     1      46.723   4.199  15.040  0.00  0.00    +0.000 NA
ATOM      7  C   UNL     1      45.909   4.524  14.004  0.00  0.00    +0.000 A 
ATOM      8  C   UNL     1      46.049   5.650  13.195  0.00  0.00    +0.000 A 
BRANCH   5   9
ATOM      9  C   UNL     1      48.677   4.682  16.408  0.00  0.00    +0.000 C 
ATOM     10  N   UNL     1      49.192   5.730  17.125  0.00  0.00    +0.000 N 
ATOM     11  O   UNL     1      48.963   3.524  16.663  0.00  0.00    +0.000 OA
ATOM     12  H   UNL     1      48.918   6.680  16.894  0.00  0.00    +0.000 HD
ATOM     13  H   UNL     1      49.809   5.543  17.903  0.00  0.00    +0.000 HD
ENDBRANCH   5   9
BRANCH   3  15
ATOM     14  C   UNL     1      48.828   7.689  11.769  0.00  0.00    +0.000 C 
ATOM     15  S   UNL     1      47.311   8.103  12.681  0.00  0.00    +0.000 S 
ENDBRANCH   3  15
ENDBRANCH   1   8
BRANCH   1  16
ATOM     16  C   UNL     1      44.328   4.954  11.450  0.00  0.00    +0.000 C 
ATOM     17  C   UNL     1      42.841   5.292  11.329  0.00  0.00    +0.000 C 
ATOM     18  C   UNL     1      43.279   4.207  12.256  0.00  0.00    +0.000 C 
BRANCH  16  19
ATOM     19  C   UNL     1      44.923   4.319  10.189  0.00  0.00    +0.000 A 
ATOM     20  C   UNL     1      44.700   2.975   9.845  0.00  0.00    +0.000 A 
ATOM     21  C   UNL     1      45.104   2.448   8.608  0.00  0.00    +0.000 A 
ATOM     22  C   UNL     1      45.732   3.266   7.674  0.00  0.00    +0.000 A 
ATOM     23  C   UNL     1      46.052   4.575   8.036  0.00  0.00    +0.000 A 
ATOM     24  C   UNL     1      45.652   5.093   9.272  0.00  0.00    +0.000 A 
BRANCH  22  25
ATOM     25  O   UNL     1      46.118   2.901   6.421  0.00  0.00    +0.000 OA
BRANCH  25  26
ATOM     26  C   UNL     1      47.262   2.072   6.262  0.00  0.00    +0.000 C 
ATOM     27  F   UNL     1      47.888   2.209   5.076  0.00  0.00    +0.000 F 
ATOM     28  F   UNL     1      48.155   2.383   7.233  0.00  0.00    +0.000 F 
ATOM     29  F   UNL     1      46.905   0.779   6.422  0.00  0.00    +0.000 F 
ENDBRANCH  25  26
ENDBRANCH  22  25
ENDBRANCH  16  19
ENDBRANCH   1  16
TORSDOF 7
ENDMDL
MODEL 3
REMARK VINA RESULT:    -7.044      1.889      2.418
REMARK INTER + INTRA:         -10.622
REMARK INTER:                 -10.139
REMARK INTRA:                  -0.483
REMARK UNBOUND:                -0.696
REMARK  Name = 
REMARK  8 active torsions:
REMARK  status: ('A' for Active; 'I' for Inactive)
REMARK    1  A    between atoms: C_1  and  S_2
REMARK    2  A    between atoms: S_2  and  C_3
REMARK    3  A    between atoms: C_5  and  C_6
REMARK    4  A    between atoms: C_11  and  N_12
REMARK    5  A    between atoms: N_12  and  C_13
REMARK    6  A    between atoms: C_13  and  C_14
REMARK    7  A    between atoms: C_17  and  O_18
REMARK    8  A    between atoms: O_18  and  C_19
REMARK                            x       y       z     vdW  Elec       q    Type
REMARK                         _______ _______ _______ _____ _____    ______ ____
ROOT
ATOM      1  N   UNL     1      44.733   5.414  12.824  0.00  0.00    +0.000 N 
ATOM      2  H   UNL     1      44.245   5.610  13.700  0.00  0.00    +0.000 HD
ENDROOT
BRANCH   1   8
ATOM      3  C   UNL     1      47.146   5.507  13.252  0.00  0.00    +0.000 A 
ATOM      4  C   UNL     1      48.357   6.202  13.223  0.00  0.00    +0.000 A 
ATOM      5  C   UNL     1      48.368   7.468  12.659  0.00  0.00    +0.000 A 
ATOM      6  N   UNL     1      47.272   8.063  12.114  0.00  0.00    +0.000 NA
ATOM      7  C   UNL     1      46.111   7.366  12.188  0.00  0.00    +0.000 A 
ATOM      8  C   UNL     1      45.962   6.113  12.780  0.00  0.00    +0.000 A 
BRANCH   5   9
ATOM      9  C   UNL     1      49.644   8.256  12.625  0.00  0.00    +0.000 C 
ATOM     10  N   UNL     1      50.698   7.693  13.295  0.00  0.00    +0.000 N 
ATOM     11  O   UNL     1      49.744   9.325  12.045  0.00  0.00    +0.000 OA
ATOM     12  H   UNL     1      50.581   6.795  13.753  0.00  0.00    +0.000 HD
ATOM     13  H   UNL     1      51.593   8.161  13.293  0.00  0.00    +0.000 HD
ENDBRANCH   5   9
BRANCH   3  15
ATOM     14  C   UNL     1      47.276   4.267  15.708  0.00  0.00    +0.000 C 
ATOM     15  S   UNL     1      47.138   3.847  13.945  0.00  0.00    +0.000 S 
ENDBRANCH   3  15
ENDBRANCH   1   8
BRANCH   1  16
ATOM     16  C   UNL     1      43.886   5.176  11.639  0.00  0.00    +0.000 C 
ATOM     17  C   UNL     1      43.010   6.348  11.193  0.00  0.00    +0.000 C 
ATOM     18  C   UNL     1      42.376   5.147  11.812  0.00  0.00    +0.000 C 
BRANCH  16  19
ATOM     19  C   UNL     1      44.540   4.416  10.482  0.00  0.00    +0.000 A 
ATOM     20  C   UNL     1      44.317   3.047  10.257  0.00  0.00    +0.000 A 
ATOM     21  C   UNL     1      44.782   2.399   9.101  0.00  0.00    +0.000 A 
ATOM     22  C   UNL     1      45.473   3.117   8.131  0.00  0.00    +0.000 A 
ATOM     23  C   UNL     1      45.793   4.451   8.383  0.00  0.00    +0.000 A 
ATOM     24  C   UNL     1      45.332   5.091   9.538  0.00  0.00    +0.000 A 
BRANCH  22  25
ATOM     25  O   UNL     1      45.923   2.628   6.943  0.00  0.00    +0.000 OA
BRANCH  25  26
ATOM     26  C   UNL     1      47.224   2.059   6.876  0.00  0.00    +0.000 C 
ATOM     27  F   UNL     1      48.219   2.901   7.223  0.00  0.00    +0.000 F 
ATOM     28  F   UNL     1      47.273   1.001   7.722  0.00  0.00    +0.000 F 
ATOM     29  F   UNL     1      47.452   1.604   5.625  0.00  0.00    +0.000 F 
ENDBRANCH  25  26
ENDBRANCH  22  25
ENDBRANCH  16  19
ENDBRANCH   1  16
TORSDOF 7
ENDMDL
MODEL 4
REMARK VINA RESULT:    -7.011      2.259      3.111
REMARK INTER + INTRA:         -10.576
REMARK INTER:                 -10.677
REMARK INTRA:                   0.101
REMARK UNBOUND:                -0.696
REMARK  Name = 
REMARK  8 active torsions:
REMARK  status: ('A' for Active; 'I' for Inactive)
REMARK    1  A    between atoms: C_1  and  S_2
REMARK    2  A    between atoms: S_2  and  C_3
REMARK    3  A    between atoms: C_5  and  C_6
REMARK    4  A    between atoms: C_11  and  N_12
REMARK    5  A    between atoms: N_12  and  C_13
REMARK    6  A    between atoms: C_13  and  C_14
REMARK    7  A    between atoms: C_17  and  O_18
REMARK    8  A    between atoms: O_18  and  C_19
REMARK                            x       y       z     vdW  Elec       q    Type
REMARK                         _______ _______ _______ _____ _____    ______ ____
ROOT
ATOM      1  N   UNL     1      45.207   5.094  12.535  0.00  0.00    +0.000 N 
ATOM      2  H   UNL     1      45.171   4.877  13.532  0.00  0.00    +0.000 HD
ENDROOT
BRANCH   1   8
ATOM      3  C   UNL     1      46.540   7.137  12.791  0.00  0.00    +0.000 A 
ATOM      4  C   UNL     1      46.695   8.514  12.613  0.00  0.00    +0.000 A 
ATOM      5  C   UNL     1      45.703   9.199  11.931  0.00  0.00    +0.000 A 
ATOM      6  N   UNL     1      44.596   8.604  11.405  0.00  0.00    +0.000 NA
ATOM      7  C   UNL     1      44.471   7.271  11.624  0.00  0.00    +0.000 A 
ATOM      8  C   UNL     1      45.370   6.486  12.342  0.00  0.00    +0.000 A 
BRANCH   5   9
ATOM      9  C   UNL     1      45.821  10.681  11.736  0.00  0.00    +0.000 C 
ATOM     10  N   UNL     1      44.700  11.404  12.046  0.00  0.00    +0.000 N 
ATOM     11  O   UNL     1      46.841  11.214  11.329  0.00  0.00    +0.000 OA
ATOM     12  H   UNL     1      43.876  10.928  12.398  0.00  0.00    +0.000 HD
ATOM     13  H   UNL     1      44.720  12.411  11.960  0.00  0.00    +0.000 HD
ENDBRANCH   5   9
BRANCH   3  15
ATOM     14  C   UNL     1      49.275   7.226  13.103  0.00  0.00    +0.000 C 
ATOM     15  S   UNL     1      47.846   6.238  13.640  0.00  0.00    +0.000 S 
ENDBRANCH   3  15
ENDBRANCH   1   8
BRANCH   1  16
ATOM     16  C   UNL     1      44.400   4.235  11.647  0.00  0.00    +0.000 C 
ATOM     17  C   UNL     1      42.911   4.575  11.555  0.00  0.00    +0.000 C 
ATOM     18  C   UNL     1      43.342   3.333  12.262  0.00  0.00    +0.000 C 
BRANCH  16  19
ATOM     19  C   UNL     1      45.036   3.867  10.304  0.00  0.00    +0.000 A 
ATOM     20  C   UNL     1      45.035   2.553   9.804  0.00  0.00    +0.000 A 
ATOM     21  C   UNL     1      45.466   2.254   8.502  0.00  0.00    +0.000 A 
ATOM     22  C   UNL     1      45.895   3.273   7.659  0.00  0.00    +0.000 A 
ATOM     23  C   UNL     1      45.999   4.567   8.169  0.00  0.00    +0.000 A 
ATOM     24  C   UNL     1      45.574   4.860   9.469  0.00  0.00    +0.000 A 
BRANCH  22  25
ATOM     25  O   UNL     1      46.280   3.130   6.361  0.00  0.00    +0.000 OA
BRANCH  25  26
ATOM     26  C   UNL     1      47.430   2.351   6.060  0.00  0.00    +0.000 C 
ATOM     27  F   UNL     1      47.918   2.536   4.816  0.00  0.00    +0.000 F 
ATOM     28  F   UNL     1      48.411   2.678   6.936  0.00  0.00    +0.000 F 
ATOM     29  F   UNL     1      47.141   1.042   6.226  0.00  0.00    +0.000 F 
ENDBRANCH  25  26
ENDBRANCH  22  25
ENDBRANCH  16  19
ENDBRANCH   1  16
TORSDOF 7
ENDMDL
MODEL 5
REMARK VINA RESULT:    -6.526      2.786      4.017
REMARK INTER + INTRA:          -9.891
REMARK INTER:                  -9.049
REMARK INTRA:                  -0.842
REMARK UNBOUND:                -0.696
REMARK  Name = 
REMARK  8 active torsions:
REMARK  status: ('A' for Active; 'I' for Inactive)
REMARK    1  A    between atoms: C_1  and  S_2
REMARK    2  A    between atoms: S_2  and  C_3
REMARK    3  A    between atoms: C_5  and  C_6
REMARK    4  A    between atoms: C_11  and  N_12
REMARK    5  A    between atoms: N_12  and  C_13
REMARK    6  A    between atoms: C_13  and  C_14
REMARK    7  A    between atoms: C_17  and  O_18
REMARK    8  A    between atoms: O_18  and  C_19
REMARK                            x       y       z     vdW  Elec       q    Type
REMARK                         _______ _______ _______ _____ _____    ______ ____
ROOT
ATOM      1  N   UNL     1      47.886   6.852  13.192  0.00  0.00    +0.000 N 
ATOM      2  H   UNL     1      48.654   6.592  12.570  0.00  0.00    +0.000 HD
ENDROOT
BRANCH   1   8
ATOM      3  C   UNL     1      48.526   6.277  15.489  0.00  0.00    +0.000 A 
ATOM      4  C   UNL     1      48.484   5.402  16.576  0.00  0.00    +0.000 A 
ATOM      5  C   UNL     1      47.691   4.270  16.471  0.00  0.00    +0.000 A 
ATOM      6  N   UNL     1      46.935   3.974  15.378  0.00  0.00    +0.000 NA
ATOM      7  C   UNL     1      47.026   4.835  14.334  0.00  0.00    +0.000 A 
ATOM      8  C   UNL     1      47.831   5.972  14.298  0.00  0.00    +0.000 A 
BRANCH   5   9
ATOM      9  C   UNL     1      47.633   3.295  17.609  0.00  0.00    +0.000 C 
ATOM     10  N   UNL     1      48.716   3.307  18.446  0.00  0.00    +0.000 N 
ATOM     11  O   UNL     1      46.691   2.539  17.783  0.00  0.00    +0.000 OA
ATOM     12  H   UNL     1      49.474   3.961  18.279  0.00  0.00    +0.000 HD
ATOM     13  H   UNL     1      48.731   2.690  19.247  0.00  0.00    +0.000 HD
ENDBRANCH   5   9
BRANCH   3  15
ATOM     14  C   UNL     1      48.254   8.900  16.282  0.00  0.00    +0.000 C 
ATOM     15  S   UNL     1      49.521   7.768  15.638  0.00  0.00    +0.000 S 
ENDBRANCH   3  15
ENDBRANCH   1   8
BRANCH   1  16
ATOM     16  C   UNL     1      46.692   7.435  12.551  0.00  0.00    +0.000 C 
ATOM     17  C   UNL     1      46.818   8.887  12.086  0.00  0.00    +0.000 C 
ATOM     18  C   UNL     1      45.955   8.560  13.259  0.00  0.00    +0.000 C 
BRANCH  16  19
ATOM     19  C   UNL     1      45.946   6.532  11.564  0.00  0.00    +0.000 A 
ATOM     20  C   UNL     1      46.419   6.282  10.264  0.00  0.00    +0.000 A 
ATOM     21  C   UNL     1      45.823   5.324   9.429  0.00  0.00    +0.000 A 
ATOM     22  C   UNL     1      44.742   4.578   9.885  0.00  0.00    +0.000 A 
ATOM     23  C   UNL     1      44.194   4.882  11.132  0.00  0.00    +0.000 A 
ATOM     24  C   UNL     1      44.788   5.841  11.959  0.00  0.00    +0.000 A 
BRANCH  22  25
ATOM     25  O   UNL     1      44.112   3.581   9.205  0.00  0.00    +0.000 OA
BRANCH  25  26
ATOM     26  C   UNL     1      44.837   2.404   8.873  0.00  0.00    +0.000 C 
ATOM     27  F   UNL     1      45.519   2.478   7.712  0.00  0.00    +0.000 F 
ATOM     28  F   UNL     1      45.736   2.161   9.858  0.00  0.00    +0.000 F 
ATOM     29  F   UNL     1      43.988   1.355   8.815  0.00  0.00    +0.000 F 
ENDBRANCH  25  26
ENDBRANCH  22  25
ENDBRANCH  16  19
ENDBRANCH   1  16
TORSDOF 7
ENDMDL
MODEL 6
REMARK VINA RESULT:    -6.487      4.428      7.656
REMARK INTER + INTRA:          -9.838
REMARK INTER:                  -9.044
REMARK INTRA:                  -0.794
REMARK UNBOUND:                -0.696
REMARK  Name = 
REMARK  8 active torsions:
REMARK  status: ('A' for Active; 'I' for Inactive)
REMARK    1  A    between atoms: C_1  and  S_2
REMARK    2  A    between atoms: S_2  and  C_3
REMARK    3  A    between atoms: C_5  and  C_6
REMARK    4  A    between atoms: C_11  and  N_12
REMARK    5  A    between atoms: N_12  and  C_13
REMARK    6  A    between atoms: C_13  and  C_14
REMARK    7  A    between atoms: C_17  and  O_18
REMARK    8  A    between atoms: O_18  and  C_19
REMARK                            x       y       z     vdW  Elec       q    Type
REMARK                         _______ _______ _______ _____ _____    ______ ____
ROOT
ATOM      1  N   UNL     1      44.788   6.690  11.509  0.00  0.00    +0.000 N 
ATOM      2  H   UNL     1      43.907   6.455  11.967  0.00  0.00    +0.000 HD
ENDROOT
BRANCH   1   8
ATOM      3  C   UNL     1      44.345   4.541  10.412  0.00  0.00    +0.000 A 
ATOM      4  C   UNL     1      44.655   3.591   9.437  0.00  0.00    +0.000 A 
ATOM      5  C   UNL     1      45.668   3.885   8.539  0.00  0.00    +0.000 A 
ATOM      6  N   UNL     1      46.364   5.055   8.539  0.00  0.00    +0.000 NA
ATOM      7  C   UNL     1      46.050   5.940   9.519  0.00  0.00    +0.000 A 
ATOM      8  C   UNL     1      45.094   5.734  10.511  0.00  0.00    +0.000 A 
BRANCH   5   9
ATOM      9  C   UNL     1      46.046   2.883   7.489  0.00  0.00    +0.000 C 
ATOM     10  N   UNL     1      46.324   1.625   7.953  0.00  0.00    +0.000 N 
ATOM     11  O   UNL     1      46.105   3.161   6.302  0.00  0.00    +0.000 OA
ATOM     12  H   UNL     1      46.248   1.426   8.946  0.00  0.00    +0.000 HD
ATOM     13  H   UNL     1      46.562   0.895   7.296  0.00  0.00    +0.000 HD
ENDBRANCH   5   9
BRANCH   3  15
ATOM     14  C   UNL     1      43.595   2.589  12.204  0.00  0.00    +0.000 C 
ATOM     15  S   UNL     1      43.002   4.180  11.553  0.00  0.00    +0.000 S 
ENDBRANCH   3  15
ENDBRANCH   1   8
BRANCH   1  16
ATOM     16  C   UNL     1      45.808   7.351  12.346  0.00  0.00    +0.000 C 
ATOM     17  C   UNL     1      45.408   8.694  12.959  0.00  0.00    +0.000 C 
ATOM     18  C   UNL     1      46.420   8.655  11.864  0.00  0.00    +0.000 C 
BRANCH  16  19
ATOM     19  C   UNL     1      46.590   6.443  13.301  0.00  0.00    +0.000 A 
ATOM     20  C   UNL     1      47.743   6.876  13.978  0.00  0.00    +0.000 A 
ATOM     21  C   UNL     1      48.352   6.099  14.977  0.00  0.00    +0.000 A 
ATOM     22  C   UNL     1      47.809   4.869  15.331  0.00  0.00    +0.000 A 
ATOM     23  C   UNL     1      46.727   4.377  14.601  0.00  0.00    +0.000 A 
ATOM     24  C   UNL     1      46.125   5.153  13.604  0.00  0.00    +0.000 A 
BRANCH  22  25
ATOM     25  O   UNL     1      48.262   4.048  16.318  0.00  0.00    +0.000 OA
BRANCH  25  26
ATOM     26  C   UNL     1      47.477   3.874  17.490  0.00  0.00    +0.000 C 
ATOM     27  F   UNL     1      46.600   2.851  17.426  0.00  0.00    +0.000 F 
ATOM     28  F   UNL     1      48.309   3.631  18.531  0.00  0.00    +0.000 F 
ATOM     29  F   UNL     1      46.801   5.013  17.752  0.00  0.00    +0.000 F 
ENDBRANCH  25  26
ENDBRANCH  22  25
ENDBRANCH  16  19
ENDBRANCH   1  16
TORSDOF 7
ENDMDL
MODEL 7
REMARK VINA RESULT:    -6.209      2.900      4.301
REMARK INTER + INTRA:          -9.446
REMARK INTER:                  -9.073
REMARK INTRA:                  -0.372
REMARK UNBOUND:                -0.696
REMARK  Name = 
REMARK  8 active torsions:
REMARK  status: ('A' for Active; 'I' for Inactive)
REMARK    1  A    between atoms: C_1  and  S_2
REMARK    2  A    between atoms: S_2  and  C_3
REMARK    3  A    between atoms: C_5  and  C_6
REMARK    4  A    between atoms: C_11  and  N_12
REMARK    5  A    between atoms: N_12  and  C_13
REMARK    6  A    between atoms: C_13  and  C_14
REMARK    7  A    between atoms: C_17  and  O_18
REMARK    8  A    between atoms: O_18  and  C_19
REMARK                            x       y       z     vdW  Elec       q    Type
REMARK                         _______ _______ _______ _____ _____    ______ ____
ROOT
ATOM      1  N   UNL     1      47.445   6.982  14.462  0.00  0.00    +0.000 N 
ATOM      2  H   UNL     1      47.276   7.923  14.820  0.00  0.00    +0.000 HD
ENDROOT
BRANCH   1   8
ATOM      3  C   UNL     1      49.311   6.839  16.047  0.00  0.00    +0.000 A 
ATOM      4  C   UNL     1      50.086   6.101  16.945  0.00  0.00    +0.000 A 
ATOM      5  C   UNL     1      49.709   4.794  17.209  0.00  0.00    +0.000 A 
ATOM      6  N   UNL     1      48.617   4.195  16.660  0.00  0.00    +0.000 NA
ATOM      7  C   UNL     1      47.908   4.937  15.772  0.00  0.00    +0.000 A 
ATOM      8  C   UNL     1      48.220   6.238  15.383  0.00  0.00    +0.000 A 
BRANCH   5   9
ATOM      9  C   UNL     1      50.525   3.961  18.152  0.00  0.00    +0.000 C 
ATOM     10  N   UNL     1      50.461   2.608  17.945  0.00  0.00    +0.000 N 
ATOM     11  O   UNL     1      51.201   4.446  19.045  0.00  0.00    +0.000 OA
ATOM     12  H   UNL     1      49.901   2.242  17.181  0.00  0.00    +0.000 HD
ATOM     13  H   UNL     1      51.006   1.991  18.530  0.00  0.00    +0.000 HD
ENDBRANCH   5   9
BRANCH   3  15
ATOM     14  C   UNL     1      48.633   9.373  16.885  0.00  0.00    +0.000 C 
ATOM     15  S   UNL     1      49.773   8.548  15.734  0.00  0.00    +0.000 S 
ENDBRANCH   3  15
ENDBRANCH   1   8
BRANCH   1  16
ATOM     16  C   UNL     1      47.565   6.848  12.997  0.00  0.00    +0.000 C 
ATOM     17  C   UNL     1      48.987   6.707  12.450  0.00  0.00    +0.000 C 
ATOM     18  C   UNL     1      48.225   7.968  12.211  0.00  0.00    +0.000 C 
BRANCH  16  19
ATOM     19  C   UNL     1      46.546   5.929  12.317  0.00  0.00    +0.000 A 
ATOM     20  C   UNL     1      46.045   6.182  11.028  0.00  0.00    +0.000 A 
ATOM     21  C   UNL     1      45.246   5.251  10.346  0.00  0.00    +0.000 A 
ATOM     22  C   UNL     1      44.940   4.030  10.937  0.00  0.00    +0.000 A 
ATOM     23  C   UNL     1      45.342   3.802  12.254  0.00  0.00    +0.000 A 
ATOM     24  C   UNL     1      46.134   4.736  12.931  0.00  0.00    +0.000 A 
BRANCH  22  25
ATOM     25  O   UNL     1      44.231   3.019  10.366  0.00  0.00    +0.000 OA
BRANCH  25  26
ATOM     26  C   UNL     1      44.731   2.400   9.188  0.00  0.00    +0.000 C 
ATOM     27  F   UNL     1      46.076   2.298   9.141  0.00  0.00    +0.000 F 
ATOM     28  F   UNL     1      44.225   1.145   9.115  0.00  0.00    +0.000 F 
ATOM     29  F   UNL     1      44.307   3.086   8.105  0.00  0.00    +0.000 F 
ENDBRANCH  25  26
ENDBRANCH  22  25
ENDBRANCH  16  19
ENDBRANCH   1  16
TORSDOF 7
ENDMDL
MODEL 8
REMARK VINA RESULT:    -5.879      3.928      5.734
REMARK INTER + INTRA:          -8.980
REMARK INTER:                  -8.178
REMARK INTRA:                  -0.801
REMARK UNBOUND:                -0.696
REMARK  Name = 
REMARK  8 active torsions:
REMARK  status: ('A' for Active; 'I' for Inactive)
REMARK    1  A    between atoms: C_1  and  S_2
REMARK    2  A    between atoms: S_2  and  C_3
REMARK    3  A    between atoms: C_5  and  C_6
REMARK    4  A    between atoms: C_11  and  N_12
REMARK    5  A    between atoms: N_12  and  C_13
REMARK    6  A    between atoms: C_13  and  C_14
REMARK    7  A    between atoms: C_17  and  O_18
REMARK    8  A    between atoms: O_18  and  C_19
REMARK                            x       y       z     vdW  Elec       q    Type
REMARK                         _______ _______ _______ _____ _____    ______ ____
ROOT
ATOM      1  N   UNL     1      49.302   7.478  13.671  0.00  0.00    +0.000 N 
ATOM      2  H   UNL     1      50.019   7.026  13.101  0.00  0.00    +0.000 HD
ENDROOT
BRANCH   1   8
ATOM      3  C   UNL     1      49.179   6.783  16.020  0.00  0.00    +0.000 A 
ATOM      4  C   UNL     1      48.727   5.896  17.000  0.00  0.00    +0.000 A 
ATOM      5  C   UNL     1      47.883   4.869  16.611  0.00  0.00    +0.000 A 
ATOM      6  N   UNL     1      47.452   4.687  15.332  0.00  0.00    +0.000 NA
ATOM      7  C   UNL     1      47.935   5.553  14.407  0.00  0.00    +0.000 A 
ATOM      8  C   UNL     1      48.832   6.588  14.666  0.00  0.00    +0.000 A 
BRANCH   5   9
ATOM      9  C   UNL     1      47.392   3.884  17.629  0.00  0.00    +0.000 C 
ATOM     10  N   UNL     1      47.897   4.046  18.892  0.00  0.00    +0.000 N 
ATOM     11  O   UNL     1      46.598   2.997  17.360  0.00  0.00    +0.000 OA
ATOM     12  H   UNL     1      48.542   4.805  19.082  0.00  0.00    +0.000 HD
ATOM     13  H   UNL     1      47.589   3.430  19.631  0.00  0.00    +0.000 HD
ENDBRANCH   5   9
BRANCH   3  15
ATOM     14  C   UNL     1      51.857   7.330  16.352  0.00  0.00    +0.000 C 
ATOM     15  S   UNL     1      50.241   8.142  16.530  0.00  0.00    +0.000 S 
ENDBRANCH   3  15
ENDBRANCH   1   8
BRANCH   1  16
ATOM     16  C   UNL     1      48.444   8.464  12.986  0.00  0.00    +0.000 C 
ATOM     17  C   UNL     1      49.170   9.544  12.183  0.00  0.00    +0.000 C 
ATOM     18  C   UNL     1      48.474   9.910  13.451  0.00  0.00    +0.000 C 
BRANCH  16  19
ATOM     19  C   UNL     1      47.198   7.908  12.291  0.00  0.00    +0.000 A 
ATOM     20  C   UNL     1      47.247   6.799  11.428  0.00  0.00    +0.000 A 
ATOM     21  C   UNL     1      46.082   6.193  10.932  0.00  0.00    +0.000 A 
ATOM     22  C   UNL     1      44.832   6.677  11.303  0.00  0.00    +0.000 A 
ATOM     23  C   UNL     1      44.763   7.837  12.075  0.00  0.00    +0.000 A 
ATOM     24  C   UNL     1      45.927   8.441  12.563  0.00  0.00    +0.000 A 
BRANCH  22  25
ATOM     25  O   UNL     1      43.630   6.149  10.945  0.00  0.00    +0.000 OA
BRANCH  25  26
ATOM     26  C   UNL     1      43.047   5.139  11.757  0.00  0.00    +0.000 C 
ATOM     27  F   UNL     1      43.679   4.935  12.932  0.00  0.00    +0.000 F 
ATOM     28  F   UNL     1      41.771   5.498  12.039  0.00  0.00    +0.000 F 
ATOM     29  F   UNL     1      43.012   3.976  11.072  0.00  0.00    +0.000 F 
ENDBRANCH  25  26
ENDBRANCH  22  25
ENDBRANCH  16  19
ENDBRANCH   1  16
TORSDOF 7
ENDMDL
MODEL 9
REMARK VINA RESULT:    -5.665      4.073      5.929
REMARK INTER + INTRA:          -8.679
REMARK INTER:                  -7.652
REMARK INTRA:                  -1.026
REMARK UNBOUND:                -0.696
REMARK  Name = 
REMARK  8 active torsions:
REMARK  status: ('A' for Active; 'I' for Inactive)
REMARK    1  A    between atoms: C_1  and  S_2
REMARK    2  A    between atoms: S_2  and  C_3
REMARK    3  A    between atoms: C_5  and  C_6
REMARK    4  A    between atoms: C_11  and  N_12
REMARK    5  A    between atoms: N_12  and  C_13
REMARK    6  A    between atoms: C_13  and  C_14
REMARK    7  A    between atoms: C_17  and  O_18
REMARK    8  A    between atoms: O_18  and  C_19
REMARK                            x       y       z     vdW  Elec       q    Type
REMARK                         _______ _______ _______ _____ _____    ______ ____
ROOT
ATOM      1  N   UNL     1      49.275   7.117  14.822  0.00  0.00    +0.000 N 
ATOM      2  H   UNL     1      49.782   6.243  14.972  0.00  0.00    +0.000 HD
ENDROOT
BRANCH   1   8
ATOM      3  C   UNL     1      48.762   6.796  17.200  0.00  0.00    +0.000 A 
ATOM      4  C   UNL     1      48.268   7.287  18.410  0.00  0.00    +0.000 A 
ATOM      5  C   UNL     1      47.873   8.613  18.463  0.00  0.00    +0.000 A 
ATOM      6  N   UNL     1      47.958   9.471  17.410  0.00  0.00    +0.000 NA
ATOM      7  C   UNL     1      48.416   8.948  16.245  0.00  0.00    +0.000 A 
ATOM      8  C   UNL     1      48.789   7.619  16.053  0.00  0.00    +0.000 A 
BRANCH   5   9
ATOM      9  C   UNL     1      47.319   9.174  19.739  0.00  0.00    +0.000 C 
ATOM     10  N   UNL     1      46.775  10.427  19.641  0.00  0.00    +0.000 N 
ATOM     11  O   UNL     1      47.348   8.564  20.796  0.00  0.00    +0.000 OA
ATOM     12  H   UNL     1      46.754  10.898  18.741  0.00  0.00    +0.000 HD
ATOM     13  H   UNL     1      46.363  10.854  20.458  0.00  0.00    +0.000 HD
ENDBRANCH   5   9
BRANCH   3  15
ATOM     14  C   UNL     1      51.093   5.345  17.412  0.00  0.00    +0.000 C 
ATOM     15  S   UNL     1      49.315   5.086  17.139  0.00  0.00    +0.000 S 
ENDBRANCH   3  15
ENDBRANCH   1   8
BRANCH   1  16
ATOM     16  C   UNL     1      48.549   7.245  13.544  0.00  0.00    +0.000 C 
ATOM     17  C   UNL     1      49.406   7.206  12.277  0.00  0.00    +0.000 C 
ATOM     18  C   UNL     1      48.768   8.488  12.698  0.00  0.00    +0.000 C 
BRANCH  16  19
ATOM     19  C   UNL     1      47.239   6.460  13.430  0.00  0.00    +0.000 A 
ATOM     20  C   UNL     1      46.123   6.953  12.731  0.00  0.00    +0.000 A 
ATOM     21  C   UNL     1      44.991   6.160  12.487  0.00  0.00    +0.000 A 
ATOM     22  C   UNL     1      44.956   4.841  12.926  0.00  0.00    +0.000 A 
ATOM     23  C   UNL     1      46.009   4.366  13.708  0.00  0.00    +0.000 A 
ATOM     24  C   UNL     1      47.133   5.161  13.953  0.00  0.00    +0.000 A 
BRANCH  22  25
ATOM     25  O   UNL     1      43.952   3.950  12.705  0.00  0.00    +0.000 OA
BRANCH  25  26
ATOM     26  C   UNL     1      43.824   3.354  11.421  0.00  0.00    +0.000 C 
ATOM     27  F   UNL     1      43.320   4.173  10.475  0.00  0.00    +0.000 F 
ATOM     28  F   UNL     1      45.052   2.960  11.006  0.00  0.00    +0.000 F 
ATOM     29  F   UNL     1      43.041   2.257  11.510  0.00  0.00    +0.000 F 
ENDBRANCH  25  26
ENDBRANCH  22  25
ENDBRANCH  16  19
ENDBRANCH   1  16
TORSDOF 7
ENDMDL
