MODEL 1
REMARK VINA RESULT:    -7.842      0.000      0.000
REMARK INTER + INTRA:         -12.990
REMARK INTER:                 -11.739
REMARK INTRA:                  -1.251
REMARK UNBOUND:                -1.251
REMARK  Name = 
REMARK  9 active torsions:
REMARK  status: ('A' for Active; 'I' for Inactive)
REMARK    1  A    between atoms: N_1  and  C_2
REMARK    2  A    between atoms: C_2  and  C_3
REMARK    3  A    between atoms: C_3  and  N_4
REMARK    4  A    between atoms: N_4  and  C_5
REMARK    5  A    between atoms: C_5  and  C_6
REMARK    6  A    between atoms: C_9  and  C_10
REMARK    7  A    between atoms: C_10  and  N_11
REMARK    8  A    between atoms: C_12  and  C_14
REMARK    9  A    between atoms: C_26  and  C_28
REMARK                            x       y       z     vdW  Elec       q    Type
REMARK                         _______ _______ _______ _____ _____    ______ ____
ROOT
ATOM      1  C   UNL     1      45.437   6.606  10.974  0.00  0.00    +0.000 A 
ATOM      2  C   UNL     1      44.876   7.742  11.573  0.00  0.00    +0.000 A 
ATOM      3  C   UNL     1      45.600   8.481  12.513  0.00  0.00    +0.000 A 
ATOM      4  C   UNL     1      46.909   8.111  12.855  0.00  0.00    +0.000 A 
ATOM      5  C   UNL     1      47.494   7.018  12.201  0.00  0.00    +0.000 A 
ATOM      6  C   UNL     1      46.769   6.277  11.262  0.00  0.00    +0.000 A 
ENDROOT
BRANCH   1   7
ATOM      7  C   UNL     1      44.553   5.642  10.222  0.00  0.00    +0.000 C 
BRANCH   7   8
ATOM      8  N   UNL     1      43.966   4.464  10.858  0.00  0.00    +0.000 N 
ATOM      9  C   UNL     1      44.113   3.189  10.260  0.00  0.00    +0.000 C 
ATOM     10  O   UNL     1      43.428   2.238  10.650  0.00  0.00    +0.000 OA
BRANCH   9  11
ATOM     11  C   UNL     1      45.025   3.019   9.126  0.00  0.00    +0.000 A 
ATOM     12  C   UNL     1      45.357   3.897   8.107  0.00  0.00    +0.000 A 
ATOM     13  C   UNL     1      46.317   3.247   7.291  0.00  0.00    +0.000 A 
ATOM     14  C   UNL     1      46.489   1.997   7.830  0.00  0.00    +0.000 A 
ATOM     15  O   UNL     1      45.701   1.843   8.922  0.00  0.00    +0.000 OA
ENDBRANCH   9  11
BRANCH   8  16
ATOM     16  C   UNL     1      43.028   4.586  11.981  0.00  0.00    +0.000 C 
BRANCH  16  17
ATOM     17  C   UNL     1      43.640   4.318  13.377  0.00  0.00    +0.000 C 
BRANCH  17  18
ATOM     18  N   UNL     1      44.976   3.713  13.333  0.00  0.00    +0.000 NA
ATOM     19  H   UNL     1      45.259   3.630  12.356  0.00  0.00    +0.000 HD
ATOM     20  H   UNL     1      44.925   2.761  13.692  0.00  0.00    +0.000 HD
ENDBRANCH  17  18
ENDBRANCH  16  17
ENDBRANCH   8  16
ENDBRANCH   7   8
ENDBRANCH   1   7
BRANCH   4  21
ATOM     21  C   UNL     1      47.632   8.798  13.988  0.00  0.00    +0.000 C 
BRANCH  21  22
ATOM     22  N   UNL     1      47.886   7.864  15.061  0.00  0.00    +0.000 N 
ATOM     23  C   UNL     1      49.128   7.324  15.280  0.00  0.00    +0.000 C 
ATOM     24  O   UNL     1      50.097   7.633  14.595  0.00  0.00    +0.000 OA
ATOM     25  H   UNL     1      47.074   7.439  15.497  0.00  0.00    +0.000 HD
BRANCH  23  26
ATOM     26  C   UNL     1      49.249   6.393  16.411  0.00  0.00    +0.000 A 
ATOM     27  C   UNL     1      50.180   6.645  17.409  0.00  0.00    +0.000 A 
ATOM     28  S   UNL     1      50.150   5.509  18.683  0.00  0.00    +0.000 S 
ATOM     29  C   UNL     1      48.928   4.606  17.918  0.00  0.00    +0.000 A 
ATOM     30  N   UNL     1      48.446   3.466  18.482  0.00  0.00    +0.000 NA
ATOM     31  C   UNL     1      47.545   2.861  17.782  0.00  0.00    +0.000 A 
ATOM     32  N   UNL     1      47.081   3.299  16.566  0.00  0.00    +0.000 N 
ATOM     33  C   UNL     1      47.521   4.456  15.970  0.00  0.00    +0.000 A 
ATOM     34  O   UNL     1      47.058   4.832  14.898  0.00  0.00    +0.000 OA
ATOM     35  C   UNL     1      48.540   5.171  16.715  0.00  0.00    +0.000 A 
ATOM     36  H   UNL     1      46.372   2.780  16.069  0.00  0.00    +0.000 HD
ENDBRANCH  23  26
ENDBRANCH  21  22
ENDBRANCH   4  21
TORSDOF 9
ENDMDL
MODEL 2
REMARK VINA RESULT:    -7.674      2.252      2.669
REMARK INTER + INTRA:         -12.738
REMARK INTER:                 -12.198
REMARK INTRA:                  -0.540
REMARK UNBOUND:                -1.251
REMARK  Name = 
REMARK  9 active torsions:
REMARK  status: ('A' for Active; 'I' for Inactive)
REMARK    1  A    between atoms: N_1  and  C_2
REMARK    2  A    between atoms: C_2  and  C_3
REMARK    3  A    between atoms: C_3  and  N_4
REMARK    4  A    between atoms: N_4  and  C_5
REMARK    5  A    between atoms: C_5  and  C_6
REMARK    6  A    between atoms: C_9  and  C_10
REMARK    7  A    between atoms: C_10  and  N_11
REMARK    8  A    between atoms: C_12  and  C_14
REMARK    9  A    between atoms: C_26  and  C_28
REMARK                            x       y       z     vdW  Elec       q    Type
REMARK                         _______ _______ _______ _____ _____    ______ ____
ROOT
ATOM      1  C   UNL     1      46.549   5.566  12.247  0.00  0.00    +0.000 A 
ATOM      2  C   UNL     1      47.218   6.780  12.040  0.00  0.00    +0.000 A 
ATOM      3  C   UNL     1      48.007   7.338  13.052  0.00  0.00    +0.000 A 
ATOM      4  C   UNL     1      48.160   6.680  14.280  0.00  0.00    +0.000 A 
ATOM      5  C   UNL     1      47.548   5.432  14.458  0.00  0.00    +0.000 A 
ATOM      6  C   UNL     1      46.757   4.874  13.448  0.00  0.00    +0.000 A 
ENDROOT
BRANCH   1   7
ATOM      7  C   UNL     1      45.458   5.142  11.295  0.00  0.00    +0.000 C 
BRANCH   7   8
ATOM      8  N   UNL     1      44.511   4.077  11.618  0.00  0.00    +0.000 N 
ATOM      9  C   UNL     1      44.181   3.102  10.645  0.00  0.00    +0.000 C 
ATOM     10  O   UNL     1      43.216   2.352  10.820  0.00  0.00    +0.000 OA
BRANCH   9  11
ATOM     11  C   UNL     1      44.943   3.037   9.395  0.00  0.00    +0.000 A 
ATOM     12  C   UNL     1      45.040   3.952   8.359  0.00  0.00    +0.000 A 
ATOM     13  C   UNL     1      45.941   3.413   7.407  0.00  0.00    +0.000 A 
ATOM     14  C   UNL     1      46.313   2.184   7.892  0.00  0.00    +0.000 A 
ATOM     15  O   UNL     1      45.702   1.941   9.076  0.00  0.00    +0.000 OA
ENDBRANCH   9  11
BRANCH   8  16
ATOM     16  C   UNL     1      43.708   4.111  12.847  0.00  0.00    +0.000 C 
BRANCH  16  17
ATOM     17  C   UNL     1      42.812   5.362  13.009  0.00  0.00    +0.000 C 
BRANCH  17  18
ATOM     18  N   UNL     1      42.187   5.810  11.759  0.00  0.00    +0.000 NA
ATOM     19  H   UNL     1      41.592   5.058  11.408  0.00  0.00    +0.000 HD
ATOM     20  H   UNL     1      42.909   5.947  11.053  0.00  0.00    +0.000 HD
ENDBRANCH  17  18
ENDBRANCH  16  17
ENDBRANCH   8  16
ENDBRANCH   7   8
ENDBRANCH   1   7
BRANCH   4  21
ATOM     21  C   UNL     1      48.866   7.353  15.431  0.00  0.00    +0.000 C 
BRANCH  21  22
ATOM     22  N   UNL     1      49.924   6.507  15.937  0.00  0.00    +0.000 N 
ATOM     23  C   UNL     1      49.809   5.828  17.122  0.00  0.00    +0.000 C 
ATOM     24  O   UNL     1      48.788   5.876  17.800  0.00  0.00    +0.000 OA
ATOM     25  H   UNL     1      50.839   6.618  15.512  0.00  0.00    +0.000 HD
BRANCH  23  26
ATOM     26  C   UNL     1      50.956   4.997  17.516  0.00  0.00    +0.000 A 
ATOM     27  C   UNL     1      52.110   5.602  17.993  0.00  0.00    +0.000 A 
ATOM     28  S   UNL     1      53.321   4.499  18.471  0.00  0.00    +0.000 S 
ATOM     29  C   UNL     1      52.368   3.170  18.003  0.00  0.00    +0.000 A 
ATOM     30  N   UNL     1      52.834   1.898  18.129  0.00  0.00    +0.000 NA
ATOM     31  C   UNL     1      52.023   0.986  17.706  0.00  0.00    +0.000 A 
ATOM     32  N   UNL     1      50.783   1.235  17.172  0.00  0.00    +0.000 N 
ATOM     33  C   UNL     1      50.262   2.500  17.048  0.00  0.00    +0.000 A 
ATOM     34  O   UNL     1      49.136   2.680  16.595  0.00  0.00    +0.000 OA
ATOM     35  C   UNL     1      51.139   3.562  17.503  0.00  0.00    +0.000 A 
ATOM     36  H   UNL     1      50.195   0.475  16.861  0.00  0.00    +0.000 HD
ENDBRANCH  23  26
ENDBRANCH  21  22
ENDBRANCH   4  21
TORSDOF 9
ENDMDL
MODEL 3
REMARK VINA RESULT:    -7.169      1.958      2.293
REMARK INTER + INTRA:         -11.981
REMARK INTER:                 -11.277
REMARK INTRA:                  -0.705
REMARK UNBOUND:                -1.251
REMARK  Name = 
REMARK  9 active torsions:
REMARK  status: ('A' for Active; 'I' for Inactive)
REMARK    1  A    between atoms: N_1  and  C_2
REMARK    2  A    between atoms: C_2  and  C_3
REMARK    3  A    between atoms: C_3  and  N_4
REMARK    4  A    between atoms: N_4  and  C_5
REMARK    5  A    between atoms: C_5  and  C_6
REMARK    6  A    between atoms: C_9  and  C_10
REMARK    7  A    between atoms: C_10  and  N_11
REMARK    8  A    between atoms: C_12  and  C_14
REMARK    9  A    between atoms: C_26  and  C_28
REMARK                            x       y       z     vdW  Elec       q    Type
REMARK                         _______ _______ _______ _____ _____    ______ ____
ROOT
ATOM      1  C   UNL     1      45.739   5.981  11.515  0.00  0.00    +0.000 A 
ATOM      2  C   UNL     1      46.735   5.657  12.447  0.00  0.00    +0.000 A 
ATOM      3  C   UNL     1      47.312   6.650  13.244  0.00  0.00    +0.000 A 
ATOM      4  C   UNL     1      46.887   7.982  13.142  0.00  0.00    +0.000 A 
ATOM      5  C   UNL     1      45.841   8.291  12.262  0.00  0.00    +0.000 A 
ATOM      6  C   UNL     1      45.265   7.299  11.462  0.00  0.00    +0.000 A 
ENDROOT
BRANCH   1   7
ATOM      7  C   UNL     1      45.361   4.984  10.447  0.00  0.00    +0.000 C 
BRANCH   7   8
ATOM      8  N   UNL     1      44.612   3.766  10.747  0.00  0.00    +0.000 N 
ATOM      9  C   UNL     1      44.565   2.712   9.802  0.00  0.00    +0.000 C 
ATOM     10  O   UNL     1      43.751   1.793   9.937  0.00  0.00    +0.000 OA
BRANCH   9  11
ATOM     11  C   UNL     1      45.433   2.755   8.622  0.00  0.00    +0.000 A 
ATOM     12  C   UNL     1      45.490   3.676   7.588  0.00  0.00    +0.000 A 
ATOM     13  C   UNL     1      46.536   3.269   6.723  0.00  0.00    +0.000 A 
ATOM     14  C   UNL     1      47.032   2.103   7.251  0.00  0.00    +0.000 A 
ATOM     15  O   UNL     1      46.361   1.775   8.381  0.00  0.00    +0.000 OA
ENDBRANCH   9  11
BRANCH   8  16
ATOM     16  C   UNL     1      43.712   3.684  11.905  0.00  0.00    +0.000 C 
BRANCH  16  17
ATOM     17  C   UNL     1      42.644   4.801  11.984  0.00  0.00    +0.000 C 
BRANCH  17  18
ATOM     18  N   UNL     1      42.613   5.503  13.272  0.00  0.00    +0.000 NA
ATOM     19  H   UNL     1      41.637   5.646  13.537  0.00  0.00    +0.000 HD
ATOM     20  H   UNL     1      43.011   6.434  13.157  0.00  0.00    +0.000 HD
ENDBRANCH  17  18
ENDBRANCH  16  17
ENDBRANCH   8  16
ENDBRANCH   7   8
ENDBRANCH   1   7
BRANCH   4  21
ATOM     21  C   UNL     1      47.618   9.082  13.873  0.00  0.00    +0.000 C 
BRANCH  21  22
ATOM     22  N   UNL     1      47.504   8.900  15.302  0.00  0.00    +0.000 N 
ATOM     23  C   UNL     1      48.602   8.740  16.107  0.00  0.00    +0.000 C 
ATOM     24  O   UNL     1      49.744   8.777  15.659  0.00  0.00    +0.000 OA
ATOM     25  H   UNL     1      46.585   8.656  15.658  0.00  0.00    +0.000 HD
BRANCH  23  26
ATOM     26  C   UNL     1      48.344   8.570  17.544  0.00  0.00    +0.000 A 
ATOM     27  C   UNL     1      48.180   9.690  18.347  0.00  0.00    +0.000 A 
ATOM     28  S   UNL     1      47.821   9.324  19.975  0.00  0.00    +0.000 S 
ATOM     29  C   UNL     1      47.929   7.653  19.677  0.00  0.00    +0.000 A 
ATOM     30  N   UNL     1      47.745   6.752  20.681  0.00  0.00    +0.000 NA
ATOM     31  C   UNL     1      47.887   5.519  20.325  0.00  0.00    +0.000 A 
ATOM     32  N   UNL     1      48.193   5.106  19.052  0.00  0.00    +0.000 N 
ATOM     33  C   UNL     1      48.363   5.977  18.004  0.00  0.00    +0.000 A 
ATOM     34  O   UNL     1      48.604   5.569  16.873  0.00  0.00    +0.000 OA
ATOM     35  C   UNL     1      48.221   7.378  18.353  0.00  0.00    +0.000 A 
ATOM     36  H   UNL     1      48.289   4.124  18.839  0.00  0.00    +0.000 HD
ENDBRANCH  23  26
ENDBRANCH  21  22
ENDBRANCH   4  21
TORSDOF 9
ENDMDL
MODEL 4
REMARK VINA RESULT:    -6.993      3.286      8.014
REMARK INTER + INTRA:         -11.719
REMARK INTER:                 -10.033
REMARK INTRA:                  -1.686
REMARK UNBOUND:                -1.251
REMARK  Name = 
REMARK  9 active torsions:
REMARK  status: ('A' for Active; 'I' for Inactive)
REMARK    1  A    between atoms: N_1  and  C_2
REMARK    2  A    between atoms: C_2  and  C_3
REMARK    3  A    between atoms: C_3  and  N_4
REMARK    4  A    between atoms: N_4  and  C_5
REMARK    5  A    between atoms: C_5  and  C_6
REMARK    6  A    between atoms: C_9  and  C_10
REMARK    7  A    between atoms: C_10  and  N_11
REMARK    8  A    between atoms: C_12  and  C_14
REMARK    9  A    between atoms: C_26  and  C_28
REMARK                            x       y       z     vdW  Elec       q    Type
REMARK                         _______ _______ _______ _____ _____    ______ ____
ROOT
ATOM      1  C   UNL     1      50.618   5.827  17.831  0.00  0.00    +0.000 A 
ATOM      2  C   UNL     1      51.254   6.171  16.631  0.00  0.00    +0.000 A 
ATOM      3  C   UNL     1      50.614   6.992  15.697  0.00  0.00    +0.000 A 
ATOM      4  C   UNL     1      49.335   7.504  15.957  0.00  0.00    +0.000 A 
ATOM      5  C   UNL     1      48.731   7.217  17.189  0.00  0.00    +0.000 A 
ATOM      6  C   UNL     1      49.369   6.393  18.122  0.00  0.00    +0.000 A 
ENDROOT
BRANCH   1   7
ATOM      7  C   UNL     1      51.164   4.698  18.671  0.00  0.00    +0.000 C 
BRANCH   7   8
ATOM      8  N   UNL     1      51.622   3.441  18.084  0.00  0.00    +0.000 N 
ATOM      9  C   UNL     1      50.685   2.527  17.544  0.00  0.00    +0.000 C 
ATOM     10  O   UNL     1      51.029   1.373  17.270  0.00  0.00    +0.000 OA
BRANCH   9  11
ATOM     11  C   UNL     1      49.286   2.932  17.383  0.00  0.00    +0.000 A 
ATOM     12  C   UNL     1      48.233   2.889  18.283  0.00  0.00    +0.000 A 
ATOM     13  C   UNL     1      47.102   3.438  17.630  0.00  0.00    +0.000 A 
ATOM     14  C   UNL     1      47.512   3.749  16.358  0.00  0.00    +0.000 A 
ATOM     15  O   UNL     1      48.818   3.429  16.193  0.00  0.00    +0.000 OA
ENDBRANCH   9  11
BRANCH   8  16
ATOM     16  C   UNL     1      53.008   2.982  18.241  0.00  0.00    +0.000 C 
BRANCH  16  17
ATOM     17  C   UNL     1      53.779   3.618  19.422  0.00  0.00    +0.000 C 
BRANCH  17  18
ATOM     18  N   UNL     1      53.706   2.843  20.666  0.00  0.00    +0.000 NA
ATOM     19  H   UNL     1      54.655   2.703  21.015  0.00  0.00    +0.000 HD
ATOM     20  H   UNL     1      53.345   1.912  20.460  0.00  0.00    +0.000 HD
ENDBRANCH  17  18
ENDBRANCH  16  17
ENDBRANCH   8  16
ENDBRANCH   7   8
ENDBRANCH   1   7
BRANCH   4  21
ATOM     21  C   UNL     1      48.570   8.247  14.888  0.00  0.00    +0.000 C 
BRANCH  21  22
ATOM     22  N   UNL     1      47.518   7.414  14.352  0.00  0.00    +0.000 N 
ATOM     23  C   UNL     1      47.751   6.489  13.367  0.00  0.00    +0.000 C 
ATOM     24  O   UNL     1      48.873   6.296  12.912  0.00  0.00    +0.000 OA
ATOM     25  H   UNL     1      46.564   7.697  14.554  0.00  0.00    +0.000 HD
BRANCH  23  26
ATOM     26  C   UNL     1      46.592   5.703  12.917  0.00  0.00    +0.000 A 
ATOM     27  C   UNL     1      46.606   4.323  13.054  0.00  0.00    +0.000 A 
ATOM     28  S   UNL     1      45.163   3.565  12.548  0.00  0.00    +0.000 S 
ATOM     29  C   UNL     1      44.488   5.052  12.073  0.00  0.00    +0.000 A 
ATOM     30  N   UNL     1      43.244   5.110  11.523  0.00  0.00    +0.000 NA
ATOM     31  C   UNL     1      42.867   6.295  11.178  0.00  0.00    +0.000 A 
ATOM     32  N   UNL     1      43.622   7.431  11.338  0.00  0.00    +0.000 N 
ATOM     33  C   UNL     1      44.871   7.423  11.910  0.00  0.00    +0.000 A 
ATOM     34  O   UNL     1      45.503   8.463  12.066  0.00  0.00    +0.000 OA
ATOM     35  C   UNL     1      45.345   6.112  12.310  0.00  0.00    +0.000 A 
ATOM     36  H   UNL     1      43.267   8.330  11.047  0.00  0.00    +0.000 HD
ENDBRANCH  23  26
ENDBRANCH  21  22
ENDBRANCH   4  21
TORSDOF 9
ENDMDL
MODEL 5
REMARK VINA RESULT:    -6.690      3.121      4.417
REMARK INTER + INTRA:         -11.266
REMARK INTER:                 -10.118
REMARK INTRA:                  -1.148
REMARK UNBOUND:                -1.251
REMARK  Name = 
REMARK  9 active torsions:
REMARK  status: ('A' for Active; 'I' for Inactive)
REMARK    1  A    between atoms: N_1  and  C_2
REMARK    2  A    between atoms: C_2  and  C_3
REMARK    3  A    between atoms: C_3  and  N_4
REMARK    4  A    between atoms: N_4  and  C_5
REMARK    5  A    between atoms: C_5  and  C_6
REMARK    6  A    between atoms: C_9  and  C_10
REMARK    7  A    between atoms: C_10  and  N_11
REMARK    8  A    between atoms: C_12  and  C_14
REMARK    9  A    between atoms: C_26  and  C_28
REMARK                            x       y       z     vdW  Elec       q    Type
REMARK                         _______ _______ _______ _____ _____    ______ ____
ROOT
ATOM      1  C   UNL     1      46.940   5.741  12.878  0.00  0.00    +0.000 A 
ATOM      2  C   UNL     1      47.905   6.570  13.464  0.00  0.00    +0.000 A 
ATOM      3  C   UNL     1      48.335   6.344  14.775  0.00  0.00    +0.000 A 
ATOM      4  C   UNL     1      47.826   5.268  15.516  0.00  0.00    +0.000 A 
ATOM      5  C   UNL     1      46.915   4.397  14.902  0.00  0.00    +0.000 A 
ATOM      6  C   UNL     1      46.482   4.625  13.592  0.00  0.00    +0.000 A 
ENDROOT
BRANCH   1   7
ATOM      7  C   UNL     1      46.251   6.176  11.608  0.00  0.00    +0.000 C 
BRANCH   7   8
ATOM      8  N   UNL     1      44.997   6.926  11.619  0.00  0.00    +0.000 N 
ATOM      9  C   UNL     1      43.770   6.261  11.379  0.00  0.00    +0.000 C 
ATOM     10  O   UNL     1      42.746   6.911  11.148  0.00  0.00    +0.000 OA
BRANCH   9  11
ATOM     11  C   UNL     1      43.736   4.797  11.330  0.00  0.00    +0.000 A 
ATOM     12  C   UNL     1      43.296   3.881  12.272  0.00  0.00    +0.000 A 
ATOM     13  C   UNL     1      43.448   2.591  11.705  0.00  0.00    +0.000 A 
ATOM     14  C   UNL     1      44.008   2.785  10.467  0.00  0.00    +0.000 A 
ATOM     15  O   UNL     1      44.204   4.106  10.241  0.00  0.00    +0.000 OA
ENDBRANCH   9  11
BRANCH   8  16
ATOM     16  C   UNL     1      44.982   8.395  11.643  0.00  0.00    +0.000 C 
BRANCH  16  17
ATOM     17  C   UNL     1      45.551   9.034  12.932  0.00  0.00    +0.000 C 
BRANCH  17  18
ATOM     18  N   UNL     1      46.650   9.977  12.692  0.00  0.00    +0.000 NA
ATOM     19  H   UNL     1      46.514  10.401  11.773  0.00  0.00    +0.000 HD
ATOM     20  H   UNL     1      47.527   9.463  12.635  0.00  0.00    +0.000 HD
ENDBRANCH  17  18
ENDBRANCH  16  17
ENDBRANCH   8  16
ENDBRANCH   7   8
ENDBRANCH   1   7
BRANCH   4  21
ATOM     21  C   UNL     1      48.155   5.117  16.981  0.00  0.00    +0.000 C 
BRANCH  21  22
ATOM     22  N   UNL     1      49.496   4.600  17.145  0.00  0.00    +0.000 N 
ATOM     23  C   UNL     1      50.144   4.626  18.353  0.00  0.00    +0.000 C 
ATOM     24  O   UNL     1      49.606   5.058  19.367  0.00  0.00    +0.000 OA
ATOM     25  H   UNL     1      50.029   4.439  16.297  0.00  0.00    +0.000 HD
BRANCH  23  26
ATOM     26  C   UNL     1      51.501   4.061  18.382  0.00  0.00    +0.000 A 
ATOM     27  C   UNL     1      52.547   4.818  18.888  0.00  0.00    +0.000 A 
ATOM     28  S   UNL     1      54.043   3.997  18.915  0.00  0.00    +0.000 S 
ATOM     29  C   UNL     1      53.357   2.616  18.197  0.00  0.00    +0.000 A 
ATOM     30  N   UNL     1      54.118   1.523  17.917  0.00  0.00    +0.000 NA
ATOM     31  C   UNL     1      53.479   0.559  17.344  0.00  0.00    +0.000 A 
ATOM     32  N   UNL     1      52.143   0.589  17.028  0.00  0.00    +0.000 N 
ATOM     33  C   UNL     1      51.331   1.660  17.314  0.00  0.00    +0.000 A 
ATOM     34  O   UNL     1      50.135   1.637  17.046  0.00  0.00    +0.000 OA
ATOM     35  C   UNL     1      52.004   2.775  17.954  0.00  0.00    +0.000 A 
ATOM     36  H   UNL     1      51.702  -0.201  16.581  0.00  0.00    +0.000 HD
ENDBRANCH  23  26
ENDBRANCH  21  22
ENDBRANCH   4  21
TORSDOF 9
ENDMDL
MODEL 6
REMARK VINA RESULT:    -6.550      3.438      8.121
REMARK INTER + INTRA:         -11.056
REMARK INTER:                  -9.561
REMARK INTRA:                  -1.494
REMARK UNBOUND:                -1.251
REMARK  Name = 
REMARK  9 active torsions:
REMARK  status: ('A' for Active; 'I' for Inactive)
REMARK    1  A    between atoms: N_1  and  C_2
REMARK    2  A    between atoms: C_2  and  C_3
REMARK    3  A    between atoms: C_3  and  N_4
REMARK    4  A    between atoms: N_4  and  C_5
REMARK    5  A    between atoms: C_5  and  C_6
REMARK    6  A    between atoms: C_9  and  C_10
REMARK    7  A    between atoms: C_10  and  N_11
REMARK    8  A    between atoms: C_12  and  C_14
REMARK    9  A    between atoms: C_26  and  C_28
REMARK                            x       y       z     vdW  Elec       q    Type
REMARK                         _______ _______ _______ _____ _____    ______ ____
ROOT
ATOM      1  C   UNL     1      50.284   5.810  17.743  0.00  0.00    +0.000 A 
ATOM      2  C   UNL     1      50.841   6.128  16.496  0.00  0.00    +0.000 A 
ATOM      3  C   UNL     1      50.248   7.096  15.680  0.00  0.00    +0.000 A 
ATOM      4  C   UNL     1      49.102   7.782  16.104  0.00  0.00    +0.000 A 
ATOM      5  C   UNL     1      48.589   7.514  17.381  0.00  0.00    +0.000 A 
ATOM      6  C   UNL     1      49.180   6.544  18.198  0.00  0.00    +0.000 A 
ENDROOT
BRANCH   1   7
ATOM      7  C   UNL     1      50.725   4.559  18.463  0.00  0.00    +0.000 C 
BRANCH   7   8
ATOM      8  N   UNL     1      50.524   3.225  17.903  0.00  0.00    +0.000 N 
ATOM      9  C   UNL     1      51.635   2.375  17.679  0.00  0.00    +0.000 C 
ATOM     10  O   UNL     1      51.509   1.356  16.993  0.00  0.00    +0.000 OA
BRANCH   9  11
ATOM     11  C   UNL     1      52.952   2.749  18.202  0.00  0.00    +0.000 A 
ATOM     12  C   UNL     1      53.924   3.578  17.666  0.00  0.00    +0.000 A 
ATOM     13  C   UNL     1      54.991   3.628  18.597  0.00  0.00    +0.000 A 
ATOM     14  C   UNL     1      54.633   2.798  19.629  0.00  0.00    +0.000 A 
ATOM     15  O   UNL     1      53.417   2.249  19.391  0.00  0.00    +0.000 OA
ENDBRANCH   9  11
BRANCH   8  16
ATOM     16  C   UNL     1      49.229   2.814  17.345  0.00  0.00    +0.000 C 
BRANCH  16  17
ATOM     17  C   UNL     1      48.010   3.073  18.263  0.00  0.00    +0.000 C 
BRANCH  17  18
ATOM     18  N   UNL     1      46.732   3.150  17.545  0.00  0.00    +0.000 NA
ATOM     19  H   UNL     1      46.529   2.231  17.150  0.00  0.00    +0.000 HD
ATOM     20  H   UNL     1      46.832   3.779  16.749  0.00  0.00    +0.000 HD
ENDBRANCH  17  18
ENDBRANCH  16  17
ENDBRANCH   8  16
ENDBRANCH   7   8
ENDBRANCH   1   7
BRANCH   4  21
ATOM     21  C   UNL     1      48.361   8.701  15.163  0.00  0.00    +0.000 C 
BRANCH  21  22
ATOM     22  N   UNL     1      47.316   7.979  14.474  0.00  0.00    +0.000 N 
ATOM     23  C   UNL     1      47.301   7.843  13.110  0.00  0.00    +0.000 C 
ATOM     24  O   UNL     1      48.195   8.299  12.404  0.00  0.00    +0.000 OA
ATOM     25  H   UNL     1      46.473   7.782  15.004  0.00  0.00    +0.000 HD
BRANCH  23  26
ATOM     26  C   UNL     1      46.184   7.078  12.538  0.00  0.00    +0.000 A 
ATOM     27  C   UNL     1      45.188   7.741  11.835  0.00  0.00    +0.000 A 
ATOM     28  S   UNL     1      44.001   6.705  11.178  0.00  0.00    +0.000 S 
ATOM     29  C   UNL     1      44.745   5.336  11.859  0.00  0.00    +0.000 A 
ATOM     30  N   UNL     1      44.210   4.096  11.692  0.00  0.00    +0.000 NA
ATOM     31  C   UNL     1      44.856   3.149  12.288  0.00  0.00    +0.000 A 
ATOM     32  N   UNL     1      45.994   3.334  13.035  0.00  0.00    +0.000 N 
ATOM     33  C   UNL     1      46.582   4.563  13.211  0.00  0.00    +0.000 A 
ATOM     34  O   UNL     1      47.616   4.683  13.858  0.00  0.00    +0.000 OA
ATOM     35  C   UNL     1      45.889   5.663  12.565  0.00  0.00    +0.000 A 
ATOM     36  H   UNL     1      46.453   2.550  13.475  0.00  0.00    +0.000 HD
ENDBRANCH  23  26
ENDBRANCH  21  22
ENDBRANCH   4  21
TORSDOF 9
ENDMDL
MODEL 7
REMARK VINA RESULT:    -6.473      3.145      4.891
REMARK INTER + INTRA:         -10.941
REMARK INTER:                  -9.821
REMARK INTRA:                  -1.120
REMARK UNBOUND:                -1.251
REMARK  Name = 
REMARK  9 active torsions:
REMARK  status: ('A' for Active; 'I' for Inactive)
REMARK    1  A    between atoms: N_1  and  C_2
REMARK    2  A    between atoms: C_2  and  C_3
REMARK    3  A    between atoms: C_3  and  N_4
REMARK    4  A    between atoms: N_4  and  C_5
REMARK    5  A    between atoms: C_5  and  C_6
REMARK    6  A    between atoms: C_9  and  C_10
REMARK    7  A    between atoms: C_10  and  N_11
REMARK    8  A    between atoms: C_12  and  C_14
REMARK    9  A    between atoms: C_26  and  C_28
REMARK                            x       y       z     vdW  Elec       q    Type
REMARK                         _______ _______ _______ _____ _____    ______ ____
ROOT
ATOM      1  C   UNL     1      47.297   5.721  13.363  0.00  0.00    +0.000 A 
ATOM      2  C   UNL     1      47.997   6.287  14.437  0.00  0.00    +0.000 A 
ATOM      3  C   UNL     1      48.168   5.575  15.628  0.00  0.00    +0.000 A 
ATOM      4  C   UNL     1      47.663   4.273  15.759  0.00  0.00    +0.000 A 
ATOM      5  C   UNL     1      47.026   3.683  14.659  0.00  0.00    +0.000 A 
ATOM      6  C   UNL     1      46.853   4.396  13.468  0.00  0.00    +0.000 A 
ENDROOT
BRANCH   1   7
ATOM      7  C   UNL     1      46.838   6.597  12.224  0.00  0.00    +0.000 C 
BRANCH   7   8
ATOM      8  N   UNL     1      45.534   7.256  12.222  0.00  0.00    +0.000 N 
ATOM      9  C   UNL     1      44.472   6.723  11.451  0.00  0.00    +0.000 C 
ATOM     10  O   UNL     1      43.453   7.392  11.251  0.00  0.00    +0.000 OA
BRANCH   9  11
ATOM     11  C   UNL     1      44.617   5.404  10.829  0.00  0.00    +0.000 A 
ATOM     12  C   UNL     1      45.259   5.035   9.658  0.00  0.00    +0.000 A 
ATOM     13  C   UNL     1      45.133   3.629   9.537  0.00  0.00    +0.000 A 
ATOM     14  C   UNL     1      44.388   3.221  10.615  0.00  0.00    +0.000 A 
ATOM     15  O   UNL     1      44.056   4.284  11.386  0.00  0.00    +0.000 OA
ENDBRANCH   9  11
BRANCH   8  16
ATOM     16  C   UNL     1      45.346   8.587  12.812  0.00  0.00    +0.000 C 
BRANCH  16  17
ATOM     17  C   UNL     1      45.781   9.769  11.913  0.00  0.00    +0.000 C 
BRANCH  17  18
ATOM     18  N   UNL     1      46.856  10.587  12.487  0.00  0.00    +0.000 NA
ATOM     19  H   UNL     1      46.648  10.746  13.474  0.00  0.00    +0.000 HD
ATOM     20  H   UNL     1      46.849  11.506  12.049  0.00  0.00    +0.000 HD
ENDBRANCH  17  18
ENDBRANCH  16  17
ENDBRANCH   8  16
ENDBRANCH   7   8
ENDBRANCH   1   7
BRANCH   4  21
ATOM     21  C   UNL     1      47.694   3.566  17.092  0.00  0.00    +0.000 C 
BRANCH  21  22
ATOM     22  N   UNL     1      49.059   3.328  17.503  0.00  0.00    +0.000 N 
ATOM     23  C   UNL     1      49.837   2.358  16.924  0.00  0.00    +0.000 C 
ATOM     24  O   UNL     1      49.424   1.664  16.000  0.00  0.00    +0.000 OA
ATOM     25  H   UNL     1      49.346   3.733  18.389  0.00  0.00    +0.000 HD
BRANCH  23  26
ATOM     26  C   UNL     1      51.210   2.227  17.432  0.00  0.00    +0.000 A 
ATOM     27  C   UNL     1      51.769   0.965  17.576  0.00  0.00    +0.000 A 
ATOM     28  S   UNL     1      53.390   0.986  18.112  0.00  0.00    +0.000 S 
ATOM     29  C   UNL     1      53.384   2.684  18.226  0.00  0.00    +0.000 A 
ATOM     30  N   UNL     1      54.485   3.358  18.656  0.00  0.00    +0.000 NA
ATOM     31  C   UNL     1      54.335   4.638  18.727  0.00  0.00    +0.000 A 
ATOM     32  N   UNL     1      53.180   5.306  18.400  0.00  0.00    +0.000 N 
ATOM     33  C   UNL     1      52.053   4.670  17.938  0.00  0.00    +0.000 A 
ATOM     34  O   UNL     1      51.051   5.304  17.626  0.00  0.00    +0.000 OA
ATOM     35  C   UNL     1      52.169   3.226  17.847  0.00  0.00    +0.000 A 
ATOM     36  H   UNL     1      53.128   6.311  18.476  0.00  0.00    +0.000 HD
ENDBRANCH  23  26
ENDBRANCH  21  22
ENDBRANCH   4  21
TORSDOF 9
ENDMDL
MODEL 8
REMARK VINA RESULT:    -6.259      3.496      4.820
REMARK INTER + INTRA:         -10.619
REMARK INTER:                  -9.946
REMARK INTRA:                  -0.673
REMARK UNBOUND:                -1.251
REMARK  Name = 
REMARK  9 active torsions:
REMARK  status: ('A' for Active; 'I' for Inactive)
REMARK    1  A    between atoms: N_1  and  C_2
REMARK    2  A    between atoms: C_2  and  C_3
REMARK    3  A    between atoms: C_3  and  N_4
REMARK    4  A    between atoms: N_4  and  C_5
REMARK    5  A    between atoms: C_5  and  C_6
REMARK    6  A    between atoms: C_9  and  C_10
REMARK    7  A    between atoms: C_10  and  N_11
REMARK    8  A    between atoms: C_12  and  C_14
REMARK    9  A    between atoms: C_26  and  C_28
REMARK                            x       y       z     vdW  Elec       q    Type
REMARK                         _______ _______ _______ _____ _____    ______ ____
ROOT
ATOM      1  C   UNL     1      45.722   5.883  11.402  0.00  0.00    +0.000 A 
ATOM      2  C   UNL     1      46.655   5.344  12.298  0.00  0.00    +0.000 A 
ATOM      3  C   UNL     1      47.428   6.182  13.108  0.00  0.00    +0.000 A 
ATOM      4  C   UNL     1      47.265   7.573  13.055  0.00  0.00    +0.000 A 
ATOM      5  C   UNL     1      46.280   8.105  12.211  0.00  0.00    +0.000 A 
ATOM      6  C   UNL     1      45.509   7.269  11.398  0.00  0.00    +0.000 A 
ENDROOT
BRANCH   1   7
ATOM      7  C   UNL     1      45.137   5.013  10.317  0.00  0.00    +0.000 C 
BRANCH   7   8
ATOM      8  N   UNL     1      44.431   3.768  10.610  0.00  0.00    +0.000 N 
ATOM      9  C   UNL     1      44.508   2.679   9.707  0.00  0.00    +0.000 C 
ATOM     10  O   UNL     1      43.735   1.724   9.820  0.00  0.00    +0.000 OA
BRANCH   9  11
ATOM     11  C   UNL     1      45.458   2.726   8.593  0.00  0.00    +0.000 A 
ATOM     12  C   UNL     1      45.658   3.701   7.629  0.00  0.00    +0.000 A 
ATOM     13  C   UNL     1      46.729   3.266   6.810  0.00  0.00    +0.000 A 
ATOM     14  C   UNL     1      47.098   2.035   7.290  0.00  0.00    +0.000 A 
ATOM     15  O   UNL     1      46.326   1.693   8.349  0.00  0.00    +0.000 OA
ENDBRANCH   9  11
BRANCH   8  16
ATOM     16  C   UNL     1      43.452   3.680  11.701  0.00  0.00    +0.000 C 
BRANCH  16  17
ATOM     17  C   UNL     1      42.588   4.947  11.909  0.00  0.00    +0.000 C 
BRANCH  17  18
ATOM     18  N   UNL     1      42.622   5.470  13.280  0.00  0.00    +0.000 NA
ATOM     19  H   UNL     1      41.669   5.472  13.647  0.00  0.00    +0.000 HD
ATOM     20  H   UNL     1      42.914   6.446  13.259  0.00  0.00    +0.000 HD
ENDBRANCH  17  18
ENDBRANCH  16  17
ENDBRANCH   8  16
ENDBRANCH   7   8
ENDBRANCH   1   7
BRANCH   4  21
ATOM     21  C   UNL     1      48.208   8.488  13.797  0.00  0.00    +0.000 C 
BRANCH  21  22
ATOM     22  N   UNL     1      49.575   8.227  13.405  0.00  0.00    +0.000 N 
ATOM     23  C   UNL     1      50.119   8.754  12.262  0.00  0.00    +0.000 C 
ATOM     24  O   UNL     1      49.482   9.504  11.529  0.00  0.00    +0.000 OA
ATOM     25  H   UNL     1      50.043   7.455  13.870  0.00  0.00    +0.000 HD
BRANCH  23  26
ATOM     26  C   UNL     1      51.522   8.414  11.985  0.00  0.00    +0.000 A 
ATOM     27  C   UNL     1      51.862   7.850  10.765  0.00  0.00    +0.000 A 
ATOM     28  S   UNL     1      53.536   7.578  10.573  0.00  0.00    +0.000 S 
ATOM     29  C   UNL     1      53.862   8.154  12.140  0.00  0.00    +0.000 A 
ATOM     30  N   UNL     1      55.132   8.173  12.627  0.00  0.00    +0.000 NA
ATOM     31  C   UNL     1      55.235   8.603  13.840  0.00  0.00    +0.000 A 
ATOM     32  N   UNL     1      54.176   9.020  14.609  0.00  0.00    +0.000 N 
ATOM     33  C   UNL     1      52.881   9.041  14.152  0.00  0.00    +0.000 A 
ATOM     34  O   UNL     1      51.967   9.451  14.859  0.00  0.00    +0.000 OA
ATOM     35  C   UNL     1      52.712   8.560  12.794  0.00  0.00    +0.000 A 
ATOM     36  H   UNL     1      54.324   9.348  15.553  0.00  0.00    +0.000 HD
ENDBRANCH  23  26
ENDBRANCH  21  22
ENDBRANCH   4  21
TORSDOF 9
ENDMDL
MODEL 9
REMARK VINA RESULT:    -6.244      2.221      3.007
REMARK INTER + INTRA:         -10.597
REMARK INTER:                 -10.001
REMARK INTRA:                  -0.596
REMARK UNBOUND:                -1.251
REMARK  Name = 
REMARK  9 active torsions:
REMARK  status: ('A' for Active; 'I' for Inactive)
REMARK    1  A    between atoms: N_1  and  C_2
REMARK    2  A    between atoms: C_2  and  C_3
REMARK    3  A    between atoms: C_3  and  N_4
REMARK    4  A    between atoms: N_4  and  C_5
REMARK    5  A    between atoms: C_5  and  C_6
REMARK    6  A    between atoms: C_9  and  C_10
REMARK    7  A    between atoms: C_10  and  N_11
REMARK    8  A    between atoms: C_12  and  C_14
REMARK    9  A    between atoms: C_26  and  C_28
REMARK                            x       y       z     vdW  Elec       q    Type
REMARK                         _______ _______ _______ _____ _____    ______ ____
ROOT
ATOM      1  C   UNL     1      45.886   5.886  11.260  0.00  0.00    +0.000 A 
ATOM      2  C   UNL     1      46.502   5.178  12.300  0.00  0.00    +0.000 A 
ATOM      3  C   UNL     1      47.303   5.841  13.234  0.00  0.00    +0.000 A 
ATOM      4  C   UNL     1      47.482   7.230  13.161  0.00  0.00    +0.000 A 
ATOM      5  C   UNL     1      46.806   7.946  12.163  0.00  0.00    +0.000 A 
ATOM      6  C   UNL     1      46.007   7.282  11.226  0.00  0.00    +0.000 A 
ENDROOT
BRANCH   1   7
ATOM      7  C   UNL     1      45.304   5.138  10.086  0.00  0.00    +0.000 C 
BRANCH   7   8
ATOM      8  N   UNL     1      44.457   3.959  10.254  0.00  0.00    +0.000 N 
ATOM      9  C   UNL     1      44.582   2.863   9.365  0.00  0.00    +0.000 C 
ATOM     10  O   UNL     1      43.722   1.978   9.346  0.00  0.00    +0.000 OA
BRANCH   9  11
ATOM     11  C   UNL     1      45.696   2.824   8.414  0.00  0.00    +0.000 A 
ATOM     12  C   UNL     1      46.205   3.816   7.591  0.00  0.00    +0.000 A 
ATOM     13  C   UNL     1      47.311   3.260   6.901  0.00  0.00    +0.000 A 
ATOM     14  C   UNL     1      47.393   1.952   7.306  0.00  0.00    +0.000 A 
ATOM     15  O   UNL     1      46.414   1.674   8.200  0.00  0.00    +0.000 OA
ENDBRANCH   9  11
BRANCH   8  16
ATOM     16  C   UNL     1      43.315   3.960  11.177  0.00  0.00    +0.000 C 
BRANCH  16  17
ATOM     17  C   UNL     1      43.561   3.236  12.522  0.00  0.00    +0.000 C 
BRANCH  17  18
ATOM     18  N   UNL     1      43.349   1.785  12.463  0.00  0.00    +0.000 NA
ATOM     19  H   UNL     1      42.620   1.538  13.134  0.00  0.00    +0.000 HD
ATOM     20  H   UNL     1      44.193   1.310  12.781  0.00  0.00    +0.000 HD
ENDBRANCH  17  18
ENDBRANCH  16  17
ENDBRANCH   8  16
ENDBRANCH   7   8
ENDBRANCH   1   7
BRANCH   4  21
ATOM     21  C   UNL     1      48.475   7.927  14.059  0.00  0.00    +0.000 C 
BRANCH  21  22
ATOM     22  N   UNL     1      49.187   6.962  14.867  0.00  0.00    +0.000 N 
ATOM     23  C   UNL     1      49.768   7.299  16.062  0.00  0.00    +0.000 C 
ATOM     24  O   UNL     1      49.685   8.432  16.525  0.00  0.00    +0.000 OA
ATOM     25  H   UNL     1      49.447   6.092  14.414  0.00  0.00    +0.000 HD
BRANCH  23  26
ATOM     26  C   UNL     1      50.455   6.220  16.786  0.00  0.00    +0.000 A 
ATOM     27  C   UNL     1      49.720   5.356  17.585  0.00  0.00    +0.000 A 
ATOM     28  S   UNL     1      50.652   4.119  18.302  0.00  0.00    +0.000 S 
ATOM     29  C   UNL     1      52.084   4.728  17.615  0.00  0.00    +0.000 A 
ATOM     30  N   UNL     1      53.283   4.130  17.854  0.00  0.00    +0.000 NA
ATOM     31  C   UNL     1      54.292   4.713  17.298  0.00  0.00    +0.000 A 
ATOM     32  N   UNL     1      54.208   5.841  16.519  0.00  0.00    +0.000 N 
ATOM     33  C   UNL     1      53.017   6.463  16.231  0.00  0.00    +0.000 A 
ATOM     34  O   UNL     1      52.979   7.450  15.504  0.00  0.00    +0.000 OA
ATOM     35  C   UNL     1      51.851   5.850  16.839  0.00  0.00    +0.000 A 
ATOM     36  H   UNL     1      55.037   6.247  16.111  0.00  0.00    +0.000 HD
ENDBRANCH  23  26
ENDBRANCH  21  22
ENDBRANCH   4  21
TORSDOF 9
ENDMDL
