MODEL 1
REMARK VINA RESULT:    -7.925      0.000      0.000
REMARK INTER + INTRA:         -11.742
REMARK INTER:                 -10.705
REMARK INTRA:                  -1.037
REMARK UNBOUND:                -1.037
REMARK  Name = 
REMARK  6 active torsions:
REMARK  status: ('A' for Active; 'I' for Inactive)
REMARK    1  A    between atoms: C_2  and  C_20
REMARK    2  A    between atoms: N_3  and  C_4
REMARK    3  A    between atoms: C_4  and  C_5
REMARK    4  A    between atoms: C_8  and  C_9
REMARK    5  A    between atoms: C_9  and  N_10
REMARK    6  A    between atoms: C_11  and  C_13
REMARK                            x       y       z     vdW  Elec       q    Type
REMARK                         _______ _______ _______ _____ _____    ______ ____
ROOT
ATOM      1  C   UNL     1      47.523   8.280  13.747  0.00  0.00    +0.000 C 
ENDROOT
BRANCH   1   2
ATOM      2  C   UNL     1      46.491   7.516  12.956  0.00  0.00    +0.000 A 
ATOM      3  C   UNL     1      46.566   6.121  12.838  0.00  0.00    +0.000 A 
ATOM      4  C   UNL     1      45.605   5.410  12.106  0.00  0.00    +0.000 A 
ATOM      5  C   UNL     1      44.560   6.080  11.457  0.00  0.00    +0.000 A 
ATOM      6  C   UNL     1      44.487   7.475  11.573  0.00  0.00    +0.000 A 
ATOM      7  C   UNL     1      45.448   8.186  12.303  0.00  0.00    +0.000 A 
BRANCH   5   8
ATOM      8  C   UNL     1      43.547   5.324  10.635  0.00  0.00    +0.000 C 
BRANCH   8   9
ATOM      9  N   UNL     1      44.125   4.678   9.483  0.00  0.00    +0.000 N 
ATOM     10  C   UNL     1      44.350   3.319   9.462  0.00  0.00    +0.000 C 
ATOM     11  O   UNL     1      44.113   2.582  10.417  0.00  0.00    +0.000 OA
ATOM     12  H   UNL     1      44.260   5.186   8.614  0.00  0.00    +0.000 HD
BRANCH  10  13
ATOM     13  C   UNL     1      44.930   2.793   8.138  0.00  0.00    +0.000 C 
ATOM     14  C   UNL     1      45.975   1.713   8.381  0.00  0.00    +0.000 C 
ATOM     15  C   UNL     1      46.969   1.946   7.271  0.00  0.00    +0.000 C 
ATOM     16  C   UNL     1      46.919   3.447   7.115  0.00  0.00    +0.000 C 
ATOM     17  O   UNL     1      45.562   3.832   7.363  0.00  0.00    +0.000 OA
ENDBRANCH  10  13
ENDBRANCH   8   9
ENDBRANCH   5   8
ENDBRANCH   1   2
BRANCH   1  20
ATOM     18  O   UNL     1      50.011   7.114  14.195  0.00  0.00    +0.000 OA
ATOM     19  C   UNL     1      49.190   7.101  15.108  0.00  0.00    +0.000 C 
ATOM     20  N   UNL     1      47.911   7.576  14.946  0.00  0.00    +0.000 N 
ATOM     21  H   UNL     1      47.332   7.729  15.765  0.00  0.00    +0.000 HD
BRANCH  19  22
ATOM     22  C   UNL     1      49.519   6.539  16.424  0.00  0.00    +0.000 A 
ATOM     23  C   UNL     1      50.388   7.211  17.273  0.00  0.00    +0.000 A 
ATOM     24  S   UNL     1      50.658   6.406  18.754  0.00  0.00    +0.000 S 
ATOM     25  C   UNL     1      49.582   5.155  18.332  0.00  0.00    +0.000 A 
ATOM     26  N   UNL     1      49.323   4.136  19.194  0.00  0.00    +0.000 NA
ATOM     27  C   UNL     1      48.462   3.277  18.760  0.00  0.00    +0.000 A 
ATOM     28  N   UNL     1      47.842   3.344  17.539  0.00  0.00    +0.000 N 
ATOM     29  C   UNL     1      48.100   4.331  16.623  0.00  0.00    +0.000 A 
ATOM     30  O   UNL     1      47.572   4.327  15.515  0.00  0.00    +0.000 OA
ATOM     31  C   UNL     1      49.046   5.336  17.068  0.00  0.00    +0.000 A 
ATOM     32  H   UNL     1      47.186   2.632  17.252  0.00  0.00    +0.000 HD
ENDBRANCH  19  22
ENDBRANCH   1  20
TORSDOF 6
ENDMDL
MODEL 2
REMARK VINA RESULT:    -7.840      2.135      3.685
REMARK INTER + INTRA:         -11.627
REMARK INTER:                 -10.519
REMARK INTRA:                  -1.108
REMARK UNBOUND:                -1.037
REMARK  Name = 
REMARK  6 active torsions:
REMARK  status: ('A' for Active; 'I' for Inactive)
REMARK    1  A    between atoms: C_2  and  C_20
REMARK    2  A    between atoms: N_3  and  C_4
REMARK    3  A    between atoms: C_4  and  C_5
REMARK    4  A    between atoms: C_8  and  C_9
REMARK    5  A    between atoms: C_9  and  N_10
REMARK    6  A    between atoms: C_11  and  C_13
REMARK                            x       y       z     vdW  Elec       q    Type
REMARK                         _______ _______ _______ _____ _____    ______ ____
ROOT
ATOM      1  C   UNL     1      47.045   4.592  14.962  0.00  0.00    +0.000 C 
ENDROOT
BRANCH   1   2
ATOM      2  C   UNL     1      46.194   4.586  13.716  0.00  0.00    +0.000 A 
ATOM      3  C   UNL     1      45.874   3.383  13.071  0.00  0.00    +0.000 A 
ATOM      4  C   UNL     1      45.081   3.377  11.916  0.00  0.00    +0.000 A 
ATOM      5  C   UNL     1      44.606   4.576  11.367  0.00  0.00    +0.000 A 
ATOM      6  C   UNL     1      44.929   5.779  12.011  0.00  0.00    +0.000 A 
ATOM      7  C   UNL     1      45.723   5.785  13.164  0.00  0.00    +0.000 A 
BRANCH   5   8
ATOM      8  C   UNL     1      43.786   4.578  10.102  0.00  0.00    +0.000 C 
BRANCH   8   9
ATOM      9  N   UNL     1      44.295   3.676   9.099  0.00  0.00    +0.000 N 
ATOM     10  C   UNL     1      45.373   4.016   8.311  0.00  0.00    +0.000 C 
ATOM     11  O   UNL     1      45.943   5.103   8.381  0.00  0.00    +0.000 OA
ATOM     12  H   UNL     1      43.954   2.722   9.035  0.00  0.00    +0.000 HD
BRANCH  10  13
ATOM     13  C   UNL     1      45.809   2.918   7.326  0.00  0.00    +0.000 C 
ATOM     14  C   UNL     1      46.283   1.671   8.061  0.00  0.00    +0.000 C 
ATOM     15  C   UNL     1      47.387   1.154   7.174  0.00  0.00    +0.000 C 
ATOM     16  C   UNL     1      47.979   2.432   6.632  0.00  0.00    +0.000 C 
ATOM     17  O   UNL     1      46.887   3.344   6.469  0.00  0.00    +0.000 OA
ENDBRANCH  10  13
ENDBRANCH   8   9
ENDBRANCH   5   8
ENDBRANCH   1   2
BRANCH   1  20
ATOM     18  O   UNL     1      49.227   5.022  16.635  0.00  0.00    +0.000 OA
ATOM     19  C   UNL     1      48.839   5.952  15.936  0.00  0.00    +0.000 C 
ATOM     20  N   UNL     1      47.718   5.854  15.147  0.00  0.00    +0.000 N 
ATOM     21  H   UNL     1      47.544   6.565  14.444  0.00  0.00    +0.000 HD
BRANCH  19  22
ATOM     22  C   UNL     1      49.533   7.247  15.931  0.00  0.00    +0.000 A 
ATOM     23  C   UNL     1      49.846   7.876  17.129  0.00  0.00    +0.000 A 
ATOM     24  S   UNL     1      50.644   9.372  16.928  0.00  0.00    +0.000 S 
ATOM     25  C   UNL     1      50.644   9.206  15.233  0.00  0.00    +0.000 A 
ATOM     26  N   UNL     1      51.219  10.148  14.439  0.00  0.00    +0.000 NA
ATOM     27  C   UNL     1      51.179   9.878  13.177  0.00  0.00    +0.000 A 
ATOM     28  N   UNL     1      50.609   8.753  12.639  0.00  0.00    +0.000 N 
ATOM     29  C   UNL     1      49.985   7.796  13.397  0.00  0.00    +0.000 A 
ATOM     30  O   UNL     1      49.432   6.831  12.877  0.00  0.00    +0.000 OA
ATOM     31  C   UNL     1      50.020   8.039  14.826  0.00  0.00    +0.000 A 
ATOM     32  H   UNL     1      50.598   8.606  11.640  0.00  0.00    +0.000 HD
ENDBRANCH  19  22
ENDBRANCH   1  20
TORSDOF 6
ENDMDL
MODEL 3
REMARK VINA RESULT:    -7.711      1.498      1.959
REMARK INTER + INTRA:         -11.453
REMARK INTER:                 -10.591
REMARK INTRA:                  -0.861
REMARK UNBOUND:                -1.037
REMARK  Name = 
REMARK  6 active torsions:
REMARK  status: ('A' for Active; 'I' for Inactive)
REMARK    1  A    between atoms: C_2  and  C_20
REMARK    2  A    between atoms: N_3  and  C_4
REMARK    3  A    between atoms: C_4  and  C_5
REMARK    4  A    between atoms: C_8  and  C_9
REMARK    5  A    between atoms: C_9  and  N_10
REMARK    6  A    between atoms: C_11  and  C_13
REMARK                            x       y       z     vdW  Elec       q    Type
REMARK                         _______ _______ _______ _____ _____    ______ ____
ROOT
ATOM      1  C   UNL     1      48.208   7.305  14.183  0.00  0.00    +0.000 C 
ENDROOT
BRANCH   1   2
ATOM      2  C   UNL     1      47.284   6.279  13.575  0.00  0.00    +0.000 A 
ATOM      3  C   UNL     1      46.444   6.615  12.504  0.00  0.00    +0.000 A 
ATOM      4  C   UNL     1      45.588   5.662  11.937  0.00  0.00    +0.000 A 
ATOM      5  C   UNL     1      45.536   4.355  12.442  0.00  0.00    +0.000 A 
ATOM      6  C   UNL     1      46.374   4.021  13.515  0.00  0.00    +0.000 A 
ATOM      7  C   UNL     1      47.228   4.974  14.083  0.00  0.00    +0.000 A 
BRANCH   5   8
ATOM      8  C   UNL     1      44.588   3.337  11.861  0.00  0.00    +0.000 C 
BRANCH   8   9
ATOM      9  N   UNL     1      44.975   2.892  10.546  0.00  0.00    +0.000 N 
ATOM     10  C   UNL     1      44.485   3.500   9.410  0.00  0.00    +0.000 C 
ATOM     11  O   UNL     1      43.673   4.422   9.437  0.00  0.00    +0.000 OA
ATOM     12  H   UNL     1      45.715   2.206  10.424  0.00  0.00    +0.000 HD
BRANCH  10  13
ATOM     13  C   UNL     1      45.039   2.926   8.095  0.00  0.00    +0.000 C 
ATOM     14  C   UNL     1      45.938   1.724   8.351  0.00  0.00    +0.000 C 
ATOM     15  C   UNL     1      46.988   1.850   7.276  0.00  0.00    +0.000 C 
ATOM     16  C   UNL     1      47.124   3.348   7.144  0.00  0.00    +0.000 C 
ATOM     17  O   UNL     1      45.815   3.891   7.358  0.00  0.00    +0.000 OA
ENDBRANCH  10  13
ENDBRANCH   8   9
ENDBRANCH   5   8
ENDBRANCH   1   2
BRANCH   1  20
ATOM     18  O   UNL     1      50.457   6.568  15.648  0.00  0.00    +0.000 OA
ATOM     19  C   UNL     1      49.446   6.896  16.261  0.00  0.00    +0.000 C 
ATOM     20  N   UNL     1      48.267   7.190  15.620  0.00  0.00    +0.000 N 
ATOM     21  H   UNL     1      47.521   7.643  16.139  0.00  0.00    +0.000 HD
BRANCH  19  22
ATOM     22  C   UNL     1      49.427   6.957  17.729  0.00  0.00    +0.000 A 
ATOM     23  C   UNL     1      49.657   8.161  18.381  0.00  0.00    +0.000 A 
ATOM     24  S   UNL     1      49.604   8.038  20.083  0.00  0.00    +0.000 S 
ATOM     25  C   UNL     1      49.222   6.380  20.006  0.00  0.00    +0.000 A 
ATOM     26  N   UNL     1      49.004   5.660  21.139  0.00  0.00    +0.000 NA
ATOM     27  C   UNL     1      48.687   4.425  20.932  0.00  0.00    +0.000 A 
ATOM     28  N   UNL     1      48.576   3.845  19.694  0.00  0.00    +0.000 N 
ATOM     29  C   UNL     1      48.823   4.522  18.527  0.00  0.00    +0.000 A 
ATOM     30  O   UNL     1      48.772   3.956  17.439  0.00  0.00    +0.000 OA
ATOM     31  C   UNL     1      49.161   5.921  18.700  0.00  0.00    +0.000 A 
ATOM     32  H   UNL     1      48.337   2.869  19.600  0.00  0.00    +0.000 HD
ENDBRANCH  19  22
ENDBRANCH   1  20
TORSDOF 6
ENDMDL
MODEL 4
REMARK VINA RESULT:    -7.546      2.344      2.905
REMARK INTER + INTRA:         -11.229
REMARK INTER:                 -10.331
REMARK INTRA:                  -0.898
REMARK UNBOUND:                -1.037
REMARK  Name = 
REMARK  6 active torsions:
REMARK  status: ('A' for Active; 'I' for Inactive)
REMARK    1  A    between atoms: C_2  and  C_20
REMARK    2  A    between atoms: N_3  and  C_4
REMARK    3  A    between atoms: C_4  and  C_5
REMARK    4  A    between atoms: C_8  and  C_9
REMARK    5  A    between atoms: C_9  and  N_10
REMARK    6  A    between atoms: C_11  and  C_13
REMARK                            x       y       z     vdW  Elec       q    Type
REMARK                         _______ _______ _______ _____ _____    ______ ____
ROOT
ATOM      1  C   UNL     1      48.700   6.678  14.530  0.00  0.00    +0.000 C 
ENDROOT
BRANCH   1   2
ATOM      2  C   UNL     1      47.562   6.371  13.588  0.00  0.00    +0.000 A 
ATOM      3  C   UNL     1      46.760   5.236  13.778  0.00  0.00    +0.000 A 
ATOM      4  C   UNL     1      45.701   4.953  12.905  0.00  0.00    +0.000 A 
ATOM      5  C   UNL     1      45.433   5.784  11.810  0.00  0.00    +0.000 A 
ATOM      6  C   UNL     1      46.238   6.917  11.619  0.00  0.00    +0.000 A 
ATOM      7  C   UNL     1      47.296   7.200  12.490  0.00  0.00    +0.000 A 
BRANCH   5   8
ATOM      8  C   UNL     1      44.320   5.461  10.845  0.00  0.00    +0.000 C 
BRANCH   8   9
ATOM      9  N   UNL     1      44.780   4.772   9.665  0.00  0.00    +0.000 N 
ATOM     10  C   UNL     1      44.501   3.438   9.461  0.00  0.00    +0.000 C 
ATOM     11  O   UNL     1      43.885   2.747  10.270  0.00  0.00    +0.000 OA
ATOM     12  H   UNL     1      45.208   5.281   8.898  0.00  0.00    +0.000 HD
BRANCH  10  13
ATOM     13  C   UNL     1      45.029   2.877   8.130  0.00  0.00    +0.000 C 
ATOM     14  C   UNL     1      46.057   1.777   8.361  0.00  0.00    +0.000 C 
ATOM     15  C   UNL     1      47.022   1.969   7.218  0.00  0.00    +0.000 C 
ATOM     16  C   UNL     1      47.001   3.468   7.038  0.00  0.00    +0.000 C 
ATOM     17  O   UNL     1      45.660   3.887   7.319  0.00  0.00    +0.000 OA
ENDBRANCH  10  13
ENDBRANCH   8   9
ENDBRANCH   5   8
ENDBRANCH   1   2
BRANCH   1  20
ATOM     18  O   UNL     1      50.021   5.438  16.643  0.00  0.00    +0.000 OA
ATOM     19  C   UNL     1      49.030   6.117  16.895  0.00  0.00    +0.000 C 
ATOM     20  N   UNL     1      48.268   6.692  15.907  0.00  0.00    +0.000 N 
ATOM     21  H   UNL     1      47.584   7.398  16.157  0.00  0.00    +0.000 HD
BRANCH  19  22
ATOM     22  C   UNL     1      48.576   6.324  18.277  0.00  0.00    +0.000 A 
ATOM     23  C   UNL     1      48.630   5.281  19.193  0.00  0.00    +0.000 A 
ATOM     24  S   UNL     1      48.055   5.703  20.744  0.00  0.00    +0.000 S 
ATOM     25  C   UNL     1      47.762   7.309  20.258  0.00  0.00    +0.000 A 
ATOM     26  N   UNL     1      47.287   8.230  21.139  0.00  0.00    +0.000 NA
ATOM     27  C   UNL     1      47.147   9.415  20.646  0.00  0.00    +0.000 A 
ATOM     28  N   UNL     1      47.432   9.760  19.350  0.00  0.00    +0.000 N 
ATOM     29  C   UNL     1      47.876   8.857  18.418  0.00  0.00    +0.000 A 
ATOM     30  O   UNL     1      48.064   9.187  17.250  0.00  0.00    +0.000 OA
ATOM     31  C   UNL     1      48.074   7.513  18.924  0.00  0.00    +0.000 A 
ATOM     32  H   UNL     1      47.287  10.703  19.022  0.00  0.00    +0.000 HD
ENDBRANCH  19  22
ENDBRANCH   1  20
TORSDOF 6
ENDMDL
MODEL 5
REMARK VINA RESULT:    -7.382      4.390      9.580
REMARK INTER + INTRA:         -11.008
REMARK INTER:                 -10.096
REMARK INTRA:                  -0.912
REMARK UNBOUND:                -1.037
REMARK  Name = 
REMARK  6 active torsions:
REMARK  status: ('A' for Active; 'I' for Inactive)
REMARK    1  A    between atoms: C_2  and  C_20
REMARK    2  A    between atoms: N_3  and  C_4
REMARK    3  A    between atoms: C_4  and  C_5
REMARK    4  A    between atoms: C_8  and  C_9
REMARK    5  A    between atoms: C_9  and  N_10
REMARK    6  A    between atoms: C_11  and  C_13
REMARK                            x       y       z     vdW  Elec       q    Type
REMARK                         _______ _______ _______ _____ _____    ______ ____
ROOT
ATOM      1  C   UNL     1      47.224   3.419  16.642  0.00  0.00    +0.000 C 
ENDROOT
BRANCH   1   2
ATOM      2  C   UNL     1      48.669   3.590  17.040  0.00  0.00    +0.000 A 
ATOM      3  C   UNL     1      49.176   4.853  17.376  0.00  0.00    +0.000 A 
ATOM      4  C   UNL     1      50.517   5.011  17.749  0.00  0.00    +0.000 A 
ATOM      5  C   UNL     1      51.389   3.914  17.773  0.00  0.00    +0.000 A 
ATOM      6  C   UNL     1      50.881   2.652  17.433  0.00  0.00    +0.000 A 
ATOM      7  C   UNL     1      49.542   2.494  17.059  0.00  0.00    +0.000 A 
BRANCH   5   8
ATOM      8  C   UNL     1      52.842   4.086  18.134  0.00  0.00    +0.000 C 
BRANCH   8   9
ATOM      9  N   UNL     1      53.617   2.886  17.940  0.00  0.00    +0.000 N 
ATOM     10  C   UNL     1      54.139   2.189  19.008  0.00  0.00    +0.000 C 
ATOM     11  O   UNL     1      54.015   2.553  20.175  0.00  0.00    +0.000 OA
ATOM     12  H   UNL     1      53.688   2.455  17.023  0.00  0.00    +0.000 HD
BRANCH  10  13
ATOM     13  C   UNL     1      54.899   0.910  18.620  0.00  0.00    +0.000 C 
ATOM     14  C   UNL     1      54.599   0.503  17.183  0.00  0.00    +0.000 C 
ATOM     15  C   UNL     1      54.625  -1.004  17.244  0.00  0.00    +0.000 C 
ATOM     16  C   UNL     1      54.078  -1.271  18.625  0.00  0.00    +0.000 C 
ATOM     17  O   UNL     1      54.558  -0.210  19.460  0.00  0.00    +0.000 OA
ENDBRANCH  10  13
ENDBRANCH   8   9
ENDBRANCH   5   8
ENDBRANCH   1   2
BRANCH   1  20
ATOM     18  O   UNL     1      47.199   3.149  13.872  0.00  0.00    +0.000 OA
ATOM     19  C   UNL     1      46.748   4.181  14.359  0.00  0.00    +0.000 C 
ATOM     20  N   UNL     1      46.800   4.435  15.709  0.00  0.00    +0.000 N 
ATOM     21  H   UNL     1      46.248   5.196  16.090  0.00  0.00    +0.000 HD
BRANCH  19  22
ATOM     22  C   UNL     1      46.157   5.229  13.517  0.00  0.00    +0.000 A 
ATOM     23  C   UNL     1      46.876   6.382  13.228  0.00  0.00    +0.000 A 
ATOM     24  S   UNL     1      46.028   7.489  12.244  0.00  0.00    +0.000 S 
ATOM     25  C   UNL     1      44.689   6.442  12.126  0.00  0.00    +0.000 A 
ATOM     26  N   UNL     1      43.603   6.778  11.380  0.00  0.00    +0.000 NA
ATOM     27  C   UNL     1      42.679   5.877  11.350  0.00  0.00    +0.000 A 
ATOM     28  N   UNL     1      42.740   4.674  12.006  0.00  0.00    +0.000 N 
ATOM     29  C   UNL     1      43.798   4.309  12.799  0.00  0.00    +0.000 A 
ATOM     30  O   UNL     1      43.793   3.250  13.419  0.00  0.00    +0.000 OA
ATOM     31  C   UNL     1      44.877   5.277  12.850  0.00  0.00    +0.000 A 
ATOM     32  H   UNL     1      41.976   4.017  11.953  0.00  0.00    +0.000 HD
ENDBRANCH  19  22
ENDBRANCH   1  20
TORSDOF 6
ENDMDL
MODEL 6
REMARK VINA RESULT:    -7.261      2.338      3.036
REMARK INTER + INTRA:         -10.845
REMARK INTER:                  -9.891
REMARK INTRA:                  -0.953
REMARK UNBOUND:                -1.037
REMARK  Name = 
REMARK  6 active torsions:
REMARK  status: ('A' for Active; 'I' for Inactive)
REMARK    1  A    between atoms: C_2  and  C_20
REMARK    2  A    between atoms: N_3  and  C_4
REMARK    3  A    between atoms: C_4  and  C_5
REMARK    4  A    between atoms: C_8  and  C_9
REMARK    5  A    between atoms: C_9  and  N_10
REMARK    6  A    between atoms: C_11  and  C_13
REMARK                            x       y       z     vdW  Elec       q    Type
REMARK                         _______ _______ _______ _____ _____    ______ ____
ROOT
ATOM      1  C   UNL     1      47.475   4.397  15.701  0.00  0.00    +0.000 C 
ENDROOT
BRANCH   1   2
ATOM      2  C   UNL     1      46.919   4.819  14.364  0.00  0.00    +0.000 A 
ATOM      3  C   UNL     1      47.518   5.854  13.632  0.00  0.00    +0.000 A 
ATOM      4  C   UNL     1      47.003   6.244  12.388  0.00  0.00    +0.000 A 
ATOM      5  C   UNL     1      45.865   5.623  11.857  0.00  0.00    +0.000 A 
ATOM      6  C   UNL     1      45.264   4.591  12.592  0.00  0.00    +0.000 A 
ATOM      7  C   UNL     1      45.777   4.201  13.835  0.00  0.00    +0.000 A 
BRANCH   5   8
ATOM      8  C   UNL     1      45.284   6.067  10.539  0.00  0.00    +0.000 C 
BRANCH   8   9
ATOM      9  N   UNL     1      45.578   5.158   9.459  0.00  0.00    +0.000 N 
ATOM     10  C   UNL     1      44.695   4.163   9.100  0.00  0.00    +0.000 C 
ATOM     11  O   UNL     1      43.633   3.961   9.684  0.00  0.00    +0.000 OA
ATOM     12  H   UNL     1      46.381   5.308   8.856  0.00  0.00    +0.000 HD
BRANCH  10  13
ATOM     13  C   UNL     1      45.151   3.316   7.899  0.00  0.00    +0.000 C 
ATOM     14  C   UNL     1      45.809   2.019   8.353  0.00  0.00    +0.000 C 
ATOM     15  C   UNL     1      46.877   1.798   7.313  0.00  0.00    +0.000 C 
ATOM     16  C   UNL     1      47.290   3.212   6.981  0.00  0.00    +0.000 C 
ATOM     17  O   UNL     1      46.102   4.008   7.066  0.00  0.00    +0.000 OA
ENDBRANCH  10  13
ENDBRANCH   8   9
ENDBRANCH   5   8
ENDBRANCH   1   2
BRANCH   1  20
ATOM     18  O   UNL     1      49.974   4.828  16.847  0.00  0.00    +0.000 OA
ATOM     19  C   UNL     1      49.119   5.699  16.974  0.00  0.00    +0.000 C 
ATOM     20  N   UNL     1      47.834   5.532  16.516  0.00  0.00    +0.000 N 
ATOM     21  H   UNL     1      47.219   6.338  16.463  0.00  0.00    +0.000 HD
BRANCH  19  22
ATOM     22  C   UNL     1      49.411   6.963  17.662  0.00  0.00    +0.000 A 
ATOM     23  C   UNL     1      50.341   7.848  17.132  0.00  0.00    +0.000 A 
ATOM     24  S   UNL     1      50.555   9.258  18.069  0.00  0.00    +0.000 S 
ATOM     25  C   UNL     1      49.373   8.759  19.189  0.00  0.00    +0.000 A 
ATOM     26  N   UNL     1      49.036   9.545  20.246  0.00  0.00    +0.000 NA
ATOM     27  C   UNL     1      48.101   9.061  20.993  0.00  0.00    +0.000 A 
ATOM     28  N   UNL     1      47.478   7.857  20.782  0.00  0.00    +0.000 N 
ATOM     29  C   UNL     1      47.811   7.016  19.751  0.00  0.00    +0.000 A 
ATOM     30  O   UNL     1      47.275   5.919  19.626  0.00  0.00    +0.000 OA
ATOM     31  C   UNL     1      48.842   7.521  18.867  0.00  0.00    +0.000 A 
ATOM     32  H   UNL     1      46.762   7.528  21.412  0.00  0.00    +0.000 HD
ENDBRANCH  19  22
ENDBRANCH   1  20
TORSDOF 6
ENDMDL
MODEL 7
REMARK VINA RESULT:    -7.122      2.038      3.050
REMARK INTER + INTRA:         -10.657
REMARK INTER:                  -9.861
REMARK INTRA:                  -0.796
REMARK UNBOUND:                -1.037
REMARK  Name = 
REMARK  6 active torsions:
REMARK  status: ('A' for Active; 'I' for Inactive)
REMARK    1  A    between atoms: C_2  and  C_20
REMARK    2  A    between atoms: N_3  and  C_4
REMARK    3  A    between atoms: C_4  and  C_5
REMARK    4  A    between atoms: C_8  and  C_9
REMARK    5  A    between atoms: C_9  and  N_10
REMARK    6  A    between atoms: C_11  and  C_13
REMARK                            x       y       z     vdW  Elec       q    Type
REMARK                         _______ _______ _______ _____ _____    ______ ____
ROOT
ATOM      1  C   UNL     1      47.272   4.135  15.599  0.00  0.00    +0.000 C 
ENDROOT
BRANCH   1   2
ATOM      2  C   UNL     1      46.812   4.615  14.245  0.00  0.00    +0.000 A 
ATOM      3  C   UNL     1      47.249   5.846  13.734  0.00  0.00    +0.000 A 
ATOM      4  C   UNL     1      46.825   6.290  12.475  0.00  0.00    +0.000 A 
ATOM      5  C   UNL     1      45.936   5.526  11.707  0.00  0.00    +0.000 A 
ATOM      6  C   UNL     1      45.497   4.297  12.220  0.00  0.00    +0.000 A 
ATOM      7  C   UNL     1      45.920   3.853  13.479  0.00  0.00    +0.000 A 
BRANCH   5   8
ATOM      8  C   UNL     1      45.445   6.019  10.369  0.00  0.00    +0.000 C 
BRANCH   8   9
ATOM      9  N   UNL     1      45.768   5.124   9.286  0.00  0.00    +0.000 N 
ATOM     10  C   UNL     1      44.883   4.151   8.874  0.00  0.00    +0.000 C 
ATOM     11  O   UNL     1      43.796   3.957   9.412  0.00  0.00    +0.000 OA
ATOM     12  H   UNL     1      46.596   5.272   8.718  0.00  0.00    +0.000 HD
BRANCH  10  13
ATOM     13  C   UNL     1      45.372   3.317   7.677  0.00  0.00    +0.000 C 
ATOM     14  C   UNL     1      45.929   1.973   8.128  0.00  0.00    +0.000 C 
ATOM     15  C   UNL     1      47.051   1.725   7.153  0.00  0.00    +0.000 C 
ATOM     16  C   UNL     1      47.559   3.124   6.897  0.00  0.00    +0.000 C 
ATOM     17  O   UNL     1      46.412   3.981   6.932  0.00  0.00    +0.000 OA
ENDBRANCH  10  13
ENDBRANCH   8   9
ENDBRANCH   5   8
ENDBRANCH   1   2
BRANCH   1  20
ATOM     18  O   UNL     1      46.790   4.805  18.257  0.00  0.00    +0.000 OA
ATOM     19  C   UNL     1      47.702   5.379  17.669  0.00  0.00    +0.000 C 
ATOM     20  N   UNL     1      47.953   5.173  16.334  0.00  0.00    +0.000 N 
ATOM     21  H   UNL     1      48.825   5.509  15.937  0.00  0.00    +0.000 HD
BRANCH  19  22
ATOM     22  C   UNL     1      48.560   6.354  18.355  0.00  0.00    +0.000 A 
ATOM     23  C   UNL     1      47.994   7.368  19.117  0.00  0.00    +0.000 A 
ATOM     24  S   UNL     1      49.142   8.409  19.832  0.00  0.00    +0.000 S 
ATOM     25  C   UNL     1      50.438   7.510  19.190  0.00  0.00    +0.000 A 
ATOM     26  N   UNL     1      51.727   7.852  19.457  0.00  0.00    +0.000 NA
ATOM     27  C   UNL     1      52.606   7.063  18.937  0.00  0.00    +0.000 A 
ATOM     28  N   UNL     1      52.313   5.966  18.168  0.00  0.00    +0.000 N 
ATOM     29  C   UNL     1      51.031   5.605  17.842  0.00  0.00    +0.000 A 
ATOM     30  O   UNL     1      50.806   4.652  17.101  0.00  0.00    +0.000 OA
ATOM     31  C   UNL     1      50.000   6.446  18.419  0.00  0.00    +0.000 A 
ATOM     32  H   UNL     1      53.048   5.396  17.778  0.00  0.00    +0.000 HD
ENDBRANCH  19  22
ENDBRANCH   1  20
TORSDOF 6
ENDMDL
MODEL 8
REMARK VINA RESULT:    -7.114      2.003      2.320
REMARK INTER + INTRA:         -10.646
REMARK INTER:                  -9.653
REMARK INTRA:                  -0.993
REMARK UNBOUND:                -1.037
REMARK  Name = 
REMARK  6 active torsions:
REMARK  status: ('A' for Active; 'I' for Inactive)
REMARK    1  A    between atoms: C_2  and  C_20
REMARK    2  A    between atoms: N_3  and  C_4
REMARK    3  A    between atoms: C_4  and  C_5
REMARK    4  A    between atoms: C_8  and  C_9
REMARK    5  A    between atoms: C_9  and  N_10
REMARK    6  A    between atoms: C_11  and  C_13
REMARK                            x       y       z     vdW  Elec       q    Type
REMARK                         _______ _______ _______ _____ _____    ______ ____
ROOT
ATOM      1  C   UNL     1      48.838   7.802  13.657  0.00  0.00    +0.000 C 
ENDROOT
BRANCH   1   2
ATOM      2  C   UNL     1      47.776   6.797  13.285  0.00  0.00    +0.000 A 
ATOM      3  C   UNL     1      47.574   5.646  14.061  0.00  0.00    +0.000 A 
ATOM      4  C   UNL     1      46.586   4.715  13.718  0.00  0.00    +0.000 A 
ATOM      5  C   UNL     1      45.791   4.900  12.579  0.00  0.00    +0.000 A 
ATOM      6  C   UNL     1      45.996   6.049  11.802  0.00  0.00    +0.000 A 
ATOM      7  C   UNL     1      46.984   6.980  12.144  0.00  0.00    +0.000 A 
BRANCH   5   8
ATOM      8  C   UNL     1      44.753   3.880  12.183  0.00  0.00    +0.000 C 
BRANCH   8   9
ATOM      9  N   UNL     1      44.999   3.301  10.886  0.00  0.00    +0.000 N 
ATOM     10  C   UNL     1      44.351   3.764   9.761  0.00  0.00    +0.000 C 
ATOM     11  O   UNL     1      43.510   4.660   9.788  0.00  0.00    +0.000 OA
ATOM     12  H   UNL     1      45.746   2.627  10.749  0.00  0.00    +0.000 HD
BRANCH  10  13
ATOM     13  C   UNL     1      44.767   3.061   8.457  0.00  0.00    +0.000 C 
ATOM     14  C   UNL     1      45.698   1.888   8.733  0.00  0.00    +0.000 C 
ATOM     15  C   UNL     1      46.626   1.905   7.545  0.00  0.00    +0.000 C 
ATOM     16  C   UNL     1      46.736   3.382   7.253  0.00  0.00    +0.000 C 
ATOM     17  O   UNL     1      45.453   3.946   7.550  0.00  0.00    +0.000 OA
ENDBRANCH  10  13
ENDBRANCH   8   9
ENDBRANCH   5   8
ENDBRANCH   1   2
BRANCH   1  20
ATOM     18  O   UNL     1      50.508   8.990  15.540  0.00  0.00    +0.000 OA
ATOM     19  C   UNL     1      50.700   7.812  15.254  0.00  0.00    +0.000 C 
ATOM     20  N   UNL     1      49.981   7.173  14.274  0.00  0.00    +0.000 N 
ATOM     21  H   UNL     1      50.031   6.161  14.204  0.00  0.00    +0.000 HD
BRANCH  19  22
ATOM     22  C   UNL     1      51.745   7.024  15.921  0.00  0.00    +0.000 A 
ATOM     23  C   UNL     1      53.084   7.346  15.743  0.00  0.00    +0.000 A 
ATOM     24  S   UNL     1      54.153   6.318  16.588  0.00  0.00    +0.000 S 
ATOM     25  C   UNL     1      52.860   5.438  17.263  0.00  0.00    +0.000 A 
ATOM     26  N   UNL     1      53.088   4.416  18.130  0.00  0.00    +0.000 NA
ATOM     27  C   UNL     1      52.018   3.861  18.593  0.00  0.00    +0.000 A 
ATOM     28  N   UNL     1      50.740   4.234  18.260  0.00  0.00    +0.000 N 
ATOM     29  C   UNL     1      50.464   5.233  17.364  0.00  0.00    +0.000 A 
ATOM     30  O   UNL     1      49.309   5.501  17.043  0.00  0.00    +0.000 OA
ATOM     31  C   UNL     1      51.631   5.906  16.829  0.00  0.00    +0.000 A 
ATOM     32  H   UNL     1      49.944   3.750  18.647  0.00  0.00    +0.000 HD
ENDBRANCH  19  22
ENDBRANCH   1  20
TORSDOF 6
ENDMDL
MODEL 9
REMARK VINA RESULT:    -6.726      2.598      3.412
REMARK INTER + INTRA:         -10.122
REMARK INTER:                  -9.182
REMARK INTRA:                  -0.940
REMARK UNBOUND:                -1.037
REMARK  Name = 
REMARK  6 active torsions:
REMARK  status: ('A' for Active; 'I' for Inactive)
REMARK    1  A    between atoms: C_2  and  C_20
REMARK    2  A    between atoms: N_3  and  C_4
REMARK    3  A    between atoms: C_4  and  C_5
REMARK    4  A    between atoms: C_8  and  C_9
REMARK    5  A    between atoms: C_9  and  N_10
REMARK    6  A    between atoms: C_11  and  C_13
REMARK                            x       y       z     vdW  Elec       q    Type
REMARK                         _______ _______ _______ _____ _____    ______ ____
ROOT
ATOM      1  C   UNL     1      48.887   7.832  13.554  0.00  0.00    +0.000 C 
ENDROOT
BRANCH   1   2
ATOM      2  C   UNL     1      47.807   6.855  13.163  0.00  0.00    +0.000 A 
ATOM      3  C   UNL     1      47.554   5.716  13.941  0.00  0.00    +0.000 A 
ATOM      4  C   UNL     1      46.549   4.809  13.580  0.00  0.00    +0.000 A 
ATOM      5  C   UNL     1      45.787   5.008  12.420  0.00  0.00    +0.000 A 
ATOM      6  C   UNL     1      46.043   6.145  11.641  0.00  0.00    +0.000 A 
ATOM      7  C   UNL     1      47.048   7.051  12.001  0.00  0.00    +0.000 A 
BRANCH   5   8
ATOM      8  C   UNL     1      44.732   4.014  12.006  0.00  0.00    +0.000 C 
BRANCH   8   9
ATOM      9  N   UNL     1      45.013   3.389  10.738  0.00  0.00    +0.000 N 
ATOM     10  C   UNL     1      44.401   3.814   9.578  0.00  0.00    +0.000 C 
ATOM     11  O   UNL     1      43.563   4.713   9.549  0.00  0.00    +0.000 OA
ATOM     12  H   UNL     1      45.761   2.709  10.647  0.00  0.00    +0.000 HD
BRANCH  10  13
ATOM     13  C   UNL     1      44.852   3.065   8.313  0.00  0.00    +0.000 C 
ATOM     14  C   UNL     1      45.717   1.861   8.661  0.00  0.00    +0.000 C 
ATOM     15  C   UNL     1      46.705   1.811   7.523  0.00  0.00    +0.000 C 
ATOM     16  C   UNL     1      46.892   3.275   7.206  0.00  0.00    +0.000 C 
ATOM     17  O   UNL     1      45.621   3.900   7.424  0.00  0.00    +0.000 OA
ENDBRANCH  10  13
ENDBRANCH   8   9
ENDBRANCH   5   8
ENDBRANCH   1   2
BRANCH   1  20
ATOM     18  O   UNL     1      49.582   8.377  16.193  0.00  0.00    +0.000 OA
ATOM     19  C   UNL     1      50.171   7.470  15.612  0.00  0.00    +0.000 C 
ATOM     20  N   UNL     1      49.953   7.191  14.284  0.00  0.00    +0.000 N 
ATOM     21  H   UNL     1      50.306   6.322  13.897  0.00  0.00    +0.000 HD
BRANCH  19  22
ATOM     22  C   UNL     1      51.179   6.651  16.298  0.00  0.00    +0.000 A 
ATOM     23  C   UNL     1      50.791   5.723  17.255  0.00  0.00    +0.000 A 
ATOM     24  S   UNL     1      52.095   4.869  17.949  0.00  0.00    +0.000 S 
ATOM     25  C   UNL     1      53.221   5.674  16.957  0.00  0.00    +0.000 A 
ATOM     26  N   UNL     1      54.547   5.379  17.022  0.00  0.00    +0.000 NA
ATOM     27  C   UNL     1      55.281   6.038  16.188  0.00  0.00    +0.000 A 
ATOM     28  N   UNL     1      54.808   6.970  15.301  0.00  0.00    +0.000 N 
ATOM     29  C   UNL     1      53.486   7.327  15.226  0.00  0.00    +0.000 A 
ATOM     30  O   UNL     1      53.106   8.209  14.462  0.00  0.00    +0.000 OA
ATOM     31  C   UNL     1      52.612   6.600  16.126  0.00  0.00    +0.000 A 
ATOM     32  H   UNL     1      55.437   7.462  14.683  0.00  0.00    +0.000 HD
ENDBRANCH  19  22
ENDBRANCH   1  20
TORSDOF 6
ENDMDL
