MODEL 1
REMARK VINA RESULT:    -7.765      0.000      0.000
REMARK INTER + INTRA:         -10.640
REMARK INTER:                 -10.034
REMARK INTRA:                  -0.606
REMARK UNBOUND:                -0.606
REMARK  Name = 
REMARK  5 active torsions:
REMARK  status: ('A' for Active; 'I' for Inactive)
REMARK    1  A    between atoms: C_2  and  C_17
REMARK    2  A    between atoms: N_3  and  C_4
REMARK    3  A    between atoms: C_4  and  C_5
REMARK    4  A    between atoms: C_8  and  C_9
REMARK    5  A    between atoms: C_9  and  N_10
REMARK                            x       y       z     vdW  Elec       q    Type
REMARK                         _______ _______ _______ _____ _____    ______ ____
ROOT
ATOM      1  O   UNL     1      46.467   3.247  13.772  0.00  0.00    +0.000 OA
ATOM      2  C   UNL     1      46.295   4.441  14.003  0.00  0.00    +0.000 C 
ATOM      3  N   UNL     1      45.117   5.091  13.741  0.00  0.00    +0.000 N 
ATOM      4  H   UNL     1      45.101   6.102  13.766  0.00  0.00    +0.000 HD
ENDROOT
BRANCH   2   5
ATOM      5  C   UNL     1      47.333   5.254  14.640  0.00  0.00    +0.000 A 
ATOM      6  C   UNL     1      47.971   6.266  13.932  0.00  0.00    +0.000 A 
ATOM      7  S   UNL     1      49.172   7.071  14.838  0.00  0.00    +0.000 S 
ATOM      8  C   UNL     1      48.848   6.125  16.215  0.00  0.00    +0.000 A 
ATOM      9  N   UNL     1      49.535   6.312  17.377  0.00  0.00    +0.000 NA
ATOM     10  C   UNL     1      49.155   5.550  18.348  0.00  0.00    +0.000 A 
ATOM     11  N   UNL     1      48.157   4.614  18.268  0.00  0.00    +0.000 N 
ATOM     12  C   UNL     1      47.490   4.344  17.102  0.00  0.00    +0.000 A 
ATOM     13  O   UNL     1      46.695   3.413  17.038  0.00  0.00    +0.000 OA
ATOM     14  C   UNL     1      47.851   5.201  15.985  0.00  0.00    +0.000 A 
ATOM     15  H   UNL     1      47.932   4.032  19.057  0.00  0.00    +0.000 HD
ENDBRANCH   2   5
BRANCH   3  16
ATOM     16  C   UNL     1      44.023   4.472  13.040  0.00  0.00    +0.000 C 
BRANCH  16  17
ATOM     17  C   UNL     1      44.353   4.228  11.589  0.00  0.00    +0.000 A 
ATOM     18  C   UNL     1      44.047   2.994  11.000  0.00  0.00    +0.000 A 
ATOM     19  C   UNL     1      44.330   2.753   9.651  0.00  0.00    +0.000 A 
ATOM     20  C   UNL     1      44.929   3.740   8.856  0.00  0.00    +0.000 A 
ATOM     21  C   UNL     1      45.262   4.965   9.455  0.00  0.00    +0.000 A 
ATOM     22  C   UNL     1      44.984   5.204  10.808  0.00  0.00    +0.000 A 
BRANCH  20  23
ATOM     23  C   UNL     1      45.270   3.470   7.400  0.00  0.00    +0.000 C 
BRANCH  23  24
ATOM     24  N   UNL     1      46.699   3.292   7.135  0.00  0.00    +0.000 NA
ATOM     25  C   UNL     1      47.183   1.930   7.356  0.00  0.00    +0.000 C 
ATOM     26  C   UNL     1      48.358   1.836   6.401  0.00  0.00    +0.000 C 
ATOM     27  N   UNL     1      47.902   2.584   5.227  0.00  0.00    +0.000 NA
ATOM     28  C   UNL     1      47.079   3.661   5.778  0.00  0.00    +0.000 C 
ATOM     29  H   UNL     1      47.293   1.981   4.678  0.00  0.00    +0.000 HD
ENDBRANCH  23  24
ENDBRANCH  20  23
ENDBRANCH  16  17
ENDBRANCH   3  16
TORSDOF 5
ENDMDL
MODEL 2
REMARK VINA RESULT:    -7.360      1.696      2.153
REMARK INTER + INTRA:         -10.116
REMARK INTER:                  -9.353
REMARK INTRA:                  -0.763
REMARK UNBOUND:                -0.606
REMARK  Name = 
REMARK  5 active torsions:
REMARK  status: ('A' for Active; 'I' for Inactive)
REMARK    1  A    between atoms: C_2  and  C_17
REMARK    2  A    between atoms: N_3  and  C_4
REMARK    3  A    between atoms: C_4  and  C_5
REMARK    4  A    between atoms: C_8  and  C_9
REMARK    5  A    between atoms: C_9  and  N_10
REMARK                            x       y       z     vdW  Elec       q    Type
REMARK                         _______ _______ _______ _____ _____    ______ ____
ROOT
ATOM      1  O   UNL     1      48.319   7.290  12.684  0.00  0.00    +0.000 OA
ATOM      2  C   UNL     1      47.661   6.944  13.661  0.00  0.00    +0.000 C 
ATOM      3  N   UNL     1      46.292   6.885  13.658  0.00  0.00    +0.000 N 
ATOM      4  H   UNL     1      45.806   6.786  14.540  0.00  0.00    +0.000 HD
ENDROOT
BRANCH   2   5
ATOM      5  C   UNL     1      48.307   6.504  14.900  0.00  0.00    +0.000 A 
ATOM      6  C   UNL     1      49.303   7.273  15.488  0.00  0.00    +0.000 A 
ATOM      7  S   UNL     1      49.952   6.572  16.902  0.00  0.00    +0.000 S 
ATOM      8  C   UNL     1      48.895   5.243  16.797  0.00  0.00    +0.000 A 
ATOM      9  N   UNL     1      48.918   4.248  17.728  0.00  0.00    +0.000 NA
ATOM     10  C   UNL     1      48.033   3.326  17.542  0.00  0.00    +0.000 A 
ATOM     11  N   UNL     1      47.131   3.298  16.511  0.00  0.00    +0.000 N 
ATOM     12  C   UNL     1      47.120   4.239  15.514  0.00  0.00    +0.000 A 
ATOM     13  O   UNL     1      46.384   4.111  14.542  0.00  0.00    +0.000 OA
ATOM     14  C   UNL     1      48.070   5.324  15.696  0.00  0.00    +0.000 A 
ATOM     15  H   UNL     1      46.488   2.532  16.408  0.00  0.00    +0.000 HD
ENDBRANCH   2   5
BRANCH   3  16
ATOM     16  C   UNL     1      45.493   7.361  12.561  0.00  0.00    +0.000 C 
BRANCH  16  17
ATOM     17  C   UNL     1      45.374   6.332  11.465  0.00  0.00    +0.000 A 
ATOM     18  C   UNL     1      44.461   5.277  11.592  0.00  0.00    +0.000 A 
ATOM     19  C   UNL     1      44.324   4.321  10.580  0.00  0.00    +0.000 A 
ATOM     20  C   UNL     1      45.099   4.393   9.414  0.00  0.00    +0.000 A 
ATOM     21  C   UNL     1      46.035   5.434   9.301  0.00  0.00    +0.000 A 
ATOM     22  C   UNL     1      46.176   6.388  10.319  0.00  0.00    +0.000 A 
BRANCH  20  23
ATOM     23  C   UNL     1      44.978   3.338   8.329  0.00  0.00    +0.000 C 
BRANCH  23  24
ATOM     24  N   UNL     1      46.178   2.516   8.146  0.00  0.00    +0.000 NA
ATOM     25  C   UNL     1      45.942   1.079   8.265  0.00  0.00    +0.000 C 
ATOM     26  C   UNL     1      47.031   0.490   7.387  0.00  0.00    +0.000 C 
ATOM     27  N   UNL     1      47.106   1.427   6.264  0.00  0.00    +0.000 NA
ATOM     28  C   UNL     1      46.828   2.735   6.860  0.00  0.00    +0.000 C 
ATOM     29  H   UNL     1      46.348   1.217   5.618  0.00  0.00    +0.000 HD
ENDBRANCH  23  24
ENDBRANCH  20  23
ENDBRANCH  16  17
ENDBRANCH   3  16
TORSDOF 5
ENDMDL
MODEL 3
REMARK VINA RESULT:    -7.307      1.713      2.805
REMARK INTER + INTRA:         -10.049
REMARK INTER:                  -9.343
REMARK INTRA:                  -0.706
REMARK UNBOUND:                -0.606
REMARK  Name = 
REMARK  5 active torsions:
REMARK  status: ('A' for Active; 'I' for Inactive)
REMARK    1  A    between atoms: C_2  and  C_17
REMARK    2  A    between atoms: N_3  and  C_4
REMARK    3  A    between atoms: C_4  and  C_5
REMARK    4  A    between atoms: C_8  and  C_9
REMARK    5  A    between atoms: C_9  and  N_10
REMARK                            x       y       z     vdW  Elec       q    Type
REMARK                         _______ _______ _______ _____ _____    ______ ____
ROOT
ATOM      1  O   UNL     1      46.441   3.514  13.878  0.00  0.00    +0.000 OA
ATOM      2  C   UNL     1      46.383   4.735  13.997  0.00  0.00    +0.000 C 
ATOM      3  N   UNL     1      45.264   5.464  13.690  0.00  0.00    +0.000 N 
ATOM      4  H   UNL     1      45.340   6.471  13.620  0.00  0.00    +0.000 HD
ENDROOT
BRANCH   2   5
ATOM      5  C   UNL     1      47.504   5.504  14.543  0.00  0.00    +0.000 A 
ATOM      6  C   UNL     1      47.930   5.301  15.850  0.00  0.00    +0.000 A 
ATOM      7  S   UNL     1      49.222   6.318  16.305  0.00  0.00    +0.000 S 
ATOM      8  C   UNL     1      49.282   7.030  14.760  0.00  0.00    +0.000 A 
ATOM      9  N   UNL     1      50.196   7.996  14.464  0.00  0.00    +0.000 NA
ATOM     10  C   UNL     1      50.149   8.414  13.243  0.00  0.00    +0.000 A 
ATOM     11  N   UNL     1      49.273   7.964  12.290  0.00  0.00    +0.000 N 
ATOM     12  C   UNL     1      48.293   7.046  12.564  0.00  0.00    +0.000 A 
ATOM     13  O   UNL     1      47.448   6.764  11.721  0.00  0.00    +0.000 OA
ATOM     14  C   UNL     1      48.325   6.511  13.915  0.00  0.00    +0.000 A 
ATOM     15  H   UNL     1      49.272   8.356  11.364  0.00  0.00    +0.000 HD
ENDBRANCH   2   5
BRANCH   3  16
ATOM     16  C   UNL     1      44.105   4.887  13.063  0.00  0.00    +0.000 C 
BRANCH  16  17
ATOM     17  C   UNL     1      44.389   4.454  11.647  0.00  0.00    +0.000 A 
ATOM     18  C   UNL     1      44.963   5.356  10.742  0.00  0.00    +0.000 A 
ATOM     19  C   UNL     1      45.250   4.970   9.428  0.00  0.00    +0.000 A 
ATOM     20  C   UNL     1      44.967   3.671   8.984  0.00  0.00    +0.000 A 
ATOM     21  C   UNL     1      44.363   2.777   9.883  0.00  0.00    +0.000 A 
ATOM     22  C   UNL     1      44.070   3.167  11.198  0.00  0.00    +0.000 A 
BRANCH  20  23
ATOM     23  C   UNL     1      45.243   3.258   7.549  0.00  0.00    +0.000 C 
BRANCH  23  24
ATOM     24  N   UNL     1      46.665   3.177   7.204  0.00  0.00    +0.000 NA
ATOM     25  C   UNL     1      47.233   1.835   7.319  0.00  0.00    +0.000 C 
ATOM     26  C   UNL     1      48.361   1.863   6.304  0.00  0.00    +0.000 C 
ATOM     27  N   UNL     1      47.804   2.650   5.201  0.00  0.00    +0.000 NA
ATOM     28  C   UNL     1      46.953   3.645   5.854  0.00  0.00    +0.000 C 
ATOM     29  H   UNL     1      47.201   2.046   4.646  0.00  0.00    +0.000 HD
ENDBRANCH  23  24
ENDBRANCH  20  23
ENDBRANCH  16  17
ENDBRANCH   3  16
TORSDOF 5
ENDMDL
MODEL 4
REMARK VINA RESULT:    -7.281      3.958      9.104
REMARK INTER + INTRA:         -10.015
REMARK INTER:                  -9.364
REMARK INTRA:                  -0.651
REMARK UNBOUND:                -0.606
REMARK  Name = 
REMARK  5 active torsions:
REMARK  status: ('A' for Active; 'I' for Inactive)
REMARK    1  A    between atoms: C_2  and  C_17
REMARK    2  A    between atoms: N_3  and  C_4
REMARK    3  A    between atoms: C_4  and  C_5
REMARK    4  A    between atoms: C_8  and  C_9
REMARK    5  A    between atoms: C_9  and  N_10
REMARK                            x       y       z     vdW  Elec       q    Type
REMARK                         _______ _______ _______ _____ _____    ______ ____
ROOT
ATOM      1  O   UNL     1      47.197   3.020  14.015  0.00  0.00    +0.000 OA
ATOM      2  C   UNL     1      46.790   4.082  14.480  0.00  0.00    +0.000 C 
ATOM      3  N   UNL     1      46.798   4.363  15.820  0.00  0.00    +0.000 N 
ATOM      4  H   UNL     1      46.274   5.161  16.156  0.00  0.00    +0.000 HD
ENDROOT
BRANCH   2   5
ATOM      5  C   UNL     1      46.315   5.163  13.613  0.00  0.00    +0.000 A 
ATOM      6  C   UNL     1      47.082   6.306  13.425  0.00  0.00    +0.000 A 
ATOM      7  S   UNL     1      46.339   7.460  12.412  0.00  0.00    +0.000 S 
ATOM      8  C   UNL     1      44.990   6.453  12.159  0.00  0.00    +0.000 A 
ATOM      9  N   UNL     1      43.959   6.844  11.358  0.00  0.00    +0.000 NA
ATOM     10  C   UNL     1      43.024   5.962  11.228  0.00  0.00    +0.000 A 
ATOM     11  N   UNL     1      43.018   4.728  11.824  0.00  0.00    +0.000 N 
ATOM     12  C   UNL     1      43.999   4.323  12.692  0.00  0.00    +0.000 A 
ATOM     13  O   UNL     1      43.894   3.266  13.304  0.00  0.00    +0.000 OA
ATOM     14  C   UNL     1      45.097   5.263  12.845  0.00  0.00    +0.000 A 
ATOM     15  H   UNL     1      42.242   4.100  11.703  0.00  0.00    +0.000 HD
ENDBRANCH   2   5
BRANCH   3  16
ATOM     16  C   UNL     1      47.149   3.389  16.820  0.00  0.00    +0.000 C 
BRANCH  16  17
ATOM     17  C   UNL     1      48.628   3.388  17.108  0.00  0.00    +0.000 A 
ATOM     18  C   UNL     1      49.276   4.583  17.448  0.00  0.00    +0.000 A 
ATOM     19  C   UNL     1      50.645   4.601  17.735  0.00  0.00    +0.000 A 
ATOM     20  C   UNL     1      51.404   3.423  17.687  0.00  0.00    +0.000 A 
ATOM     21  C   UNL     1      50.760   2.232  17.317  0.00  0.00    +0.000 A 
ATOM     22  C   UNL     1      49.389   2.216  17.024  0.00  0.00    +0.000 A 
BRANCH  20  23
ATOM     23  C   UNL     1      52.898   3.444  17.963  0.00  0.00    +0.000 C 
BRANCH  23  24
ATOM     24  N   UNL     1      53.365   2.378  18.853  0.00  0.00    +0.000 NA
ATOM     25  C   UNL     1      54.186   1.366  18.193  0.00  0.00    +0.000 C 
ATOM     26  C   UNL     1      55.068   0.865  19.323  0.00  0.00    +0.000 C 
ATOM     27  N   UNL     1      55.357   2.078  20.091  0.00  0.00    +0.000 NA
ATOM     28  C   UNL     1      54.135   2.877  19.986  0.00  0.00    +0.000 C 
ATOM     29  H   UNL     1      56.100   2.589  19.619  0.00  0.00    +0.000 HD
ENDBRANCH  23  24
ENDBRANCH  20  23
ENDBRANCH  16  17
ENDBRANCH   3  16
TORSDOF 5
ENDMDL
MODEL 5
REMARK VINA RESULT:    -7.140      3.789      8.342
REMARK INTER + INTRA:          -9.832
REMARK INTER:                  -9.099
REMARK INTRA:                  -0.733
REMARK UNBOUND:                -0.606
REMARK  Name = 
REMARK  5 active torsions:
REMARK  status: ('A' for Active; 'I' for Inactive)
REMARK    1  A    between atoms: C_2  and  C_17
REMARK    2  A    between atoms: N_3  and  C_4
REMARK    3  A    between atoms: C_4  and  C_5
REMARK    4  A    between atoms: C_8  and  C_9
REMARK    5  A    between atoms: C_9  and  N_10
REMARK                            x       y       z     vdW  Elec       q    Type
REMARK                         _______ _______ _______ _____ _____    ______ ____
ROOT
ATOM      1  O   UNL     1      49.010   6.477  12.932  0.00  0.00    +0.000 OA
ATOM      2  C   UNL     1      47.936   6.891  13.358  0.00  0.00    +0.000 C 
ATOM      3  N   UNL     1      47.836   7.790  14.387  0.00  0.00    +0.000 N 
ATOM      4  H   UNL     1      46.933   7.940  14.820  0.00  0.00    +0.000 HD
ENDROOT
BRANCH   2   5
ATOM      5  C   UNL     1      46.666   6.494  12.746  0.00  0.00    +0.000 A 
ATOM      6  C   UNL     1      45.866   7.432  12.106  0.00  0.00    +0.000 A 
ATOM      7  S   UNL     1      44.415   6.778  11.492  0.00  0.00    +0.000 S 
ATOM      8  C   UNL     1      44.829   5.214  12.022  0.00  0.00    +0.000 A 
ATOM      9  N   UNL     1      44.004   4.153  11.800  0.00  0.00    +0.000 NA
ATOM     10  C   UNL     1      44.466   3.023  12.222  0.00  0.00    +0.000 A 
ATOM     11  N   UNL     1      45.673   2.852  12.850  0.00  0.00    +0.000 N 
ATOM     12  C   UNL     1      46.500   3.901  13.157  0.00  0.00    +0.000 A 
ATOM     13  O   UNL     1      47.508   3.725  13.831  0.00  0.00    +0.000 OA
ATOM     14  C   UNL     1      46.046   5.193  12.668  0.00  0.00    +0.000 A 
ATOM     15  H   UNL     1      45.958   1.947  13.181  0.00  0.00    +0.000 HD
ENDBRANCH   2   5
BRANCH   3  16
ATOM     16  C   UNL     1      48.971   8.222  15.160  0.00  0.00    +0.000 C 
BRANCH  16  17
ATOM     17  C   UNL     1      49.521   7.110  16.017  0.00  0.00    +0.000 A 
ATOM     18  C   UNL     1      50.899   6.858  16.035  0.00  0.00    +0.000 A 
ATOM     19  C   UNL     1      51.432   5.842  16.836  0.00  0.00    +0.000 A 
ATOM     20  C   UNL     1      50.600   5.049  17.639  0.00  0.00    +0.000 A 
ATOM     21  C   UNL     1      49.216   5.284  17.596  0.00  0.00    +0.000 A 
ATOM     22  C   UNL     1      48.682   6.298  16.789  0.00  0.00    +0.000 A 
BRANCH  20  23
ATOM     23  C   UNL     1      51.170   3.922  18.483  0.00  0.00    +0.000 C 
BRANCH  23  24
ATOM     24  N   UNL     1      51.797   2.846  17.712  0.00  0.00    +0.000 NA
ATOM     25  C   UNL     1      52.974   2.261  18.351  0.00  0.00    +0.000 C 
ATOM     26  C   UNL     1      52.982   0.846  17.803  0.00  0.00    +0.000 C 
ATOM     27  N   UNL     1      51.561   0.494  17.754  0.00  0.00    +0.000 NA
ATOM     28  C   UNL     1      50.885   1.748  17.418  0.00  0.00    +0.000 C 
ATOM     29  H   UNL     1      51.264   0.225  18.689  0.00  0.00    +0.000 HD
ENDBRANCH  23  24
ENDBRANCH  20  23
ENDBRANCH  16  17
ENDBRANCH   3  16
TORSDOF 5
ENDMDL
MODEL 6
REMARK VINA RESULT:    -6.976      3.524      4.840
REMARK INTER + INTRA:          -9.620
REMARK INTER:                  -8.671
REMARK INTRA:                  -0.949
REMARK UNBOUND:                -0.606
REMARK  Name = 
REMARK  5 active torsions:
REMARK  status: ('A' for Active; 'I' for Inactive)
REMARK    1  A    between atoms: C_2  and  C_17
REMARK    2  A    between atoms: N_3  and  C_4
REMARK    3  A    between atoms: C_4  and  C_5
REMARK    4  A    between atoms: C_8  and  C_9
REMARK    5  A    between atoms: C_9  and  N_10
REMARK                            x       y       z     vdW  Elec       q    Type
REMARK                         _______ _______ _______ _____ _____    ______ ____
ROOT
ATOM      1  O   UNL     1      48.291   8.648  15.931  0.00  0.00    +0.000 OA
ATOM      2  C   UNL     1      48.742   7.545  15.637  0.00  0.00    +0.000 C 
ATOM      3  N   UNL     1      49.019   7.169  14.349  0.00  0.00    +0.000 N 
ATOM      4  H   UNL     1      49.198   6.192  14.152  0.00  0.00    +0.000 HD
ENDROOT
BRANCH   2   5
ATOM      5  C   UNL     1      49.080   6.558  16.665  0.00  0.00    +0.000 A 
ATOM      6  C   UNL     1      50.024   6.850  17.642  0.00  0.00    +0.000 A 
ATOM      7  S   UNL     1      50.301   5.560  18.723  0.00  0.00    +0.000 S 
ATOM      8  C   UNL     1      49.139   4.587  17.948  0.00  0.00    +0.000 A 
ATOM      9  N   UNL     1      48.866   3.327  18.392  0.00  0.00    +0.000 NA
ATOM     10  C   UNL     1      47.935   2.723  17.732  0.00  0.00    +0.000 A 
ATOM     11  N   UNL     1      47.252   3.254  16.668  0.00  0.00    +0.000 N 
ATOM     12  C   UNL     1      47.544   4.487  16.146  0.00  0.00    +0.000 A 
ATOM     13  O   UNL     1      47.001   4.874  15.117  0.00  0.00    +0.000 OA
ATOM     14  C   UNL     1      48.559   5.229  16.876  0.00  0.00    +0.000 A 
ATOM     15  H   UNL     1      46.558   2.715  16.180  0.00  0.00    +0.000 HD
ENDBRANCH   2   5
BRANCH   3  16
ATOM     16  C   UNL     1      48.671   7.975  13.209  0.00  0.00    +0.000 C 
BRANCH  16  17
ATOM     17  C   UNL     1      47.315   7.614  12.658  0.00  0.00    +0.000 A 
ATOM     18  C   UNL     1      47.191   6.569  11.734  0.00  0.00    +0.000 A 
ATOM     19  C   UNL     1      45.940   6.207  11.223  0.00  0.00    +0.000 A 
ATOM     20  C   UNL     1      44.778   6.883  11.622  0.00  0.00    +0.000 A 
ATOM     21  C   UNL     1      44.908   7.950  12.526  0.00  0.00    +0.000 A 
ATOM     22  C   UNL     1      46.162   8.316  13.032  0.00  0.00    +0.000 A 
BRANCH  20  23
ATOM     23  C   UNL     1      43.422   6.517  11.044  0.00  0.00    +0.000 C 
BRANCH  23  24
ATOM     24  N   UNL     1      42.898   5.226  11.497  0.00  0.00    +0.000 NA
ATOM     25  C   UNL     1      43.502   4.071  10.838  0.00  0.00    +0.000 C 
ATOM     26  C   UNL     1      43.369   2.982  11.887  0.00  0.00    +0.000 C 
ATOM     27  N   UNL     1      43.617   3.691  13.144  0.00  0.00    +0.000 NA
ATOM     28  C   UNL     1      43.047   5.022  12.932  0.00  0.00    +0.000 C 
ATOM     29  H   UNL     1      44.623   3.801  13.259  0.00  0.00    +0.000 HD
ENDBRANCH  23  24
ENDBRANCH  20  23
ENDBRANCH  16  17
ENDBRANCH   3  16
TORSDOF 5
ENDMDL
MODEL 7
REMARK VINA RESULT:    -6.896      1.748      2.091
REMARK INTER + INTRA:          -9.517
REMARK INTER:                  -8.922
REMARK INTRA:                  -0.595
REMARK UNBOUND:                -0.606
REMARK  Name = 
REMARK  5 active torsions:
REMARK  status: ('A' for Active; 'I' for Inactive)
REMARK    1  A    between atoms: C_2  and  C_17
REMARK    2  A    between atoms: N_3  and  C_4
REMARK    3  A    between atoms: C_4  and  C_5
REMARK    4  A    between atoms: C_8  and  C_9
REMARK    5  A    between atoms: C_9  and  N_10
REMARK                            x       y       z     vdW  Elec       q    Type
REMARK                         _______ _______ _______ _____ _____    ______ ____
ROOT
ATOM      1  O   UNL     1      48.046   5.958  13.492  0.00  0.00    +0.000 OA
ATOM      2  C   UNL     1      47.282   5.458  14.313  0.00  0.00    +0.000 C 
ATOM      3  N   UNL     1      45.922   5.433  14.151  0.00  0.00    +0.000 N 
ATOM      4  H   UNL     1      45.340   5.190  14.943  0.00  0.00    +0.000 HD
ENDROOT
BRANCH   2   5
ATOM      5  C   UNL     1      47.784   4.788  15.515  0.00  0.00    +0.000 A 
ATOM      6  C   UNL     1      47.589   3.424  15.697  0.00  0.00    +0.000 A 
ATOM      7  S   UNL     1      48.215   2.842  17.174  0.00  0.00    +0.000 S 
ATOM      8  C   UNL     1      48.804   4.383  17.596  0.00  0.00    +0.000 A 
ATOM      9  N   UNL     1      49.473   4.585  18.766  0.00  0.00    +0.000 NA
ATOM     10  C   UNL     1      49.895   5.794  18.934  0.00  0.00    +0.000 A 
ATOM     11  N   UNL     1      49.709   6.823  18.047  0.00  0.00    +0.000 N 
ATOM     12  C   UNL     1      48.983   6.680  16.893  0.00  0.00    +0.000 A 
ATOM     13  O   UNL     1      48.731   7.652  16.190  0.00  0.00    +0.000 OA
ATOM     14  C   UNL     1      48.517   5.328  16.635  0.00  0.00    +0.000 A 
ATOM     15  H   UNL     1      50.040   7.749  18.255  0.00  0.00    +0.000 HD
ENDBRANCH   2   5
BRANCH   3  16
ATOM     16  C   UNL     1      45.251   6.117  13.077  0.00  0.00    +0.000 C 
BRANCH  16  17
ATOM     17  C   UNL     1      45.276   5.316  11.800  0.00  0.00    +0.000 A 
ATOM     18  C   UNL     1      44.927   3.959  11.819  0.00  0.00    +0.000 A 
ATOM     19  C   UNL     1      44.928   3.202  10.642  0.00  0.00    +0.000 A 
ATOM     20  C   UNL     1      45.279   3.783   9.415  0.00  0.00    +0.000 A 
ATOM     21  C   UNL     1      45.657   5.135   9.403  0.00  0.00    +0.000 A 
ATOM     22  C   UNL     1      45.662   5.891  10.584  0.00  0.00    +0.000 A 
BRANCH  20  23
ATOM     23  C   UNL     1      45.316   2.956   8.141  0.00  0.00    +0.000 C 
BRANCH  23  24
ATOM     24  N   UNL     1      46.628   2.898   7.493  0.00  0.00    +0.000 NA
ATOM     25  C   UNL     1      47.066   1.547   7.148  0.00  0.00    +0.000 C 
ATOM     26  C   UNL     1      47.973   1.786   5.955  0.00  0.00    +0.000 C 
ATOM     27  N   UNL     1      47.299   2.862   5.226  0.00  0.00    +0.000 NA
ATOM     28  C   UNL     1      46.696   3.691   6.272  0.00  0.00    +0.000 C 
ATOM     29  H   UNL     1      46.541   2.456   4.681  0.00  0.00    +0.000 HD
ENDBRANCH  23  24
ENDBRANCH  20  23
ENDBRANCH  16  17
ENDBRANCH   3  16
TORSDOF 5
ENDMDL
MODEL 8
REMARK VINA RESULT:    -6.840      2.361      3.678
REMARK INTER + INTRA:          -9.444
REMARK INTER:                  -9.162
REMARK INTRA:                  -0.283
REMARK UNBOUND:                -0.606
REMARK  Name = 
REMARK  5 active torsions:
REMARK  status: ('A' for Active; 'I' for Inactive)
REMARK    1  A    between atoms: C_2  and  C_17
REMARK    2  A    between atoms: N_3  and  C_4
REMARK    3  A    between atoms: C_4  and  C_5
REMARK    4  A    between atoms: C_8  and  C_9
REMARK    5  A    between atoms: C_9  and  N_10
REMARK                            x       y       z     vdW  Elec       q    Type
REMARK                         _______ _______ _______ _____ _____    ______ ____
ROOT
ATOM      1  O   UNL     1      50.330   6.629  15.442  0.00  0.00    +0.000 OA
ATOM      2  C   UNL     1      49.166   6.771  15.805  0.00  0.00    +0.000 C 
ATOM      3  N   UNL     1      48.110   6.813  14.933  0.00  0.00    +0.000 N 
ATOM      4  H   UNL     1      47.209   7.127  15.271  0.00  0.00    +0.000 HD
ENDROOT
BRANCH   2   5
ATOM      5  C   UNL     1      48.812   6.846  17.225  0.00  0.00    +0.000 A 
ATOM      6  C   UNL     1      48.348   8.034  17.775  0.00  0.00    +0.000 A 
ATOM      7  S   UNL     1      48.026   7.925  19.447  0.00  0.00    +0.000 S 
ATOM      8  C   UNL     1      48.454   6.278  19.480  0.00  0.00    +0.000 A 
ATOM      9  N   UNL     1      48.391   5.556  20.634  0.00  0.00    +0.000 NA
ATOM     10  C   UNL     1      48.707   4.312  20.499  0.00  0.00    +0.000 A 
ATOM     11  N   UNL     1      49.085   3.719  19.322  0.00  0.00    +0.000 N 
ATOM     12  C   UNL     1      49.230   4.422  18.155  0.00  0.00    +0.000 A 
ATOM     13  O   UNL     1      49.693   3.884  17.155  0.00  0.00    +0.000 OA
ATOM     14  C   UNL     1      48.849   5.822  18.241  0.00  0.00    +0.000 A 
ATOM     15  H   UNL     1      49.348   2.748  19.295  0.00  0.00    +0.000 HD
ENDBRANCH   2   5
BRANCH   3  16
ATOM     16  C   UNL     1      48.278   6.841  13.504  0.00  0.00    +0.000 C 
BRANCH  16  17
ATOM     17  C   UNL     1      47.128   6.177  12.791  0.00  0.00    +0.000 A 
ATOM     18  C   UNL     1      46.457   6.855  11.765  0.00  0.00    +0.000 A 
ATOM     19  C   UNL     1      45.397   6.252  11.079  0.00  0.00    +0.000 A 
ATOM     20  C   UNL     1      44.979   4.953  11.403  0.00  0.00    +0.000 A 
ATOM     21  C   UNL     1      45.633   4.286  12.452  0.00  0.00    +0.000 A 
ATOM     22  C   UNL     1      46.691   4.894  13.142  0.00  0.00    +0.000 A 
BRANCH  20  23
ATOM     23  C   UNL     1      43.806   4.307  10.685  0.00  0.00    +0.000 C 
BRANCH  23  24
ATOM     24  N   UNL     1      44.150   3.677   9.408  0.00  0.00    +0.000 NA
ATOM     25  C   UNL     1      45.261   4.315   8.706  0.00  0.00    +0.000 C 
ATOM     26  C   UNL     1      45.848   3.169   7.902  0.00  0.00    +0.000 C 
ATOM     27  N   UNL     1      45.730   2.024   8.808  0.00  0.00    +0.000 NA
ATOM     28  C   UNL     1      44.487   2.265   9.541  0.00  0.00    +0.000 C 
ATOM     29  H   UNL     1      46.495   2.063   9.478  0.00  0.00    +0.000 HD
ENDBRANCH  23  24
ENDBRANCH  20  23
ENDBRANCH  16  17
ENDBRANCH   3  16
TORSDOF 5
ENDMDL
MODEL 9
REMARK VINA RESULT:    -6.614      4.576      7.545
REMARK INTER + INTRA:          -9.152
REMARK INTER:                  -8.385
REMARK INTRA:                  -0.768
REMARK UNBOUND:                -0.606
REMARK  Name = 
REMARK  5 active torsions:
REMARK  status: ('A' for Active; 'I' for Inactive)
REMARK    1  A    between atoms: C_2  and  C_17
REMARK    2  A    between atoms: N_3  and  C_4
REMARK    3  A    between atoms: C_4  and  C_5
REMARK    4  A    between atoms: C_8  and  C_9
REMARK    5  A    between atoms: C_9  and  N_10
REMARK                            x       y       z     vdW  Elec       q    Type
REMARK                         _______ _______ _______ _____ _____    ______ ____
ROOT
ATOM      1  O   UNL     1      44.169   7.544  11.196  0.00  0.00    +0.000 OA
ATOM      2  C   UNL     1      44.789   6.621  11.716  0.00  0.00    +0.000 C 
ATOM      3  N   UNL     1      45.799   6.814  12.621  0.00  0.00    +0.000 N 
ATOM      4  H   UNL     1      46.397   6.033  12.861  0.00  0.00    +0.000 HD
ENDROOT
BRANCH   2   5
ATOM      5  C   UNL     1      44.446   5.222  11.446  0.00  0.00    +0.000 A 
ATOM      6  C   UNL     1      43.660   4.503  12.338  0.00  0.00    +0.000 A 
ATOM      7  S   UNL     1      43.404   2.885  11.862  0.00  0.00    +0.000 S 
ATOM      8  C   UNL     1      44.297   3.106  10.430  0.00  0.00    +0.000 A 
ATOM      9  N   UNL     1      44.463   2.088   9.539  0.00  0.00    +0.000 NA
ATOM     10  C   UNL     1      45.128   2.412   8.480  0.00  0.00    +0.000 A 
ATOM     11  N   UNL     1      45.649   3.655   8.229  0.00  0.00    +0.000 N 
ATOM     12  C   UNL     1      45.568   4.686   9.129  0.00  0.00    +0.000 A 
ATOM     13  O   UNL     1      46.156   5.742   8.924  0.00  0.00    +0.000 OA
ATOM     14  C   UNL     1      44.794   4.387  10.322  0.00  0.00    +0.000 A 
ATOM     15  H   UNL     1      46.185   3.831   7.396  0.00  0.00    +0.000 HD
ENDBRANCH   2   5
BRANCH   3  16
ATOM     16  C   UNL     1      46.325   8.115  12.938  0.00  0.00    +0.000 C 
BRANCH  16  17
ATOM     17  C   UNL     1      47.714   8.309  12.384  0.00  0.00    +0.000 A 
ATOM     18  C   UNL     1      48.139   9.585  11.991  0.00  0.00    +0.000 A 
ATOM     19  C   UNL     1      49.429   9.789  11.490  0.00  0.00    +0.000 A 
ATOM     20  C   UNL     1      50.329   8.720  11.367  0.00  0.00    +0.000 A 
ATOM     21  C   UNL     1      49.891   7.437  11.733  0.00  0.00    +0.000 A 
ATOM     22  C   UNL     1      48.596   7.233  12.229  0.00  0.00    +0.000 A 
BRANCH  20  23
ATOM     23  C   UNL     1      51.718   8.931  10.791  0.00  0.00    +0.000 C 
BRANCH  23  24
ATOM     24  N   UNL     1      52.498   7.702  10.623  0.00  0.00    +0.000 NA
ATOM     25  C   UNL     1      52.517   7.189   9.255  0.00  0.00    +0.000 C 
ATOM     26  C   UNL     1      53.842   6.450   9.196  0.00  0.00    +0.000 C 
ATOM     27  N   UNL     1      54.738   7.297   9.986  0.00  0.00    +0.000 NA
ATOM     28  C   UNL     1      53.886   7.845  11.042  0.00  0.00    +0.000 C 
ATOM     29  H   UNL     1      55.044   8.073   9.403  0.00  0.00    +0.000 HD
ENDBRANCH  23  24
ENDBRANCH  20  23
ENDBRANCH  16  17
ENDBRANCH   3  16
TORSDOF 5
ENDMDL
