MODEL 1
REMARK VINA RESULT:    -7.085      0.000      0.000
REMARK INTER + INTRA:         -10.162
REMARK INTER:                  -9.156
REMARK INTRA:                  -1.006
REMARK UNBOUND:                -1.006
REMARK  Name = 
REMARK  6 active torsions:
REMARK  status: ('A' for Active; 'I' for Inactive)
REMARK    1  A    between atoms: C_1  and  C_2
REMARK    2  A    between atoms: C_5  and  C_6
REMARK    3  A    between atoms: C_6  and  C_7
REMARK    4  A    between atoms: C_10  and  C_11
REMARK    5  A    between atoms: C_11  and  N_12
REMARK    6  A    between atoms: C_13  and  C_15
REMARK                            x       y       z     vdW  Elec       q    Type
REMARK                         _______ _______ _______ _____ _____    ______ ____
ROOT
ATOM      1  C   UNL     1      47.371   7.896  11.884  0.00  0.00    +0.000 C 
ENDROOT
BRANCH   1   5
ATOM      2  C   UNL     1      49.197   7.952  15.813  0.00  0.00    +0.000 A 
ATOM      3  C   UNL     1      48.222   8.897  15.462  0.00  0.00    +0.000 A 
ATOM      4  C   UNL     1      47.638   8.886  14.193  0.00  0.00    +0.000 A 
ATOM      5  C   UNL     1      48.036   7.947  13.235  0.00  0.00    +0.000 A 
ATOM      6  C   UNL     1      49.074   7.060  13.555  0.00  0.00    +0.000 A 
ATOM      7  C   UNL     1      49.638   7.051  14.836  0.00  0.00    +0.000 A 
BRANCH   2   8
ATOM      8  C   UNL     1      49.727   7.895  17.230  0.00  0.00    +0.000 C 
BRANCH   8  13
ATOM      9  C   UNL     1      47.858   3.476  16.661  0.00  0.00    +0.000 C 
ATOM     10  C   UNL     1      48.114   3.924  18.104  0.00  0.00    +0.000 C 
ATOM     11  C   UNL     1      49.607   4.131  18.371  0.00  0.00    +0.000 C 
ATOM     12  C   UNL     1      50.134   5.402  17.706  0.00  0.00    +0.000 C 
ATOM     13  C   UNL     1      49.283   6.644  18.038  0.00  0.00    +0.000 C 
ATOM     14  N   UNL     1      47.851   6.392  17.760  0.00  0.00    +0.000 NA
ATOM     15  C   UNL     1      47.352   5.206  18.465  0.00  0.00    +0.000 C 
ATOM     16  H   UNL     1      47.721   6.262  16.757  0.00  0.00    +0.000 HD
ENDBRANCH   8  13
ENDBRANCH   2   8
ENDBRANCH   1   5
BRANCH   1  17
ATOM     17  N   UNL     1      46.709   6.636  11.666  0.00  0.00    +0.000 N 
ATOM     18  C   UNL     1      45.341   6.551  11.597  0.00  0.00    +0.000 C 
ATOM     19  O   UNL     1      44.619   7.541  11.672  0.00  0.00    +0.000 OA
ATOM     20  H   UNL     1      47.255   5.799  11.834  0.00  0.00    +0.000 HD
BRANCH  18  21
ATOM     21  C   UNL     1      44.785   5.213  11.363  0.00  0.00    +0.000 A 
ATOM     22  C   UNL     1      44.007   4.607  12.342  0.00  0.00    +0.000 A 
ATOM     23  S   UNL     1      43.413   3.073  11.890  0.00  0.00    +0.000 S 
ATOM     24  C   UNL     1      44.216   3.143  10.391  0.00  0.00    +0.000 A 
ATOM     25  N   UNL     1      44.148   2.107   9.511  0.00  0.00    +0.000 NA
ATOM     26  C   UNL     1      44.826   2.284   8.427  0.00  0.00    +0.000 A 
ATOM     27  N   UNL     1      45.558   3.405   8.138  0.00  0.00    +0.000 N 
ATOM     28  C   UNL     1      45.630   4.489   8.980  0.00  0.00    +0.000 A 
ATOM     29  O   UNL     1      46.250   5.500   8.667  0.00  0.00    +0.000 OA
ATOM     30  C   UNL     1      44.903   4.332  10.225  0.00  0.00    +0.000 A 
ATOM     31  H   UNL     1      46.056   3.490   7.263  0.00  0.00    +0.000 HD
ENDBRANCH  18  21
ENDBRANCH   1  17
TORSDOF 5
ENDMDL
MODEL 2
REMARK VINA RESULT:    -6.949      3.227      8.495
REMARK INTER + INTRA:          -9.986
REMARK INTER:                  -8.966
REMARK INTRA:                  -1.020
REMARK UNBOUND:                -1.006
REMARK  Name = 
REMARK  6 active torsions:
REMARK  status: ('A' for Active; 'I' for Inactive)
REMARK    1  A    between atoms: C_1  and  C_2
REMARK    2  A    between atoms: C_5  and  C_6
REMARK    3  A    between atoms: C_6  and  C_7
REMARK    4  A    between atoms: C_10  and  C_11
REMARK    5  A    between atoms: C_11  and  N_12
REMARK    6  A    between atoms: C_13  and  C_15
REMARK                            x       y       z     vdW  Elec       q    Type
REMARK                         _______ _______ _______ _____ _____    ______ ____
ROOT
ATOM      1  C   UNL     1      48.207   7.282  13.670  0.00  0.00    +0.000 C 
ENDROOT
BRANCH   1   5
ATOM      2  C   UNL     1      44.910   5.163  11.822  0.00  0.00    +0.000 A 
ATOM      3  C   UNL     1      45.491   4.691  13.008  0.00  0.00    +0.000 A 
ATOM      4  C   UNL     1      46.560   5.367  13.601  0.00  0.00    +0.000 A 
ATOM      5  C   UNL     1      47.090   6.519  13.007  0.00  0.00    +0.000 A 
ATOM      6  C   UNL     1      46.568   6.940  11.776  0.00  0.00    +0.000 A 
ATOM      7  C   UNL     1      45.478   6.279  11.197  0.00  0.00    +0.000 A 
BRANCH   2   8
ATOM      8  C   UNL     1      43.672   4.494  11.262  0.00  0.00    +0.000 C 
BRANCH   8  13
ATOM      9  C   UNL     1      46.734   3.893   7.573  0.00  0.00    +0.000 C 
ATOM     10  C   UNL     1      45.536   2.937   7.624  0.00  0.00    +0.000 C 
ATOM     11  C   UNL     1      45.588   2.036   8.860  0.00  0.00    +0.000 C 
ATOM     12  C   UNL     1      45.246   2.801  10.138  0.00  0.00    +0.000 C 
ATOM     13  C   UNL     1      43.929   3.593  10.022  0.00  0.00    +0.000 C 
ATOM     14  N   UNL     1      43.931   4.448   8.815  0.00  0.00    +0.000 NA
ATOM     15  C   UNL     1      44.193   3.679   7.594  0.00  0.00    +0.000 C 
ATOM     16  H   UNL     1      44.646   5.169   8.914  0.00  0.00    +0.000 HD
ENDBRANCH   8  13
ENDBRANCH   2   8
ENDBRANCH   1   5
BRANCH   1  17
ATOM     17  N   UNL     1      48.273   7.004  15.081  0.00  0.00    +0.000 N 
ATOM     18  C   UNL     1      49.472   6.976  15.748  0.00  0.00    +0.000 C 
ATOM     19  O   UNL     1      50.537   7.226  15.192  0.00  0.00    +0.000 OA
ATOM     20  H   UNL     1      47.457   6.573  15.500  0.00  0.00    +0.000 HD
BRANCH  18  21
ATOM     21  C   UNL     1      49.408   6.690  17.187  0.00  0.00    +0.000 A 
ATOM     22  C   UNL     1      49.812   7.653  18.102  0.00  0.00    +0.000 A 
ATOM     23  S   UNL     1      49.636   7.167  19.728  0.00  0.00    +0.000 S 
ATOM     24  C   UNL     1      49.062   5.633  19.265  0.00  0.00    +0.000 A 
ATOM     25  N   UNL     1      48.748   4.693  20.196  0.00  0.00    +0.000 NA
ATOM     26  C   UNL     1      48.350   3.568  19.703  0.00  0.00    +0.000 A 
ATOM     27  N   UNL     1      48.230   3.299  18.365  0.00  0.00    +0.000 N 
ATOM     28  C   UNL     1      48.505   4.228  17.390  0.00  0.00    +0.000 A 
ATOM     29  O   UNL     1      48.334   3.974  16.202  0.00  0.00    +0.000 OA
ATOM     30  C   UNL     1      48.977   5.505  17.890  0.00  0.00    +0.000 A 
ATOM     31  H   UNL     1      47.899   2.402  18.043  0.00  0.00    +0.000 HD
ENDBRANCH  18  21
ENDBRANCH   1  17
TORSDOF 5
ENDMDL
MODEL 3
REMARK VINA RESULT:    -6.778      3.044      4.926
REMARK INTER + INTRA:          -9.766
REMARK INTER:                  -8.934
REMARK INTRA:                  -0.832
REMARK UNBOUND:                -1.006
REMARK  Name = 
REMARK  6 active torsions:
REMARK  status: ('A' for Active; 'I' for Inactive)
REMARK    1  A    between atoms: C_1  and  C_2
REMARK    2  A    between atoms: C_5  and  C_6
REMARK    3  A    between atoms: C_6  and  C_7
REMARK    4  A    between atoms: C_10  and  C_11
REMARK    5  A    between atoms: C_11  and  N_12
REMARK    6  A    between atoms: C_13  and  C_15
REMARK                            x       y       z     vdW  Elec       q    Type
REMARK                         _______ _______ _______ _____ _____    ______ ____
ROOT
ATOM      1  C   UNL     1      47.446   3.533  16.465  0.00  0.00    +0.000 C 
ENDROOT
BRANCH   1   5
ATOM      2  C   UNL     1      49.625   5.610  19.581  0.00  0.00    +0.000 A 
ATOM      3  C   UNL     1      49.627   6.090  18.264  0.00  0.00    +0.000 A 
ATOM      4  C   UNL     1      48.932   5.418  17.255  0.00  0.00    +0.000 A 
ATOM      5  C   UNL     1      48.241   4.234  17.536  0.00  0.00    +0.000 A 
ATOM      6  C   UNL     1      48.314   3.705  18.833  0.00  0.00    +0.000 A 
ATOM      7  C   UNL     1      48.985   4.394  19.849  0.00  0.00    +0.000 A 
BRANCH   2   8
ATOM      8  C   UNL     1      50.274   6.417  20.686  0.00  0.00    +0.000 C 
BRANCH   8  13
ATOM      9  C   UNL     1      47.485   9.913  18.856  0.00  0.00    +0.000 C 
ATOM     10  C   UNL     1      47.812  10.017  20.351  0.00  0.00    +0.000 C 
ATOM     11  C   UNL     1      47.214   8.849  21.139  0.00  0.00    +0.000 C 
ATOM     12  C   UNL     1      47.974   7.546  20.892  0.00  0.00    +0.000 C 
ATOM     13  C   UNL     1      49.495   7.698  21.096  0.00  0.00    +0.000 C 
ATOM     14  N   UNL     1      50.021   8.837  20.312  0.00  0.00    +0.000 NA
ATOM     15  C   UNL     1      49.321  10.089  20.618  0.00  0.00    +0.000 C 
ATOM     16  H   UNL     1      49.923   8.635  19.317  0.00  0.00    +0.000 HD
ENDBRANCH   8  13
ENDBRANCH   2   8
ENDBRANCH   1   5
BRANCH   1  17
ATOM     17  N   UNL     1      46.829   4.473  15.565  0.00  0.00    +0.000 N 
ATOM     18  C   UNL     1      46.775   4.238  14.214  0.00  0.00    +0.000 C 
ATOM     19  O   UNL     1      47.207   3.205  13.711  0.00  0.00    +0.000 OA
ATOM     20  H   UNL     1      46.683   5.413  15.916  0.00  0.00    +0.000 HD
BRANCH  18  21
ATOM     21  C   UNL     1      46.113   5.267  13.402  0.00  0.00    +0.000 A 
ATOM     22  C   UNL     1      46.751   6.476  13.164  0.00  0.00    +0.000 A 
ATOM     23  S   UNL     1      45.856   7.539  12.173  0.00  0.00    +0.000 S 
ATOM     24  C   UNL     1      44.562   6.438  12.069  0.00  0.00    +0.000 A 
ATOM     25  N   UNL     1      43.432   6.748  11.377  0.00  0.00    +0.000 NA
ATOM     26  C   UNL     1      42.523   5.833  11.404  0.00  0.00    +0.000 A 
ATOM     27  N   UNL     1      42.642   4.632  12.052  0.00  0.00    +0.000 N 
ATOM     28  C   UNL     1      43.775   4.262  12.736  0.00  0.00    +0.000 A 
ATOM     29  O   UNL     1      43.871   3.157  13.259  0.00  0.00    +0.000 OA
ATOM     30  C   UNL     1      44.821   5.266  12.756  0.00  0.00    +0.000 A 
ATOM     31  H   UNL     1      41.898   3.950  12.023  0.00  0.00    +0.000 HD
ENDBRANCH  18  21
ENDBRANCH   1  17
TORSDOF 5
ENDMDL
MODEL 4
REMARK VINA RESULT:    -6.755      3.286      4.963
REMARK INTER + INTRA:          -9.736
REMARK INTER:                  -9.021
REMARK INTRA:                  -0.714
REMARK UNBOUND:                -1.006
REMARK  Name = 
REMARK  6 active torsions:
REMARK  status: ('A' for Active; 'I' for Inactive)
REMARK    1  A    between atoms: C_1  and  C_2
REMARK    2  A    between atoms: C_5  and  C_6
REMARK    3  A    between atoms: C_6  and  C_7
REMARK    4  A    between atoms: C_10  and  C_11
REMARK    5  A    between atoms: C_11  and  N_12
REMARK    6  A    between atoms: C_13  and  C_15
REMARK                            x       y       z     vdW  Elec       q    Type
REMARK                         _______ _______ _______ _____ _____    ______ ____
ROOT
ATOM      1  C   UNL     1      47.382   3.611  16.519  0.00  0.00    +0.000 C 
ENDROOT
BRANCH   1   5
ATOM      2  C   UNL     1      50.574   5.408  18.834  0.00  0.00    +0.000 A 
ATOM      3  C   UNL     1      49.822   4.345  19.354  0.00  0.00    +0.000 A 
ATOM      4  C   UNL     1      48.787   3.769  18.613  0.00  0.00    +0.000 A 
ATOM      5  C   UNL     1      48.462   4.262  17.344  0.00  0.00    +0.000 A 
ATOM      6  C   UNL     1      49.153   5.382  16.862  0.00  0.00    +0.000 A 
ATOM      7  C   UNL     1      50.210   5.939  17.591  0.00  0.00    +0.000 A 
BRANCH   2   8
ATOM      8  C   UNL     1      51.773   5.935  19.593  0.00  0.00    +0.000 C 
BRANCH   8  13
ATOM      9  C   UNL     1      53.304   1.611  18.077  0.00  0.00    +0.000 C 
ATOM     10  C   UNL     1      54.371   2.539  18.671  0.00  0.00    +0.000 C 
ATOM     11  C   UNL     1      54.559   3.796  17.819  0.00  0.00    +0.000 C 
ATOM     12  C   UNL     1      53.388   4.768  17.970  0.00  0.00    +0.000 C 
ATOM     13  C   UNL     1      53.062   5.079  19.444  0.00  0.00    +0.000 C 
ATOM     14  N   UNL     1      52.888   3.833  20.221  0.00  0.00    +0.000 NA
ATOM     15  C   UNL     1      54.053   2.948  20.115  0.00  0.00    +0.000 C 
ATOM     16  H   UNL     1      52.063   3.338  19.884  0.00  0.00    +0.000 HD
ENDBRANCH   8  13
ENDBRANCH   2   8
ENDBRANCH   1   5
BRANCH   1  17
ATOM     17  N   UNL     1      46.789   4.542  15.595  0.00  0.00    +0.000 N 
ATOM     18  C   UNL     1      46.749   4.285  14.248  0.00  0.00    +0.000 C 
ATOM     19  O   UNL     1      47.174   3.239  13.768  0.00  0.00    +0.000 OA
ATOM     20  H   UNL     1      46.650   5.490  15.928  0.00  0.00    +0.000 HD
BRANCH  18  21
ATOM     21  C   UNL     1      46.110   5.308  13.410  0.00  0.00    +0.000 A 
ATOM     22  C   UNL     1      46.774   6.499  13.147  0.00  0.00    +0.000 A 
ATOM     23  S   UNL     1      45.903   7.556  12.128  0.00  0.00    +0.000 S 
ATOM     24  C   UNL     1      44.588   6.479  12.044  0.00  0.00    +0.000 A 
ATOM     25  N   UNL     1      43.467   6.796  11.341  0.00  0.00    +0.000 NA
ATOM     26  C   UNL     1      42.540   5.899  11.385  0.00  0.00    +0.000 A 
ATOM     27  N   UNL     1      42.632   4.711  12.061  0.00  0.00    +0.000 N 
ATOM     28  C   UNL     1      43.756   4.335  12.757  0.00  0.00    +0.000 A 
ATOM     29  O   UNL     1      43.827   3.240  13.306  0.00  0.00    +0.000 OA
ATOM     30  C   UNL     1      44.822   5.318  12.759  0.00  0.00    +0.000 A 
ATOM     31  H   UNL     1      41.875   4.044  12.044  0.00  0.00    +0.000 HD
ENDBRANCH  18  21
ENDBRANCH   1  17
TORSDOF 5
ENDMDL
MODEL 5
REMARK VINA RESULT:    -6.744      1.524      2.165
REMARK INTER + INTRA:          -9.721
REMARK INTER:                  -8.960
REMARK INTRA:                  -0.761
REMARK UNBOUND:                -1.006
REMARK  Name = 
REMARK  6 active torsions:
REMARK  status: ('A' for Active; 'I' for Inactive)
REMARK    1  A    between atoms: C_1  and  C_2
REMARK    2  A    between atoms: C_5  and  C_6
REMARK    3  A    between atoms: C_6  and  C_7
REMARK    4  A    between atoms: C_10  and  C_11
REMARK    5  A    between atoms: C_11  and  N_12
REMARK    6  A    between atoms: C_13  and  C_15
REMARK                            x       y       z     vdW  Elec       q    Type
REMARK                         _______ _______ _______ _____ _____    ______ ____
ROOT
ATOM      1  C   UNL     1      48.150   8.294  11.909  0.00  0.00    +0.000 C 
ENDROOT
BRANCH   1   5
ATOM      2  C   UNL     1      49.037   7.738  16.114  0.00  0.00    +0.000 A 
ATOM      3  C   UNL     1      48.106   8.700  15.699  0.00  0.00    +0.000 A 
ATOM      4  C   UNL     1      47.825   8.888  14.343  0.00  0.00    +0.000 A 
ATOM      5  C   UNL     1      48.488   8.134  13.369  0.00  0.00    +0.000 A 
ATOM      6  C   UNL     1      49.484   7.235  13.778  0.00  0.00    +0.000 A 
ATOM      7  C   UNL     1      49.744   7.026  15.137  0.00  0.00    +0.000 A 
BRANCH   2   8
ATOM      8  C   UNL     1      49.237   7.457  17.588  0.00  0.00    +0.000 C 
BRANCH   8  13
ATOM      9  C   UNL     1      49.084   2.660  17.033  0.00  0.00    +0.000 C 
ATOM     10  C   UNL     1      48.080   3.261  18.023  0.00  0.00    +0.000 C 
ATOM     11  C   UNL     1      48.785   3.904  19.219  0.00  0.00    +0.000 C 
ATOM     12  C   UNL     1      49.459   5.224  18.842  0.00  0.00    +0.000 C 
ATOM     13  C   UNL     1      48.505   6.190  18.111  0.00  0.00    +0.000 C 
ATOM     14  N   UNL     1      47.851   5.520  16.965  0.00  0.00    +0.000 NA
ATOM     15  C   UNL     1      47.154   4.293  17.366  0.00  0.00    +0.000 C 
ATOM     16  H   UNL     1      48.555   5.289  16.264  0.00  0.00    +0.000 HD
ENDBRANCH   8  13
ENDBRANCH   2   8
ENDBRANCH   1   5
BRANCH   1  17
ATOM     17  N   UNL     1      47.495   7.124  11.387  0.00  0.00    +0.000 N 
ATOM     18  C   UNL     1      46.126   7.036  11.331  0.00  0.00    +0.000 C 
ATOM     19  O   UNL     1      45.397   7.959  11.680  0.00  0.00    +0.000 OA
ATOM     20  H   UNL     1      48.054   6.280  11.316  0.00  0.00    +0.000 HD
BRANCH  18  21
ATOM     21  C   UNL     1      45.578   5.795  10.770  0.00  0.00    +0.000 A 
ATOM     22  C   UNL     1      45.758   5.506   9.423  0.00  0.00    +0.000 A 
ATOM     23  S   UNL     1      45.089   4.010   8.950  0.00  0.00    +0.000 S 
ATOM     24  C   UNL     1      44.491   3.719  10.517  0.00  0.00    +0.000 A 
ATOM     25  N   UNL     1      43.773   2.598  10.795  0.00  0.00    +0.000 NA
ATOM     26  C   UNL     1      43.360   2.519  12.015  0.00  0.00    +0.000 A 
ATOM     27  N   UNL     1      43.605   3.456  12.985  0.00  0.00    +0.000 N 
ATOM     28  C   UNL     1      44.352   4.587  12.758  0.00  0.00    +0.000 A 
ATOM     29  O   UNL     1      44.599   5.379  13.662  0.00  0.00    +0.000 OA
ATOM     30  C   UNL     1      44.822   4.735  11.395  0.00  0.00    +0.000 A 
ATOM     31  H   UNL     1      43.266   3.329  13.927  0.00  0.00    +0.000 HD
ENDBRANCH  18  21
ENDBRANCH   1  17
TORSDOF 5
ENDMDL
MODEL 6
REMARK VINA RESULT:    -6.563      4.738      8.805
REMARK INTER + INTRA:          -9.487
REMARK INTER:                  -9.176
REMARK INTRA:                  -0.311
REMARK UNBOUND:                -1.006
REMARK  Name = 
REMARK  6 active torsions:
REMARK  status: ('A' for Active; 'I' for Inactive)
REMARK    1  A    between atoms: C_1  and  C_2
REMARK    2  A    between atoms: C_5  and  C_6
REMARK    3  A    between atoms: C_6  and  C_7
REMARK    4  A    between atoms: C_10  and  C_11
REMARK    5  A    between atoms: C_11  and  N_12
REMARK    6  A    between atoms: C_13  and  C_15
REMARK                            x       y       z     vdW  Elec       q    Type
REMARK                         _______ _______ _______ _____ _____    ______ ____
ROOT
ATOM      1  C   UNL     1      48.325   4.885  17.210  0.00  0.00    +0.000 C 
ENDROOT
BRANCH   1   5
ATOM      2  C   UNL     1      47.256   6.009  13.164  0.00  0.00    +0.000 A 
ATOM      3  C   UNL     1      46.854   4.775  13.695  0.00  0.00    +0.000 A 
ATOM      4  C   UNL     1      47.205   4.406  14.996  0.00  0.00    +0.000 A 
ATOM      5  C   UNL     1      47.989   5.253  15.788  0.00  0.00    +0.000 A 
ATOM      6  C   UNL     1      48.466   6.446  15.226  0.00  0.00    +0.000 A 
ATOM      7  C   UNL     1      48.090   6.829  13.934  0.00  0.00    +0.000 A 
BRANCH   2   8
ATOM      8  C   UNL     1      46.761   6.449  11.802  0.00  0.00    +0.000 C 
BRANCH   8  13
ATOM      9  C   UNL     1      43.520   2.889  12.210  0.00  0.00    +0.000 C 
ATOM     10  C   UNL     1      43.029   4.183  11.551  0.00  0.00    +0.000 C 
ATOM     11  C   UNL     1      43.052   5.357  12.531  0.00  0.00    +0.000 C 
ATOM     12  C   UNL     1      44.475   5.841  12.808  0.00  0.00    +0.000 C 
ATOM     13  C   UNL     1      45.271   6.116  11.516  0.00  0.00    +0.000 C 
ATOM     14  N   UNL     1      45.218   4.951  10.606  0.00  0.00    +0.000 NA
ATOM     15  C   UNL     1      43.840   4.550  10.301  0.00  0.00    +0.000 C 
ATOM     16  H   UNL     1      45.706   4.165  11.036  0.00  0.00    +0.000 HD
ENDBRANCH   8  13
ENDBRANCH   2   8
ENDBRANCH   1   5
BRANCH   1  17
ATOM     17  N   UNL     1      49.681   4.416  17.328  0.00  0.00    +0.000 N 
ATOM     18  C   UNL     1      50.323   4.384  18.541  0.00  0.00    +0.000 C 
ATOM     19  O   UNL     1      49.766   4.710  19.585  0.00  0.00    +0.000 OA
ATOM     20  H   UNL     1      50.224   4.368  16.473  0.00  0.00    +0.000 HD
BRANCH  18  21
ATOM     21  C   UNL     1      51.701   3.877  18.533  0.00  0.00    +0.000 A 
ATOM     22  C   UNL     1      52.727   4.656  19.051  0.00  0.00    +0.000 A 
ATOM     23  S   UNL     1      54.255   3.899  18.996  0.00  0.00    +0.000 S 
ATOM     24  C   UNL     1      53.606   2.523  18.233  0.00  0.00    +0.000 A 
ATOM     25  N   UNL     1      54.404   1.483  17.869  0.00  0.00    +0.000 NA
ATOM     26  C   UNL     1      53.784   0.518  17.276  0.00  0.00    +0.000 A 
ATOM     27  N   UNL     1      52.438   0.495  17.021  0.00  0.00    +0.000 N 
ATOM     28  C   UNL     1      51.589   1.507  17.398  0.00  0.00    +0.000 A 
ATOM     29  O   UNL     1      50.380   1.430  17.203  0.00  0.00    +0.000 OA
ATOM     30  C   UNL     1      52.239   2.628  18.049  0.00  0.00    +0.000 A 
ATOM     31  H   UNL     1      52.010  -0.298  16.565  0.00  0.00    +0.000 HD
ENDBRANCH  18  21
ENDBRANCH   1  17
TORSDOF 5
ENDMDL
MODEL 7
REMARK VINA RESULT:    -6.527      3.124      5.066
REMARK INTER + INTRA:          -9.440
REMARK INTER:                  -8.611
REMARK INTRA:                  -0.829
REMARK UNBOUND:                -1.006
REMARK  Name = 
REMARK  6 active torsions:
REMARK  status: ('A' for Active; 'I' for Inactive)
REMARK    1  A    between atoms: C_1  and  C_2
REMARK    2  A    between atoms: C_5  and  C_6
REMARK    3  A    between atoms: C_6  and  C_7
REMARK    4  A    between atoms: C_10  and  C_11
REMARK    5  A    between atoms: C_11  and  N_12
REMARK    6  A    between atoms: C_13  and  C_15
REMARK                            x       y       z     vdW  Elec       q    Type
REMARK                         _______ _______ _______ _____ _____    ______ ____
ROOT
ATOM      1  C   UNL     1      47.361   3.573  16.565  0.00  0.00    +0.000 C 
ENDROOT
BRANCH   1   5
ATOM      2  C   UNL     1      51.151   4.928  18.170  0.00  0.00    +0.000 A 
ATOM      3  C   UNL     1      50.157   5.847  17.806  0.00  0.00    +0.000 A 
ATOM      4  C   UNL     1      48.937   5.414  17.280  0.00  0.00    +0.000 A 
ATOM      5  C   UNL     1      48.694   4.050  17.082  0.00  0.00    +0.000 A 
ATOM      6  C   UNL     1      49.721   3.137  17.361  0.00  0.00    +0.000 A 
ATOM      7  C   UNL     1      50.931   3.569  17.916  0.00  0.00    +0.000 A 
BRANCH   2   8
ATOM      8  C   UNL     1      52.414   5.404  18.857  0.00  0.00    +0.000 C 
BRANCH   8  13
ATOM      9  C   UNL     1      52.478   8.006  14.786  0.00  0.00    +0.000 C 
ATOM     10  C   UNL     1      53.818   7.851  15.514  0.00  0.00    +0.000 C 
ATOM     11  C   UNL     1      53.792   8.521  16.889  0.00  0.00    +0.000 C 
ATOM     12  C   UNL     1      52.962   7.725  17.896  0.00  0.00    +0.000 C 
ATOM     13  C   UNL     1      53.366   6.238  17.955  0.00  0.00    +0.000 C 
ATOM     14  N   UNL     1      53.374   5.639  16.602  0.00  0.00    +0.000 NA
ATOM     15  C   UNL     1      54.232   6.382  15.674  0.00  0.00    +0.000 C 
ATOM     16  H   UNL     1      52.422   5.623  16.236  0.00  0.00    +0.000 HD
ENDBRANCH   8  13
ENDBRANCH   2   8
ENDBRANCH   1   5
BRANCH   1  17
ATOM     17  N   UNL     1      46.788   4.510  15.635  0.00  0.00    +0.000 N 
ATOM     18  C   UNL     1      46.787   4.266  14.284  0.00  0.00    +0.000 C 
ATOM     19  O   UNL     1      47.232   3.227  13.807  0.00  0.00    +0.000 OA
ATOM     20  H   UNL     1      46.634   5.454  15.973  0.00  0.00    +0.000 HD
BRANCH  18  21
ATOM     21  C   UNL     1      46.166   5.294  13.439  0.00  0.00    +0.000 A 
ATOM     22  C   UNL     1      46.844   6.478  13.180  0.00  0.00    +0.000 A 
ATOM     23  S   UNL     1      45.993   7.541  12.152  0.00  0.00    +0.000 S 
ATOM     24  C   UNL     1      44.668   6.477  12.057  0.00  0.00    +0.000 A 
ATOM     25  N   UNL     1      43.557   6.803  11.343  0.00  0.00    +0.000 NA
ATOM     26  C   UNL     1      42.621   5.916  11.379  0.00  0.00    +0.000 A 
ATOM     27  N   UNL     1      42.696   4.728  12.058  0.00  0.00    +0.000 N 
ATOM     28  C   UNL     1      43.809   4.342  12.766  0.00  0.00    +0.000 A 
ATOM     29  O   UNL     1      43.865   3.247  13.317  0.00  0.00    +0.000 OA
ATOM     30  C   UNL     1      44.884   5.315  12.776  0.00  0.00    +0.000 A 
ATOM     31  H   UNL     1      41.933   4.068  12.035  0.00  0.00    +0.000 HD
ENDBRANCH  18  21
ENDBRANCH   1  17
TORSDOF 5
ENDMDL
MODEL 8
REMARK VINA RESULT:    -6.470      3.650      5.781
REMARK INTER + INTRA:          -9.367
REMARK INTER:                  -8.480
REMARK INTRA:                  -0.887
REMARK UNBOUND:                -1.006
REMARK  Name = 
REMARK  6 active torsions:
REMARK  status: ('A' for Active; 'I' for Inactive)
REMARK    1  A    between atoms: C_1  and  C_2
REMARK    2  A    between atoms: C_5  and  C_6
REMARK    3  A    between atoms: C_6  and  C_7
REMARK    4  A    between atoms: C_10  and  C_11
REMARK    5  A    between atoms: C_11  and  N_12
REMARK    6  A    between atoms: C_13  and  C_15
REMARK                            x       y       z     vdW  Elec       q    Type
REMARK                         _______ _______ _______ _____ _____    ______ ____
ROOT
ATOM      1  C   UNL     1      46.091   8.115  12.156  0.00  0.00    +0.000 C 
ENDROOT
BRANCH   1   5
ATOM      2  C   UNL     1      50.356   8.776  11.769  0.00  0.00    +0.000 A 
ATOM      3  C   UNL     1      49.855   7.512  12.111  0.00  0.00    +0.000 A 
ATOM      4  C   UNL     1      48.480   7.298  12.245  0.00  0.00    +0.000 A 
ATOM      5  C   UNL     1      47.576   8.351  12.066  0.00  0.00    +0.000 A 
ATOM      6  C   UNL     1      48.082   9.635  11.813  0.00  0.00    +0.000 A 
ATOM      7  C   UNL     1      49.457   9.842  11.649  0.00  0.00    +0.000 A 
BRANCH   2   8
ATOM      8  C   UNL     1      51.835   8.961  11.501  0.00  0.00    +0.000 C 
BRANCH   8  13
ATOM      9  C   UNL     1      55.449   7.105   8.886  0.00  0.00    +0.000 C 
ATOM     10  C   UNL     1      54.273   7.695   8.098  0.00  0.00    +0.000 C 
ATOM     11  C   UNL     1      52.982   6.912   8.344  0.00  0.00    +0.000 C 
ATOM     12  C   UNL     1      52.406   7.185   9.733  0.00  0.00    +0.000 C 
ATOM     13  C   UNL     1      52.266   8.691  10.033  0.00  0.00    +0.000 C 
ATOM     14  N   UNL     1      53.540   9.399   9.781  0.00  0.00    +0.000 NA
ATOM     15  C   UNL     1      54.036   9.177   8.419  0.00  0.00    +0.000 C 
ATOM     16  H   UNL     1      54.242   9.077  10.448  0.00  0.00    +0.000 HD
ENDBRANCH   8  13
ENDBRANCH   2   8
ENDBRANCH   1   5
BRANCH   1  17
ATOM     17  N   UNL     1      45.754   6.747  11.861  0.00  0.00    +0.000 N 
ATOM     18  C   UNL     1      44.484   6.389  11.484  0.00  0.00    +0.000 C 
ATOM     19  O   UNL     1      43.588   7.215  11.338  0.00  0.00    +0.000 OA
ATOM     20  H   UNL     1      46.396   6.036  12.194  0.00  0.00    +0.000 HD
BRANCH  18  21
ATOM     21  C   UNL     1      44.267   4.965  11.201  0.00  0.00    +0.000 A 
ATOM     22  C   UNL     1      43.499   4.198  12.066  0.00  0.00    +0.000 A 
ATOM     23  S   UNL     1      43.320   2.576  11.567  0.00  0.00    +0.000 S 
ATOM     24  C   UNL     1      44.305   2.831  10.202  0.00  0.00    +0.000 A 
ATOM     25  N   UNL     1      44.592   1.814   9.346  0.00  0.00    +0.000 NA
ATOM     26  C   UNL     1      45.371   2.142   8.370  0.00  0.00    +0.000 A 
ATOM     27  N   UNL     1      45.883   3.397   8.168  0.00  0.00    +0.000 N 
ATOM     28  C   UNL     1      45.594   4.462   8.987  0.00  0.00    +0.000 A 
ATOM     29  O   UNL     1      46.025   5.585   8.746  0.00  0.00    +0.000 OA
ATOM     30  C   UNL     1      44.740   4.141  10.113  0.00  0.00    +0.000 A 
ATOM     31  H   UNL     1      46.476   3.594   7.375  0.00  0.00    +0.000 HD
ENDBRANCH  18  21
ENDBRANCH   1  17
TORSDOF 5
ENDMDL
MODEL 9
REMARK VINA RESULT:    -6.147      3.496      4.816
REMARK INTER + INTRA:          -8.949
REMARK INTER:                  -8.214
REMARK INTRA:                  -0.735
REMARK UNBOUND:                -1.006
REMARK  Name = 
REMARK  6 active torsions:
REMARK  status: ('A' for Active; 'I' for Inactive)
REMARK    1  A    between atoms: C_1  and  C_2
REMARK    2  A    between atoms: C_5  and  C_6
REMARK    3  A    between atoms: C_6  and  C_7
REMARK    4  A    between atoms: C_10  and  C_11
REMARK    5  A    between atoms: C_11  and  N_12
REMARK    6  A    between atoms: C_13  and  C_15
REMARK                            x       y       z     vdW  Elec       q    Type
REMARK                         _______ _______ _______ _____ _____    ______ ____
ROOT
ATOM      1  C   UNL     1      46.403   8.119  13.018  0.00  0.00    +0.000 C 
ENDROOT
BRANCH   1   5
ATOM      2  C   UNL     1      50.401   8.860  11.520  0.00  0.00    +0.000 A 
ATOM      3  C   UNL     1      49.821   7.589  11.415  0.00  0.00    +0.000 A 
ATOM      4  C   UNL     1      48.535   7.345  11.905  0.00  0.00    +0.000 A 
ATOM      5  C   UNL     1      47.810   8.361  12.536  0.00  0.00    +0.000 A 
ATOM      6  C   UNL     1      48.424   9.608  12.722  0.00  0.00    +0.000 A 
ATOM      7  C   UNL     1      49.700   9.861  12.205  0.00  0.00    +0.000 A 
BRANCH   2   8
ATOM      8  C   UNL     1      51.740   9.143  10.872  0.00  0.00    +0.000 C 
BRANCH   8  13
ATOM      9  C   UNL     1      55.382   6.412  12.492  0.00  0.00    +0.000 C 
ATOM     10  C   UNL     1      55.244   7.803  13.121  0.00  0.00    +0.000 C 
ATOM     11  C   UNL     1      55.474   8.911  12.091  0.00  0.00    +0.000 C 
ATOM     12  C   UNL     1      54.296   9.047  11.126  0.00  0.00    +0.000 C 
ATOM     13  C   UNL     1      52.943   9.170  11.855  0.00  0.00    +0.000 C 
ATOM     14  N   UNL     1      52.770   8.076  12.836  0.00  0.00    +0.000 NA
ATOM     15  C   UNL     1      53.880   8.011  13.793  0.00  0.00    +0.000 C 
ATOM     16  H   UNL     1      52.705   7.187  12.341  0.00  0.00    +0.000 HD
ENDBRANCH   8  13
ENDBRANCH   2   8
ENDBRANCH   1   5
BRANCH   1  17
ATOM     17  N   UNL     1      45.940   6.803  12.659  0.00  0.00    +0.000 N 
ATOM     18  C   UNL     1      44.908   6.626  11.773  0.00  0.00    +0.000 C 
ATOM     19  O   UNL     1      44.358   7.569  11.212  0.00  0.00    +0.000 OA
ATOM     20  H   UNL     1      46.211   6.041  13.272  0.00  0.00    +0.000 HD
BRANCH  18  21
ATOM     21  C   UNL     1      44.534   5.236  11.481  0.00  0.00    +0.000 A 
ATOM     22  C   UNL     1      43.776   4.518  12.397  0.00  0.00    +0.000 A 
ATOM     23  S   UNL     1      43.401   2.935  11.882  0.00  0.00    +0.000 S 
ATOM     24  C   UNL     1      44.282   3.138  10.439  0.00  0.00    +0.000 A 
ATOM     25  N   UNL     1      44.396   2.124   9.540  0.00  0.00    +0.000 NA
ATOM     26  C   UNL     1      45.113   2.407   8.505  0.00  0.00    +0.000 A 
ATOM     27  N   UNL     1      45.721   3.614   8.283  0.00  0.00    +0.000 N 
ATOM     28  C   UNL     1      45.608   4.677   9.147  0.00  0.00    +0.000 A 
ATOM     29  O   UNL     1      46.119   5.763   8.891  0.00  0.00    +0.000 OA
ATOM     30  C   UNL     1      44.829   4.404  10.339  0.00  0.00    +0.000 A 
ATOM     31  H   UNL     1      46.259   3.779   7.445  0.00  0.00    +0.000 HD
ENDBRANCH  18  21
ENDBRANCH   1  17
TORSDOF 5
ENDMDL
