MODEL 1
REMARK VINA RESULT:    -8.634      0.000      0.000
REMARK INTER + INTRA:         -13.089
REMARK INTER:                 -12.167
REMARK INTRA:                  -0.922
REMARK UNBOUND:                -0.922
REMARK  Name = 
REMARK  8 active torsions:
REMARK  status: ('A' for Active; 'I' for Inactive)
REMARK    1  A    between atoms: C_1  and  C_2
REMARK    2  A    between atoms: C_5  and  C_6
REMARK    3  A    between atoms: C_6  and  N_7
REMARK    4  A    between atoms: N_7  and  C_8
REMARK    5  A    between atoms: C_8  and  C_9
REMARK    6  A    between atoms: C_12  and  C_13
REMARK    7  A    between atoms: C_13  and  N_14
REMARK    8  A    between atoms: C_15  and  C_17
REMARK                            x       y       z     vdW  Elec       q    Type
REMARK                         _______ _______ _______ _____ _____    ______ ____
ROOT
ATOM      1  C   UNL     1      44.619   5.627  11.735  0.00  0.00    +0.000 A 
ATOM      2  C   UNL     1      44.846   5.069  13.002  0.00  0.00    +0.000 A 
ATOM      3  C   UNL     1      46.059   5.275  13.671  0.00  0.00    +0.000 A 
ATOM      4  C   UNL     1      47.075   6.043  13.090  0.00  0.00    +0.000 A 
ATOM      5  C   UNL     1      46.864   6.574  11.810  0.00  0.00    +0.000 A 
ATOM      6  C   UNL     1      45.647   6.374  11.145  0.00  0.00    +0.000 A 
ENDROOT
BRANCH   1   7
ATOM      7  C   UNL     1      43.303   5.415  11.013  0.00  0.00    +0.000 C 
BRANCH   7   8
ATOM      8  N   UNL     1      43.489   4.734   9.731  0.00  0.00    +0.000 NA
ATOM      9  H   UNL     1      42.578   4.593   9.295  0.00  0.00    +0.000 HD
BRANCH   8  10
ATOM     10  C   UNL     1      44.111   3.412   9.913  0.00  0.00    +0.000 C 
BRANCH  10  15
ATOM     11  C   UNL     1      47.923   2.449   5.736  0.00  0.00    +0.000 C 
ATOM     12  C   UNL     1      46.909   2.628   6.822  0.00  0.00    +0.000 A 
ATOM     13  C   UNL     1      46.572   1.591   7.676  0.00  0.00    +0.000 A 
ATOM     14  C   UNL     1      45.650   1.825   8.686  0.00  0.00    +0.000 A 
ATOM     15  C   UNL     1      45.107   3.096   8.819  0.00  0.00    +0.000 A 
ATOM     16  N   UNL     1      45.458   4.093   7.974  0.00  0.00    +0.000 NA
ATOM     17  N   UNL     1      46.365   3.857   6.970  0.00  0.00    +0.000 NA
ENDBRANCH  10  15
ENDBRANCH   8  10
ENDBRANCH   7   8
ENDBRANCH   1   7
BRANCH   4  18
ATOM     18  C   UNL     1      48.312   6.391  13.874  0.00  0.00    +0.000 C 
BRANCH  18  19
ATOM     19  N   UNL     1      48.130   6.605  15.292  0.00  0.00    +0.000 N 
ATOM     20  C   UNL     1      49.268   6.706  16.067  0.00  0.00    +0.000 C 
ATOM     21  O   UNL     1      50.383   6.624  15.552  0.00  0.00    +0.000 OA
ATOM     22  H   UNL     1      47.210   6.829  15.666  0.00  0.00    +0.000 HD
BRANCH  20  23
ATOM     23  C   UNL     1      49.145   6.854  17.522  0.00  0.00    +0.000 A 
ATOM     24  C   UNL     1      49.533   8.052  18.112  0.00  0.00    +0.000 A 
ATOM     25  S   UNL     1      49.524   8.018  19.816  0.00  0.00    +0.000 S 
ATOM     26  C   UNL     1      49.080   6.378  19.819  0.00  0.00    +0.000 A 
ATOM     27  N   UNL     1      49.090   5.652  20.968  0.00  0.00    +0.000 NA
ATOM     28  C   UNL     1      48.786   4.408  20.809  0.00  0.00    +0.000 A 
ATOM     29  N   UNL     1      48.384   3.847  19.621  0.00  0.00    +0.000 N 
ATOM     30  C   UNL     1      48.247   4.575  18.462  0.00  0.00    +0.000 A 
ATOM     31  O   UNL     1      47.706   4.115  17.462  0.00  0.00    +0.000 OA
ATOM     32  C   UNL     1      48.767   5.922  18.549  0.00  0.00    +0.000 A 
ATOM     33  H   UNL     1      48.067   2.889  19.590  0.00  0.00    +0.000 HD
ENDBRANCH  20  23
ENDBRANCH  18  19
ENDBRANCH   4  18
TORSDOF 7
ENDMDL
MODEL 2
REMARK VINA RESULT:    -7.964      2.020      2.306
REMARK INTER + INTRA:         -12.144
REMARK INTER:                 -11.446
REMARK INTRA:                  -0.698
REMARK UNBOUND:                -0.922
REMARK  Name = 
REMARK  8 active torsions:
REMARK  status: ('A' for Active; 'I' for Inactive)
REMARK    1  A    between atoms: C_1  and  C_2
REMARK    2  A    between atoms: C_5  and  C_6
REMARK    3  A    between atoms: C_6  and  N_7
REMARK    4  A    between atoms: N_7  and  C_8
REMARK    5  A    between atoms: C_8  and  C_9
REMARK    6  A    between atoms: C_12  and  C_13
REMARK    7  A    between atoms: C_13  and  N_14
REMARK    8  A    between atoms: C_15  and  C_17
REMARK                            x       y       z     vdW  Elec       q    Type
REMARK                         _______ _______ _______ _____ _____    ______ ____
ROOT
ATOM      1  C   UNL     1      44.502   4.552  12.574  0.00  0.00    +0.000 A 
ATOM      2  C   UNL     1      44.289   5.937  12.521  0.00  0.00    +0.000 A 
ATOM      3  C   UNL     1      45.328   6.835  12.799  0.00  0.00    +0.000 A 
ATOM      4  C   UNL     1      46.604   6.369  13.138  0.00  0.00    +0.000 A 
ATOM      5  C   UNL     1      46.810   4.985  13.224  0.00  0.00    +0.000 A 
ATOM      6  C   UNL     1      45.773   4.089  12.938  0.00  0.00    +0.000 A 
ENDROOT
BRANCH   1   7
ATOM      7  C   UNL     1      43.383   3.578  12.263  0.00  0.00    +0.000 C 
BRANCH   7   8
ATOM      8  N   UNL     1      43.525   2.992  10.929  0.00  0.00    +0.000 NA
ATOM      9  H   UNL     1      44.258   2.283  10.955  0.00  0.00    +0.000 HD
BRANCH   8  10
ATOM     10  C   UNL     1      43.915   4.008   9.938  0.00  0.00    +0.000 C 
BRANCH  10  15
ATOM     11  C   UNL     1      47.891   2.251   6.194  0.00  0.00    +0.000 C 
ATOM     12  C   UNL     1      46.826   2.640   7.171  0.00  0.00    +0.000 A 
ATOM     13  C   UNL     1      46.300   1.727   8.070  0.00  0.00    +0.000 A 
ATOM     14  C   UNL     1      45.339   2.153   8.975  0.00  0.00    +0.000 A 
ATOM     15  C   UNL     1      44.946   3.485   8.962  0.00  0.00    +0.000 A 
ATOM     16  N   UNL     1      45.480   4.357   8.076  0.00  0.00    +0.000 NA
ATOM     17  N   UNL     1      46.427   3.931   7.176  0.00  0.00    +0.000 NA
ENDBRANCH  10  15
ENDBRANCH   8  10
ENDBRANCH   7   8
ENDBRANCH   1   7
BRANCH   4  18
ATOM     18  C   UNL     1      47.753   7.331  13.283  0.00  0.00    +0.000 C 
BRANCH  18  19
ATOM     19  N   UNL     1      48.928   6.826  13.957  0.00  0.00    +0.000 N 
ATOM     20  C   UNL     1      49.214   7.346  15.203  0.00  0.00    +0.000 C 
ATOM     21  O   UNL     1      48.481   8.197  15.708  0.00  0.00    +0.000 OA
ATOM     22  H   UNL     1      49.422   6.014  13.593  0.00  0.00    +0.000 HD
BRANCH  20  23
ATOM     23  C   UNL     1      50.431   6.922  15.905  0.00  0.00    +0.000 A 
ATOM     24  C   UNL     1      51.639   7.534  15.587  0.00  0.00    +0.000 A 
ATOM     25  S   UNL     1      52.994   6.814  16.328  0.00  0.00    +0.000 S 
ATOM     26  C   UNL     1      52.019   5.613  17.032  0.00  0.00    +0.000 A 
ATOM     27  N   UNL     1      52.573   4.535  17.650  0.00  0.00    +0.000 NA
ATOM     28  C   UNL     1      51.711   3.678  18.085  0.00  0.00    +0.000 A 
ATOM     29  N   UNL     1      50.349   3.846  18.040  0.00  0.00    +0.000 N 
ATOM     30  C   UNL     1      49.754   4.976  17.530  0.00  0.00    +0.000 A 
ATOM     31  O   UNL     1      48.556   5.203  17.668  0.00  0.00    +0.000 OA
ATOM     32  C   UNL     1      50.670   5.868  16.853  0.00  0.00    +0.000 A 
ATOM     33  H   UNL     1      49.737   3.180  18.488  0.00  0.00    +0.000 HD
ENDBRANCH  20  23
ENDBRANCH  18  19
ENDBRANCH   4  18
TORSDOF 7
ENDMDL
MODEL 3
REMARK VINA RESULT:    -7.498      2.913      3.677
REMARK INTER + INTRA:         -11.487
REMARK INTER:                 -10.272
REMARK INTRA:                  -1.216
REMARK UNBOUND:                -0.922
REMARK  Name = 
REMARK  8 active torsions:
REMARK  status: ('A' for Active; 'I' for Inactive)
REMARK    1  A    between atoms: C_1  and  C_2
REMARK    2  A    between atoms: C_5  and  C_6
REMARK    3  A    between atoms: C_6  and  N_7
REMARK    4  A    between atoms: N_7  and  C_8
REMARK    5  A    between atoms: C_8  and  C_9
REMARK    6  A    between atoms: C_12  and  C_13
REMARK    7  A    between atoms: C_13  and  N_14
REMARK    8  A    between atoms: C_15  and  C_17
REMARK                            x       y       z     vdW  Elec       q    Type
REMARK                         _______ _______ _______ _____ _____    ______ ____
ROOT
ATOM      1  C   UNL     1      44.973   5.134  12.270  0.00  0.00    +0.000 A 
ATOM      2  C   UNL     1      44.475   6.354  11.791  0.00  0.00    +0.000 A 
ATOM      3  C   UNL     1      45.270   7.508  11.800  0.00  0.00    +0.000 A 
ATOM      4  C   UNL     1      46.581   7.470  12.290  0.00  0.00    +0.000 A 
ATOM      5  C   UNL     1      47.069   6.260  12.800  0.00  0.00    +0.000 A 
ATOM      6  C   UNL     1      46.277   5.105  12.783  0.00  0.00    +0.000 A 
ENDROOT
BRANCH   1   7
ATOM      7  C   UNL     1      44.120   3.881  12.252  0.00  0.00    +0.000 C 
BRANCH   7   8
ATOM      8  N   UNL     1      44.740   2.811  11.469  0.00  0.00    +0.000 NA
ATOM      9  H   UNL     1      45.725   3.034  11.326  0.00  0.00    +0.000 HD
BRANCH   8  10
ATOM     10  C   UNL     1      44.109   2.683  10.146  0.00  0.00    +0.000 C 
BRANCH  10  15
ATOM     11  C   UNL     1      47.959   2.255   5.914  0.00  0.00    +0.000 C 
ATOM     12  C   UNL     1      46.975   2.439   7.027  0.00  0.00    +0.000 A 
ATOM     13  C   UNL     1      46.387   3.667   7.278  0.00  0.00    +0.000 A 
ATOM     14  C   UNL     1      45.455   3.769   8.301  0.00  0.00    +0.000 A 
ATOM     15  C   UNL     1      45.131   2.633   9.031  0.00  0.00    +0.000 A 
ATOM     16  N   UNL     1      45.717   1.444   8.761  0.00  0.00    +0.000 NA
ATOM     17  N   UNL     1      46.644   1.347   7.752  0.00  0.00    +0.000 NA
ENDBRANCH  10  15
ENDBRANCH   8  10
ENDBRANCH   7   8
ENDBRANCH   1   7
BRANCH   4  18
ATOM     18  C   UNL     1      47.480   8.670  12.154  0.00  0.00    +0.000 C 
BRANCH  18  19
ATOM     19  N   UNL     1      48.587   8.746  13.079  0.00  0.00    +0.000 N 
ATOM     20  C   UNL     1      49.844   8.455  12.586  0.00  0.00    +0.000 C 
ATOM     21  O   UNL     1      49.995   8.155  11.402  0.00  0.00    +0.000 OA
ATOM     22  H   UNL     1      48.460   9.150  14.005  0.00  0.00    +0.000 HD
BRANCH  20  23
ATOM     23  C   UNL     1      50.996   8.449  13.494  0.00  0.00    +0.000 A 
ATOM     24  C   UNL     1      52.168   9.087  13.100  0.00  0.00    +0.000 A 
ATOM     25  S   UNL     1      53.482   8.834  14.156  0.00  0.00    +0.000 S 
ATOM     26  C   UNL     1      52.549   7.798  15.129  0.00  0.00    +0.000 A 
ATOM     27  N   UNL     1      53.123   7.062  16.117  0.00  0.00    +0.000 NA
ATOM     28  C   UNL     1      52.303   6.279  16.735  0.00  0.00    +0.000 A 
ATOM     29  N   UNL     1      50.948   6.235  16.515  0.00  0.00    +0.000 N 
ATOM     30  C   UNL     1      50.314   7.051  15.607  0.00  0.00    +0.000 A 
ATOM     31  O   UNL     1      49.092   7.143  15.554  0.00  0.00    +0.000 OA
ATOM     32  C   UNL     1      51.216   7.796  14.756  0.00  0.00    +0.000 A 
ATOM     33  H   UNL     1      50.354   5.670  17.103  0.00  0.00    +0.000 HD
ENDBRANCH  20  23
ENDBRANCH  18  19
ENDBRANCH   4  18
TORSDOF 7
ENDMDL
MODEL 4
REMARK VINA RESULT:    -7.296      5.066      9.841
REMARK INTER + INTRA:         -11.203
REMARK INTER:                 -10.406
REMARK INTRA:                  -0.797
REMARK UNBOUND:                -0.922
REMARK  Name = 
REMARK  8 active torsions:
REMARK  status: ('A' for Active; 'I' for Inactive)
REMARK    1  A    between atoms: C_1  and  C_2
REMARK    2  A    between atoms: C_5  and  C_6
REMARK    3  A    between atoms: C_6  and  N_7
REMARK    4  A    between atoms: N_7  and  C_8
REMARK    5  A    between atoms: C_8  and  C_9
REMARK    6  A    between atoms: C_12  and  C_13
REMARK    7  A    between atoms: C_13  and  N_14
REMARK    8  A    between atoms: C_15  and  C_17
REMARK                            x       y       z     vdW  Elec       q    Type
REMARK                         _______ _______ _______ _____ _____    ______ ____
ROOT
ATOM      1  C   UNL     1      51.385   3.716  17.856  0.00  0.00    +0.000 A 
ATOM      2  C   UNL     1      50.573   4.859  17.855  0.00  0.00    +0.000 A 
ATOM      3  C   UNL     1      49.233   4.789  17.454  0.00  0.00    +0.000 A 
ATOM      4  C   UNL     1      48.672   3.574  17.042  0.00  0.00    +0.000 A 
ATOM      5  C   UNL     1      49.491   2.437  17.009  0.00  0.00    +0.000 A 
ATOM      6  C   UNL     1      50.828   2.506  17.419  0.00  0.00    +0.000 A 
ENDROOT
BRANCH   1   7
ATOM      7  C   UNL     1      52.832   3.787  18.300  0.00  0.00    +0.000 C 
BRANCH   7   8
ATOM      8  N   UNL     1      53.157   2.738  19.269  0.00  0.00    +0.000 NA
ATOM      9  H   UNL     1      53.012   3.101  20.211  0.00  0.00    +0.000 HD
BRANCH   8  10
ATOM     10  C   UNL     1      54.565   2.325  19.156  0.00  0.00    +0.000 C 
BRANCH  10  15
ATOM     11  C   UNL     1      55.015  -2.522  16.119  0.00  0.00    +0.000 C 
ATOM     12  C   UNL     1      54.958  -1.231  16.874  0.00  0.00    +0.000 A 
ATOM     13  C   UNL     1      55.407  -0.045  16.317  0.00  0.00    +0.000 A 
ATOM     14  C   UNL     1      55.297   1.126  17.053  0.00  0.00    +0.000 A 
ATOM     15  C   UNL     1      54.726   1.076  18.317  0.00  0.00    +0.000 A 
ATOM     16  N   UNL     1      54.290  -0.096  18.836  0.00  0.00    +0.000 NA
ATOM     17  N   UNL     1      54.407  -1.256  18.109  0.00  0.00    +0.000 NA
ENDBRANCH  10  15
ENDBRANCH   8  10
ENDBRANCH   7   8
ENDBRANCH   1   7
BRANCH   4  18
ATOM     18  C   UNL     1      47.196   3.471  16.761  0.00  0.00    +0.000 C 
BRANCH  18  19
ATOM     19  N   UNL     1      46.667   4.392  15.782  0.00  0.00    +0.000 N 
ATOM     20  C   UNL     1      46.773   4.032  14.453  0.00  0.00    +0.000 C 
ATOM     21  O   UNL     1      47.294   2.961  14.137  0.00  0.00    +0.000 OA
ATOM     22  H   UNL     1      46.101   5.187  16.073  0.00  0.00    +0.000 HD
BRANCH  20  23
ATOM     23  C   UNL     1      46.316   4.957  13.411  0.00  0.00    +0.000 A 
ATOM     24  C   UNL     1      47.088   6.077  13.119  0.00  0.00    +0.000 A 
ATOM     25  S   UNL     1      46.345   7.164  12.036  0.00  0.00    +0.000 S 
ATOM     26  C   UNL     1      44.937   6.214  11.987  0.00  0.00    +0.000 A 
ATOM     27  N   UNL     1      43.804   6.672  11.391  0.00  0.00    +0.000 NA
ATOM     28  C   UNL     1      42.799   5.867  11.482  0.00  0.00    +0.000 A 
ATOM     29  N   UNL     1      42.851   4.609  12.031  0.00  0.00    +0.000 N 
ATOM     30  C   UNL     1      44.009   4.065  12.537  0.00  0.00    +0.000 A 
ATOM     31  O   UNL     1      44.092   2.880  12.846  0.00  0.00    +0.000 OA
ATOM     32  C   UNL     1      45.105   5.003  12.637  0.00  0.00    +0.000 A 
ATOM     33  H   UNL     1      42.051   3.996  11.980  0.00  0.00    +0.000 HD
ENDBRANCH  20  23
ENDBRANCH  18  19
ENDBRANCH   4  18
TORSDOF 7
ENDMDL
MODEL 5
REMARK VINA RESULT:    -7.135      4.744      6.926
REMARK INTER + INTRA:         -10.976
REMARK INTER:                  -9.959
REMARK INTRA:                  -1.018
REMARK UNBOUND:                -0.922
REMARK  Name = 
REMARK  8 active torsions:
REMARK  status: ('A' for Active; 'I' for Inactive)
REMARK    1  A    between atoms: C_1  and  C_2
REMARK    2  A    between atoms: C_5  and  C_6
REMARK    3  A    between atoms: C_6  and  N_7
REMARK    4  A    between atoms: N_7  and  C_8
REMARK    5  A    between atoms: C_8  and  C_9
REMARK    6  A    between atoms: C_12  and  C_13
REMARK    7  A    between atoms: C_13  and  N_14
REMARK    8  A    between atoms: C_15  and  C_17
REMARK                            x       y       z     vdW  Elec       q    Type
REMARK                         _______ _______ _______ _____ _____    ______ ____
ROOT
ATOM      1  C   UNL     1      46.400   5.970  12.309  0.00  0.00    +0.000 A 
ATOM      2  C   UNL     1      47.093   5.637  13.483  0.00  0.00    +0.000 A 
ATOM      3  C   UNL     1      48.318   6.242  13.790  0.00  0.00    +0.000 A 
ATOM      4  C   UNL     1      48.881   7.194  12.932  0.00  0.00    +0.000 A 
ATOM      5  C   UNL     1      48.208   7.504  11.743  0.00  0.00    +0.000 A 
ATOM      6  C   UNL     1      46.979   6.905  11.440  0.00  0.00    +0.000 A 
ENDROOT
BRANCH   1   7
ATOM      7  C   UNL     1      45.069   5.325  11.979  0.00  0.00    +0.000 C 
BRANCH   7   8
ATOM      8  N   UNL     1      44.653   5.607  10.604  0.00  0.00    +0.000 NA
ATOM      9  H   UNL     1      43.933   6.329  10.617  0.00  0.00    +0.000 HD
BRANCH   8  10
ATOM     10  C   UNL     1      44.082   4.412   9.963  0.00  0.00    +0.000 C 
BRANCH  10  15
ATOM     11  C   UNL     1      47.854   2.175   6.265  0.00  0.00    +0.000 C 
ATOM     12  C   UNL     1      46.833   2.693   7.229  0.00  0.00    +0.000 A 
ATOM     13  C   UNL     1      46.177   1.851   8.110  0.00  0.00    +0.000 A 
ATOM     14  C   UNL     1      45.265   2.393   9.005  0.00  0.00    +0.000 A 
ATOM     15  C   UNL     1      45.051   3.765   8.998  0.00  0.00    +0.000 A 
ATOM     16  N   UNL     1      45.710   4.566   8.129  0.00  0.00    +0.000 NA
ATOM     17  N   UNL     1      46.607   4.026   7.240  0.00  0.00    +0.000 NA
ENDBRANCH  10  15
ENDBRANCH   8  10
ENDBRANCH   7   8
ENDBRANCH   1   7
BRANCH   4  18
ATOM     18  C   UNL     1      50.115   7.953  13.341  0.00  0.00    +0.000 C 
BRANCH  18  19
ATOM     19  N   UNL     1      51.115   8.147  12.316  0.00  0.00    +0.000 N 
ATOM     20  C   UNL     1      51.204   9.402  11.748  0.00  0.00    +0.000 C 
ATOM     21  O   UNL     1      50.459  10.309  12.121  0.00  0.00    +0.000 OA
ATOM     22  H   UNL     1      51.821   7.433  12.141  0.00  0.00    +0.000 HD
BRANCH  20  23
ATOM     23  C   UNL     1      52.153   9.639  10.655  0.00  0.00    +0.000 A 
ATOM     24  C   UNL     1      52.677  10.916  10.483  0.00  0.00    +0.000 A 
ATOM     25  S   UNL     1      53.606  11.097   9.066  0.00  0.00    +0.000 S 
ATOM     26  C   UNL     1      53.270   9.498   8.596  0.00  0.00    +0.000 A 
ATOM     27  N   UNL     1      53.601   9.049   7.356  0.00  0.00    +0.000 NA
ATOM     28  C   UNL     1      53.234   7.835   7.121  0.00  0.00    +0.000 A 
ATOM     29  N   UNL     1      52.649   7.001   8.043  0.00  0.00    +0.000 N 
ATOM     30  C   UNL     1      52.406   7.382   9.342  0.00  0.00    +0.000 A 
ATOM     31  O   UNL     1      52.066   6.579  10.205  0.00  0.00    +0.000 OA
ATOM     32  C   UNL     1      52.617   8.791   9.591  0.00  0.00    +0.000 A 
ATOM     33  H   UNL     1      52.477   6.033   7.818  0.00  0.00    +0.000 HD
ENDBRANCH  20  23
ENDBRANCH  18  19
ENDBRANCH   4  18
TORSDOF 7
ENDMDL
MODEL 6
REMARK VINA RESULT:    -6.874      3.766      8.849
REMARK INTER + INTRA:         -10.609
REMARK INTER:                  -9.166
REMARK INTRA:                  -1.443
REMARK UNBOUND:                -0.922
REMARK  Name = 
REMARK  8 active torsions:
REMARK  status: ('A' for Active; 'I' for Inactive)
REMARK    1  A    between atoms: C_1  and  C_2
REMARK    2  A    between atoms: C_5  and  C_6
REMARK    3  A    between atoms: C_6  and  N_7
REMARK    4  A    between atoms: N_7  and  C_8
REMARK    5  A    between atoms: C_8  and  C_9
REMARK    6  A    between atoms: C_12  and  C_13
REMARK    7  A    between atoms: C_13  and  N_14
REMARK    8  A    between atoms: C_15  and  C_17
REMARK                            x       y       z     vdW  Elec       q    Type
REMARK                         _______ _______ _______ _____ _____    ______ ____
ROOT
ATOM      1  C   UNL     1      51.134   4.237  18.610  0.00  0.00    +0.000 A 
ATOM      2  C   UNL     1      50.927   3.167  17.725  0.00  0.00    +0.000 A 
ATOM      3  C   UNL     1      49.643   2.856  17.261  0.00  0.00    +0.000 A 
ATOM      4  C   UNL     1      48.533   3.605  17.670  0.00  0.00    +0.000 A 
ATOM      5  C   UNL     1      48.732   4.653  18.579  0.00  0.00    +0.000 A 
ATOM      6  C   UNL     1      50.018   4.969  19.037  0.00  0.00    +0.000 A 
ENDROOT
BRANCH   1   7
ATOM      7  C   UNL     1      52.523   4.582  19.106  0.00  0.00    +0.000 C 
BRANCH   7   8
ATOM      8  N   UNL     1      53.021   5.824  18.510  0.00  0.00    +0.000 NA
ATOM      9  H   UNL     1      52.279   6.523  18.534  0.00  0.00    +0.000 HD
BRANCH   8  10
ATOM     10  C   UNL     1      53.408   5.624  17.104  0.00  0.00    +0.000 C 
BRANCH  10  15
ATOM     11  C   UNL     1      51.087   9.429  13.493  0.00  0.00    +0.000 C 
ATOM     12  C   UNL     1      51.632   8.443  14.478  0.00  0.00    +0.000 A 
ATOM     13  C   UNL     1      50.796   7.636  15.232  0.00  0.00    +0.000 A 
ATOM     14  C   UNL     1      51.358   6.716  16.105  0.00  0.00    +0.000 A 
ATOM     15  C   UNL     1      52.741   6.621  16.183  0.00  0.00    +0.000 A 
ATOM     16  N   UNL     1      53.535   7.418  15.430  0.00  0.00    +0.000 NA
ATOM     17  N   UNL     1      52.976   8.333  14.572  0.00  0.00    +0.000 NA
ENDBRANCH  10  15
ENDBRANCH   8  10
ENDBRANCH   7   8
ENDBRANCH   1   7
BRANCH   4  18
ATOM     18  C   UNL     1      47.182   3.368  17.049  0.00  0.00    +0.000 C 
BRANCH  18  19
ATOM     19  N   UNL     1      46.753   4.334  16.064  0.00  0.00    +0.000 N 
ATOM     20  C   UNL     1      46.962   4.017  14.736  0.00  0.00    +0.000 C 
ATOM     21  O   UNL     1      47.485   2.947  14.425  0.00  0.00    +0.000 OA
ATOM     22  H   UNL     1      46.182   5.131  16.337  0.00  0.00    +0.000 HD
BRANCH  20  23
ATOM     23  C   UNL     1      46.609   4.988  13.695  0.00  0.00    +0.000 A 
ATOM     24  C   UNL     1      47.419   6.105  13.514  0.00  0.00    +0.000 A 
ATOM     25  S   UNL     1      46.790   7.244  12.413  0.00  0.00    +0.000 S 
ATOM     26  C   UNL     1      45.378   6.320  12.206  0.00  0.00    +0.000 A 
ATOM     27  N   UNL     1      44.307   6.820  11.533  0.00  0.00    +0.000 NA
ATOM     28  C   UNL     1      43.287   6.029  11.505  0.00  0.00    +0.000 A 
ATOM     29  N   UNL     1      43.274   4.751  12.008  0.00  0.00    +0.000 N 
ATOM     30  C   UNL     1      44.375   4.169  12.591  0.00  0.00    +0.000 A 
ATOM     31  O   UNL     1      44.415   2.972  12.860  0.00  0.00    +0.000 OA
ATOM     32  C   UNL     1      45.471   5.084  12.822  0.00  0.00    +0.000 A 
ATOM     33  H   UNL     1      42.473   4.155  11.864  0.00  0.00    +0.000 HD
ENDBRANCH  20  23
ENDBRANCH  18  19
ENDBRANCH   4  18
TORSDOF 7
ENDMDL
MODEL 7
REMARK VINA RESULT:    -6.720      5.038      8.320
REMARK INTER + INTRA:         -10.392
REMARK INTER:                  -9.497
REMARK INTRA:                  -0.895
REMARK UNBOUND:                -0.922
REMARK  Name = 
REMARK  8 active torsions:
REMARK  status: ('A' for Active; 'I' for Inactive)
REMARK    1  A    between atoms: C_1  and  C_2
REMARK    2  A    between atoms: C_5  and  C_6
REMARK    3  A    between atoms: C_6  and  N_7
REMARK    4  A    between atoms: N_7  and  C_8
REMARK    5  A    between atoms: C_8  and  C_9
REMARK    6  A    between atoms: C_12  and  C_13
REMARK    7  A    between atoms: C_13  and  N_14
REMARK    8  A    between atoms: C_15  and  C_17
REMARK                            x       y       z     vdW  Elec       q    Type
REMARK                         _______ _______ _______ _____ _____    ______ ____
ROOT
ATOM      1  C   UNL     1      50.383   8.674  11.826  0.00  0.00    +0.000 A 
ATOM      2  C   UNL     1      49.508   9.765  11.711  0.00  0.00    +0.000 A 
ATOM      3  C   UNL     1      48.124   9.592  11.829  0.00  0.00    +0.000 A 
ATOM      4  C   UNL     1      47.578   8.324  12.065  0.00  0.00    +0.000 A 
ATOM      5  C   UNL     1      48.447   7.227  12.147  0.00  0.00    +0.000 A 
ATOM      6  C   UNL     1      49.833   7.403  12.037  0.00  0.00    +0.000 A 
ENDROOT
BRANCH   1   7
ATOM      7  C   UNL     1      51.882   8.860  11.709  0.00  0.00    +0.000 C 
BRANCH   7   8
ATOM      8  N   UNL     1      52.513   7.757  10.982  0.00  0.00    +0.000 NA
ATOM      9  H   UNL     1      53.409   7.542  11.419  0.00  0.00    +0.000 HD
BRANCH   8  10
ATOM     10  C   UNL     1      52.770   8.120   9.579  0.00  0.00    +0.000 C 
BRANCH  10  15
ATOM     11  C   UNL     1      54.019   3.646   6.212  0.00  0.00    +0.000 C 
ATOM     12  C   UNL     1      53.724   4.776   7.148  0.00  0.00    +0.000 A 
ATOM     13  C   UNL     1      54.528   5.036   8.245  0.00  0.00    +0.000 A 
ATOM     14  C   UNL     1      54.225   6.119   9.059  0.00  0.00    +0.000 A 
ATOM     15  C   UNL     1      53.136   6.917   8.738  0.00  0.00    +0.000 A 
ATOM     16  N   UNL     1      52.369   6.643   7.657  0.00  0.00    +0.000 NA
ATOM     17  N   UNL     1      52.667   5.567   6.857  0.00  0.00    +0.000 NA
ENDBRANCH  10  15
ENDBRANCH   8  10
ENDBRANCH   7   8
ENDBRANCH   1   7
BRANCH   4  18
ATOM     18  C   UNL     1      46.108   8.166  12.346  0.00  0.00    +0.000 C 
BRANCH  18  19
ATOM     19  N   UNL     1      45.437   7.089  11.655  0.00  0.00    +0.000 N 
ATOM     20  C   UNL     1      45.278   5.901  12.340  0.00  0.00    +0.000 C 
ATOM     21  O   UNL     1      45.688   5.787  13.495  0.00  0.00    +0.000 OA
ATOM     22  H   UNL     1      44.967   7.258  10.767  0.00  0.00    +0.000 HD
BRANCH  20  23
ATOM     23  C   UNL     1      44.666   4.751  11.666  0.00  0.00    +0.000 A 
ATOM     24  C   UNL     1      43.792   3.938  12.380  0.00  0.00    +0.000 A 
ATOM     25  S   UNL     1      43.312   2.534  11.542  0.00  0.00    +0.000 S 
ATOM     26  C   UNL     1      44.320   2.926  10.230  0.00  0.00    +0.000 A 
ATOM     27  N   UNL     1      44.545   2.034   9.230  0.00  0.00    +0.000 NA
ATOM     28  C   UNL     1      45.376   2.448   8.333  0.00  0.00    +0.000 A 
ATOM     29  N   UNL     1      45.928   3.705   8.298  0.00  0.00    +0.000 N 
ATOM     30  C   UNL     1      45.631   4.675   9.227  0.00  0.00    +0.000 A 
ATOM     31  O   UNL     1      45.973   5.844   9.083  0.00  0.00    +0.000 OA
ATOM     32  C   UNL     1      44.866   4.192  10.356  0.00  0.00    +0.000 A 
ATOM     33  H   UNL     1      46.493   3.993   7.513  0.00  0.00    +0.000 HD
ENDBRANCH  20  23
ENDBRANCH  18  19
ENDBRANCH   4  18
TORSDOF 7
ENDMDL
MODEL 8
REMARK VINA RESULT:    -6.703      3.694      8.885
REMARK INTER + INTRA:         -10.368
REMARK INTER:                  -8.825
REMARK INTRA:                  -1.542
REMARK UNBOUND:                -0.922
REMARK  Name = 
REMARK  8 active torsions:
REMARK  status: ('A' for Active; 'I' for Inactive)
REMARK    1  A    between atoms: C_1  and  C_2
REMARK    2  A    between atoms: C_5  and  C_6
REMARK    3  A    between atoms: C_6  and  N_7
REMARK    4  A    between atoms: N_7  and  C_8
REMARK    5  A    between atoms: C_8  and  C_9
REMARK    6  A    between atoms: C_12  and  C_13
REMARK    7  A    between atoms: C_13  and  N_14
REMARK    8  A    between atoms: C_15  and  C_17
REMARK                            x       y       z     vdW  Elec       q    Type
REMARK                         _______ _______ _______ _____ _____    ______ ____
ROOT
ATOM      1  C   UNL     1      50.762   8.585  15.279  0.00  0.00    +0.000 A 
ATOM      2  C   UNL     1      49.668   9.372  15.667  0.00  0.00    +0.000 A 
ATOM      3  C   UNL     1      48.443   9.284  14.992  0.00  0.00    +0.000 A 
ATOM      4  C   UNL     1      48.283   8.408  13.912  0.00  0.00    +0.000 A 
ATOM      5  C   UNL     1      49.385   7.645  13.500  0.00  0.00    +0.000 A 
ATOM      6  C   UNL     1      50.606   7.728  14.181  0.00  0.00    +0.000 A 
ENDROOT
BRANCH   1   7
ATOM      7  C   UNL     1      52.084   8.670  16.014  0.00  0.00    +0.000 C 
BRANCH   7   8
ATOM      8  N   UNL     1      52.552   7.352  16.448  0.00  0.00    +0.000 NA
ATOM      9  H   UNL     1      52.301   6.662  15.740  0.00  0.00    +0.000 HD
BRANCH   8  10
ATOM     10  C   UNL     1      51.920   6.952  17.715  0.00  0.00    +0.000 C 
BRANCH  10  15
ATOM     11  C   UNL     1      47.861   2.972  16.937  0.00  0.00    +0.000 C 
ATOM     12  C   UNL     1      48.871   4.062  17.117  0.00  0.00    +0.000 A 
ATOM     13  C   UNL     1      48.491   5.354  17.440  0.00  0.00    +0.000 A 
ATOM     14  C   UNL     1      49.474   6.316  17.629  0.00  0.00    +0.000 A 
ATOM     15  C   UNL     1      50.807   5.949  17.503  0.00  0.00    +0.000 A 
ATOM     16  N   UNL     1      51.150   4.677  17.191  0.00  0.00    +0.000 NA
ATOM     17  N   UNL     1      50.176   3.729  16.998  0.00  0.00    +0.000 NA
ENDBRANCH  10  15
ENDBRANCH   8  10
ENDBRANCH   7   8
ENDBRANCH   1   7
BRANCH   4  18
ATOM     18  C   UNL     1      46.927   8.203  13.291  0.00  0.00    +0.000 C 
BRANCH  18  19
ATOM     19  N   UNL     1      46.714   6.938  12.625  0.00  0.00    +0.000 N 
ATOM     20  C   UNL     1      45.798   6.914  11.593  0.00  0.00    +0.000 C 
ATOM     21  O   UNL     1      45.203   7.941  11.262  0.00  0.00    +0.000 OA
ATOM     22  H   UNL     1      47.331   6.148  12.807  0.00  0.00    +0.000 HD
BRANCH  20  23
ATOM     23  C   UNL     1      45.490   5.645  10.925  0.00  0.00    +0.000 A 
ATOM     24  C   UNL     1      45.653   5.552   9.546  0.00  0.00    +0.000 A 
ATOM     25  S   UNL     1      45.074   4.095   8.879  0.00  0.00    +0.000 S 
ATOM     26  C   UNL     1      44.514   3.577  10.398  0.00  0.00    +0.000 A 
ATOM     27  N   UNL     1      43.725   2.475  10.514  0.00  0.00    +0.000 NA
ATOM     28  C   UNL     1      43.329   2.236  11.720  0.00  0.00    +0.000 A 
ATOM     29  N   UNL     1      43.726   2.944  12.828  0.00  0.00    +0.000 N 
ATOM     30  C   UNL     1      44.616   3.991  12.764  0.00  0.00    +0.000 A 
ATOM     31  O   UNL     1      45.111   4.489  13.770  0.00  0.00    +0.000 OA
ATOM     32  C   UNL     1      44.926   4.417  11.418  0.00  0.00    +0.000 A 
ATOM     33  H   UNL     1      43.454   2.641  13.751  0.00  0.00    +0.000 HD
ENDBRANCH  20  23
ENDBRANCH  18  19
ENDBRANCH   4  18
TORSDOF 7
ENDMDL
MODEL 9
REMARK VINA RESULT:    -6.642      6.422      8.169
REMARK INTER + INTRA:         -10.282
REMARK INTER:                  -9.401
REMARK INTRA:                  -0.881
REMARK UNBOUND:                -0.922
REMARK  Name = 
REMARK  8 active torsions:
REMARK  status: ('A' for Active; 'I' for Inactive)
REMARK    1  A    between atoms: C_1  and  C_2
REMARK    2  A    between atoms: C_5  and  C_6
REMARK    3  A    between atoms: C_6  and  N_7
REMARK    4  A    between atoms: N_7  and  C_8
REMARK    5  A    between atoms: C_8  and  C_9
REMARK    6  A    between atoms: C_12  and  C_13
REMARK    7  A    between atoms: C_13  and  N_14
REMARK    8  A    between atoms: C_15  and  C_17
REMARK                            x       y       z     vdW  Elec       q    Type
REMARK                         _______ _______ _______ _____ _____    ______ ____
ROOT
ATOM      1  C   UNL     1      48.905   3.367  17.173  0.00  0.00    +0.000 A 
ATOM      2  C   UNL     1      49.466   2.133  16.810  0.00  0.00    +0.000 A 
ATOM      3  C   UNL     1      50.798   1.831  17.119  0.00  0.00    +0.000 A 
ATOM      4  C   UNL     1      51.603   2.754  17.797  0.00  0.00    +0.000 A 
ATOM      5  C   UNL     1      51.055   4.000  18.132  0.00  0.00    +0.000 A 
ATOM      6  C   UNL     1      49.721   4.299  17.830  0.00  0.00    +0.000 A 
ENDROOT
BRANCH   1   7
ATOM      7  C   UNL     1      47.461   3.693  16.850  0.00  0.00    +0.000 C 
BRANCH   7   8
ATOM      8  N   UNL     1      47.165   3.504  15.429  0.00  0.00    +0.000 NA
ATOM      9  H   UNL     1      47.909   2.950  15.006  0.00  0.00    +0.000 HD
BRANCH   8  10
ATOM     10  C   UNL     1      47.104   4.793  14.720  0.00  0.00    +0.000 C 
BRANCH  10  15
ATOM     11  C   UNL     1      44.196   4.185   9.812  0.00  0.00    +0.000 C 
ATOM     12  C   UNL     1      44.998   4.394  11.058  0.00  0.00    +0.000 A 
ATOM     13  C   UNL     1      45.616   5.604  11.327  0.00  0.00    +0.000 A 
ATOM     14  C   UNL     1      46.319   5.749  12.515  0.00  0.00    +0.000 A 
ATOM     15  C   UNL     1      46.367   4.683  13.403  0.00  0.00    +0.000 A 
ATOM     16  N   UNL     1      45.750   3.513  13.117  0.00  0.00    +0.000 NA
ATOM     17  N   UNL     1      45.061   3.369  11.938  0.00  0.00    +0.000 NA
ENDBRANCH  10  15
ENDBRANCH   8  10
ENDBRANCH   7   8
ENDBRANCH   1   7
BRANCH   4  18
ATOM     18  C   UNL     1      52.981   2.366  18.264  0.00  0.00    +0.000 C 
BRANCH  18  19
ATOM     19  N   UNL     1      53.289   0.954  18.241  0.00  0.00    +0.000 N 
ATOM     20  C   UNL     1      54.382   0.558  17.496  0.00  0.00    +0.000 C 
ATOM     21  O   UNL     1      55.059   1.390  16.890  0.00  0.00    +0.000 OA
ATOM     22  H   UNL     1      52.817   0.312  18.874  0.00  0.00    +0.000 HD
BRANCH  20  23
ATOM     23  C   UNL     1      54.703  -0.869  17.379  0.00  0.00    +0.000 A 
ATOM     24  C   UNL     1      54.968  -1.399  16.121  0.00  0.00    +0.000 A 
ATOM     25  S   UNL     1      55.129  -3.095  16.105  0.00  0.00    +0.000 S 
ATOM     26  C   UNL     1      54.769  -3.183  17.765  0.00  0.00    +0.000 A 
ATOM     27  N   UNL     1      54.540  -4.379  18.369  0.00  0.00    +0.000 NA
ATOM     28  C   UNL     1      54.223  -4.286  19.617  0.00  0.00    +0.000 A 
ATOM     29  N   UNL     1      54.203  -3.115  20.334  0.00  0.00    +0.000 N 
ATOM     30  C   UNL     1      54.543  -1.900  19.786  0.00  0.00    +0.000 A 
ATOM     31  O   UNL     1      54.711  -0.898  20.474  0.00  0.00    +0.000 OA
ATOM     32  C   UNL     1      54.710  -1.929  18.350  0.00  0.00    +0.000 A 
ATOM     33  H   UNL     1      54.041  -3.129  21.330  0.00  0.00    +0.000 HD
ENDBRANCH  20  23
ENDBRANCH  18  19
ENDBRANCH   4  18
TORSDOF 7
ENDMDL
