MODEL 1
REMARK VINA RESULT:    -8.750      0.000      0.000
REMARK INTER + INTRA:         -11.497
REMARK INTER:                 -10.796
REMARK INTRA:                  -0.702
REMARK UNBOUND:                -0.702
REMARK  Name = 
REMARK  4 active torsions:
REMARK  status: ('A' for Active; 'I' for Inactive)
REMARK    1  A    between atoms: C_2  and  C_4
REMARK    2  A    between atoms: N_8  and  C_9
REMARK    3  A    between atoms: C_9  and  C_10
REMARK    4  A    between atoms: C_14  and  C_15
REMARK                            x       y       z     vdW  Elec       q    Type
REMARK                         _______ _______ _______ _____ _____    ______ ____
ROOT
ATOM      1  C   UNL     1      43.828   5.142  10.787  0.00  0.00    +0.000 C 
ENDROOT
BRANCH   1   6
ATOM      2  C   UNL     1      46.565   2.681   7.423  0.00  0.00    +0.000 A 
ATOM      3  C   UNL     1      46.002   1.810   8.325  0.00  0.00    +0.000 A 
ATOM      4  N   UNL     1      45.106   2.185   9.269  0.00  0.00    +0.000 NA
ATOM      5  C   UNL     1      44.779   3.485   9.317  0.00  0.00    +0.000 A 
ATOM      6  N   UNL     1      43.768   3.824  10.191  0.00  0.00    +0.000 N 
ATOM      7  N   UNL     1      45.318   4.416   8.517  0.00  0.00    +0.000 NA
ATOM      8  C   UNL     1      46.203   3.996   7.585  0.00  0.00    +0.000 A 
ATOM      9  H   UNL     1      43.607   3.053  10.826  0.00  0.00    +0.000 HD
BRANCH   2  11
ATOM     10  N   UNL     1      47.464   2.999   5.194  0.00  0.00    +0.000 N 
ATOM     11  C   UNL     1      47.498   2.287   6.361  0.00  0.00    +0.000 C 
ATOM     12  O   UNL     1      48.309   1.390   6.534  0.00  0.00    +0.000 OA
ATOM     13  H   UNL     1      48.196   2.788   4.524  0.00  0.00    +0.000 HD
ATOM     14  H   UNL     1      47.022   3.904   5.111  0.00  0.00    +0.000 HD
ENDBRANCH   2  11
ENDBRANCH   1   6
BRANCH   1  15
ATOM     15  C   UNL     1      44.863   5.139  11.878  0.00  0.00    +0.000 A 
ATOM     16  C   UNL     1      44.766   4.307  12.983  0.00  0.00    +0.000 A 
ATOM     17  N   UNL     1      45.680   4.266  13.974  0.00  0.00    +0.000 NA
ATOM     18  C   UNL     1      46.745   5.098  13.856  0.00  0.00    +0.000 A 
ATOM     19  C   UNL     1      46.973   5.977  12.794  0.00  0.00    +0.000 A 
ATOM     20  C   UNL     1      45.993   5.968  11.792  0.00  0.00    +0.000 A 
BRANCH  19  21
ATOM     21  C   UNL     1      48.160   6.856  12.727  0.00  0.00    +0.000 A 
ATOM     22  C   UNL     1      48.463   7.593  11.564  0.00  0.00    +0.000 A 
ATOM     23  C   UNL     1      49.588   8.420  11.495  0.00  0.00    +0.000 A 
ATOM     24  C   UNL     1      50.435   8.537  12.592  0.00  0.00    +0.000 A 
ATOM     25  C   UNL     1      50.154   7.823  13.752  0.00  0.00    +0.000 A 
ATOM     26 CL   UNL     1      51.194   7.968  15.116  0.00  0.00    +0.000 Cl
ATOM     27  C   UNL     1      49.036   6.989  13.820  0.00  0.00    +0.000 A 
ENDBRANCH  19  21
ENDBRANCH   1  15
TORSDOF 4
ENDMDL
MODEL 2
REMARK VINA RESULT:    -8.053      4.729      8.101
REMARK INTER + INTRA:         -10.638
REMARK INTER:                 -10.180
REMARK INTRA:                  -0.458
REMARK UNBOUND:                -0.702
REMARK  Name = 
REMARK  4 active torsions:
REMARK  status: ('A' for Active; 'I' for Inactive)
REMARK    1  A    between atoms: C_2  and  C_4
REMARK    2  A    between atoms: N_8  and  C_9
REMARK    3  A    between atoms: C_9  and  C_10
REMARK    4  A    between atoms: C_14  and  C_15
REMARK                            x       y       z     vdW  Elec       q    Type
REMARK                         _______ _______ _______ _____ _____    ______ ____
ROOT
ATOM      1  C   UNL     1      45.838   5.289  13.648  0.00  0.00    +0.000 C 
ENDROOT
BRANCH   1   6
ATOM      2  C   UNL     1      48.969   4.519  17.451  0.00  0.00    +0.000 A 
ATOM      3  C   UNL     1      48.097   3.465  17.316  0.00  0.00    +0.000 A 
ATOM      4  N   UNL     1      47.223   3.343  16.289  0.00  0.00    +0.000 NA
ATOM      5  C   UNL     1      47.215   4.325  15.375  0.00  0.00    +0.000 A 
ATOM      6  N   UNL     1      46.418   4.118  14.269  0.00  0.00    +0.000 N 
ATOM      7  N   UNL     1      47.988   5.418  15.453  0.00  0.00    +0.000 NA
ATOM      8  C   UNL     1      48.850   5.495  16.492  0.00  0.00    +0.000 A 
ATOM      9  H   UNL     1      45.786   3.351  14.455  0.00  0.00    +0.000 HD
BRANCH   2  11
ATOM     10  N   UNL     1      50.823   3.603  18.717  0.00  0.00    +0.000 N 
ATOM     11  C   UNL     1      49.957   4.645  18.529  0.00  0.00    +0.000 C 
ATOM     12  O   UNL     1      50.036   5.663  19.199  0.00  0.00    +0.000 OA
ATOM     13  H   UNL     1      51.571   3.761  19.383  0.00  0.00    +0.000 HD
ATOM     14  H   UNL     1      50.978   2.881  18.026  0.00  0.00    +0.000 HD
ENDBRANCH   2  11
ENDBRANCH   1   6
BRANCH   1  15
ATOM     15  C   UNL     1      45.021   4.859  12.460  0.00  0.00    +0.000 A 
ATOM     16  C   UNL     1      43.642   4.999  12.427  0.00  0.00    +0.000 A 
ATOM     17  N   UNL     1      42.877   4.638  11.375  0.00  0.00    +0.000 NA
ATOM     18  C   UNL     1      43.521   4.110  10.305  0.00  0.00    +0.000 A 
ATOM     19  C   UNL     1      44.902   3.924  10.201  0.00  0.00    +0.000 A 
ATOM     20  C   UNL     1      45.644   4.325  11.321  0.00  0.00    +0.000 A 
BRANCH  19  21
ATOM     21  C   UNL     1      45.541   3.345   9.000  0.00  0.00    +0.000 A 
ATOM     22  C   UNL     1      45.938   4.155   7.917  0.00  0.00    +0.000 A 
ATOM     23  C   UNL     1      46.536   3.609   6.777  0.00  0.00    +0.000 A 
ATOM     24  C   UNL     1      46.761   2.240   6.696  0.00  0.00    +0.000 A 
ATOM     25  C   UNL     1      46.382   1.421   7.754  0.00  0.00    +0.000 A 
ATOM     26 CL   UNL     1      46.664  -0.276   7.664  0.00  0.00    +0.000 Cl
ATOM     27  C   UNL     1      45.777   1.962   8.890  0.00  0.00    +0.000 A 
ENDBRANCH  19  21
ENDBRANCH   1  15
TORSDOF 4
ENDMDL
MODEL 3
REMARK VINA RESULT:    -7.838      3.835      6.988
REMARK INTER + INTRA:         -10.373
REMARK INTER:                  -9.754
REMARK INTRA:                  -0.618
REMARK UNBOUND:                -0.702
REMARK  Name = 
REMARK  4 active torsions:
REMARK  status: ('A' for Active; 'I' for Inactive)
REMARK    1  A    between atoms: C_2  and  C_4
REMARK    2  A    between atoms: N_8  and  C_9
REMARK    3  A    between atoms: C_9  and  C_10
REMARK    4  A    between atoms: C_14  and  C_15
REMARK                            x       y       z     vdW  Elec       q    Type
REMARK                         _______ _______ _______ _____ _____    ______ ____
ROOT
ATOM      1  C   UNL     1      45.013   6.400  12.808  0.00  0.00    +0.000 C 
ENDROOT
BRANCH   1   6
ATOM      2  C   UNL     1      49.777   7.856  12.597  0.00  0.00    +0.000 A 
ATOM      3  C   UNL     1      49.432   7.501  13.879  0.00  0.00    +0.000 A 
ATOM      4  N   UNL     1      48.242   6.944  14.207  0.00  0.00    +0.000 NA
ATOM      5  C   UNL     1      47.363   6.754  13.213  0.00  0.00    +0.000 A 
ATOM      6  N   UNL     1      46.215   6.065  13.541  0.00  0.00    +0.000 N 
ATOM      7  N   UNL     1      47.587   7.120  11.942  0.00  0.00    +0.000 NA
ATOM      8  C   UNL     1      48.792   7.666  11.659  0.00  0.00    +0.000 A 
ATOM      9  H   UNL     1      46.129   6.026  14.548  0.00  0.00    +0.000 HD
BRANCH   2  11
ATOM     10  N   UNL     1      52.155   8.105  12.997  0.00  0.00    +0.000 N 
ATOM     11  C   UNL     1      51.079   8.414  12.213  0.00  0.00    +0.000 C 
ATOM     12  O   UNL     1      51.204   9.089  11.201  0.00  0.00    +0.000 OA
ATOM     13  H   UNL     1      53.060   8.400  12.646  0.00  0.00    +0.000 HD
ATOM     14  H   UNL     1      52.154   7.342  13.661  0.00  0.00    +0.000 HD
ENDBRANCH   2  11
ENDBRANCH   1   6
BRANCH   1  15
ATOM     15  C   UNL     1      44.545   5.186  12.054  0.00  0.00    +0.000 A 
ATOM     16  C   UNL     1      43.422   4.469  12.438  0.00  0.00    +0.000 A 
ATOM     17  N   UNL     1      42.963   3.384  11.780  0.00  0.00    +0.000 NA
ATOM     18  C   UNL     1      43.662   2.995  10.684  0.00  0.00    +0.000 A 
ATOM     19  C   UNL     1      44.800   3.631  10.181  0.00  0.00    +0.000 A 
ATOM     20  C   UNL     1      45.223   4.756  10.902  0.00  0.00    +0.000 A 
BRANCH  19  21
ATOM     21  C   UNL     1      45.512   3.154   8.976  0.00  0.00    +0.000 A 
ATOM     22  C   UNL     1      45.943   4.050   7.976  0.00  0.00    +0.000 A 
ATOM     23  C   UNL     1      46.611   3.602   6.832  0.00  0.00    +0.000 A 
ATOM     24  C   UNL     1      46.872   2.246   6.664  0.00  0.00    +0.000 A 
ATOM     25  C   UNL     1      46.460   1.344   7.639  0.00  0.00    +0.000 A 
ATOM     26 CL   UNL     1      46.786  -0.335   7.440  0.00  0.00    +0.000 Cl
ATOM     27  C   UNL     1      45.785   1.788   8.778  0.00  0.00    +0.000 A 
ENDBRANCH  19  21
ENDBRANCH   1  15
TORSDOF 4
ENDMDL
MODEL 4
REMARK VINA RESULT:    -7.205      4.491      7.903
REMARK INTER + INTRA:          -9.591
REMARK INTER:                  -9.334
REMARK INTRA:                  -0.257
REMARK UNBOUND:                -0.702
REMARK  Name = 
REMARK  4 active torsions:
REMARK  status: ('A' for Active; 'I' for Inactive)
REMARK    1  A    between atoms: C_2  and  C_4
REMARK    2  A    between atoms: N_8  and  C_9
REMARK    3  A    between atoms: C_9  and  C_10
REMARK    4  A    between atoms: C_14  and  C_15
REMARK                            x       y       z     vdW  Elec       q    Type
REMARK                         _______ _______ _______ _____ _____    ______ ____
ROOT
ATOM      1  C   UNL     1      48.556   7.549  13.257  0.00  0.00    +0.000 C 
ENDROOT
BRANCH   1   6
ATOM      2  C   UNL     1      47.904   4.401  17.067  0.00  0.00    +0.000 A 
ATOM      3  C   UNL     1      48.528   5.551  17.487  0.00  0.00    +0.000 A 
ATOM      4  N   UNL     1      48.715   6.633  16.694  0.00  0.00    +0.000 NA
ATOM      5  C   UNL     1      48.274   6.547  15.431  0.00  0.00    +0.000 A 
ATOM      6  N   UNL     1      48.350   7.702  14.681  0.00  0.00    +0.000 N 
ATOM      7  N   UNL     1      47.705   5.447  14.916  0.00  0.00    +0.000 NA
ATOM      8  C   UNL     1      47.532   4.393  15.745  0.00  0.00    +0.000 A 
ATOM      9  H   UNL     1      48.954   8.363  15.153  0.00  0.00    +0.000 HD
BRANCH   2  11
ATOM     10  N   UNL     1      48.426   3.087  19.038  0.00  0.00    +0.000 N 
ATOM     11  C   UNL     1      47.647   3.237  17.924  0.00  0.00    +0.000 C 
ATOM     12  O   UNL     1      46.738   2.459  17.677  0.00  0.00    +0.000 OA
ATOM     13  H   UNL     1      48.153   2.348  19.675  0.00  0.00    +0.000 HD
ATOM     14  H   UNL     1      48.985   3.835  19.425  0.00  0.00    +0.000 HD
ENDBRANCH   2  11
ENDBRANCH   1   6
BRANCH   1  15
ATOM     15  C   UNL     1      47.218   7.440  12.579  0.00  0.00    +0.000 A 
ATOM     16  C   UNL     1      46.276   8.456  12.640  0.00  0.00    +0.000 A 
ATOM     17  N   UNL     1      45.072   8.401  12.034  0.00  0.00    +0.000 NA
ATOM     18  C   UNL     1      44.793   7.273  11.333  0.00  0.00    +0.000 A 
ATOM     19  C   UNL     1      45.652   6.181  11.180  0.00  0.00    +0.000 A 
ATOM     20  C   UNL     1      46.890   6.301  11.826  0.00  0.00    +0.000 A 
BRANCH  19  21
ATOM     21  C   UNL     1      45.285   4.982  10.397  0.00  0.00    +0.000 A 
ATOM     22  C   UNL     1      44.443   3.985  10.931  0.00  0.00    +0.000 A 
ATOM     23  C   UNL     1      44.100   2.847  10.196  0.00  0.00    +0.000 A 
ATOM     24  C   UNL     1      44.583   2.682   8.902  0.00  0.00    +0.000 A 
ATOM     25  C   UNL     1      45.411   3.654   8.352  0.00  0.00    +0.000 A 
ATOM     26 CL   UNL     1      46.006   3.459   6.748  0.00  0.00    +0.000 Cl
ATOM     27  C   UNL     1      45.762   4.787   9.088  0.00  0.00    +0.000 A 
ENDBRANCH  19  21
ENDBRANCH   1  15
TORSDOF 4
ENDMDL
MODEL 5
REMARK VINA RESULT:    -6.848      4.997      8.397
REMARK INTER + INTRA:          -9.151
REMARK INTER:                  -8.550
REMARK INTRA:                  -0.601
REMARK UNBOUND:                -0.702
REMARK  Name = 
REMARK  4 active torsions:
REMARK  status: ('A' for Active; 'I' for Inactive)
REMARK    1  A    between atoms: C_2  and  C_4
REMARK    2  A    between atoms: N_8  and  C_9
REMARK    3  A    between atoms: C_9  and  C_10
REMARK    4  A    between atoms: C_14  and  C_15
REMARK                            x       y       z     vdW  Elec       q    Type
REMARK                         _______ _______ _______ _____ _____    ______ ____
ROOT
ATOM      1  C   UNL     1      48.211   7.954  13.840  0.00  0.00    +0.000 C 
ENDROOT
BRANCH   1   6
ATOM      2  C   UNL     1      48.512   5.383  18.101  0.00  0.00    +0.000 A 
ATOM      3  C   UNL     1      48.274   4.542  17.041  0.00  0.00    +0.000 A 
ATOM      4  N   UNL     1      48.274   4.948  15.749  0.00  0.00    +0.000 NA
ATOM      5  C   UNL     1      48.506   6.249  15.518  0.00  0.00    +0.000 A 
ATOM      6  N   UNL     1      48.636   6.617  14.196  0.00  0.00    +0.000 N 
ATOM      7  N   UNL     1      48.693   7.154  16.490  0.00  0.00    +0.000 NA
ATOM      8  C   UNL     1      48.691   6.703  17.766  0.00  0.00    +0.000 A 
ATOM      9  H   UNL     1      48.295   5.868  13.609  0.00  0.00    +0.000 HD
BRANCH   2  11
ATOM     10  N   UNL     1      48.465   3.614  19.759  0.00  0.00    +0.000 N 
ATOM     11  C   UNL     1      48.566   4.954  19.504  0.00  0.00    +0.000 C 
ATOM     12  O   UNL     1      48.745   5.760  20.405  0.00  0.00    +0.000 OA
ATOM     13  H   UNL     1      48.626   3.331  20.720  0.00  0.00    +0.000 HD
ATOM     14  H   UNL     1      48.598   2.905  19.051  0.00  0.00    +0.000 HD
ENDBRANCH   2  11
ENDBRANCH   1   6
BRANCH   1  15
ATOM     15  C   UNL     1      46.978   7.863  12.983  0.00  0.00    +0.000 A 
ATOM     16  C   UNL     1      46.121   8.939  12.811  0.00  0.00    +0.000 A 
ATOM     17  N   UNL     1      45.014   8.901  12.040  0.00  0.00    +0.000 NA
ATOM     18  C   UNL     1      44.750   7.728  11.411  0.00  0.00    +0.000 A 
ATOM     19  C   UNL     1      45.532   6.573  11.487  0.00  0.00    +0.000 A 
ATOM     20  C   UNL     1      46.672   6.678  12.297  0.00  0.00    +0.000 A 
BRANCH  19  21
ATOM     21  C   UNL     1      45.187   5.327  10.771  0.00  0.00    +0.000 A 
ATOM     22  C   UNL     1      44.384   4.335  11.369  0.00  0.00    +0.000 A 
ATOM     23  C   UNL     1      44.061   3.152  10.696  0.00  0.00    +0.000 A 
ATOM     24  C   UNL     1      44.525   2.938   9.403  0.00  0.00    +0.000 A 
ATOM     25  C   UNL     1      45.315   3.904   8.790  0.00  0.00    +0.000 A 
ATOM     26 CL   UNL     1      45.888   3.648   7.187  0.00  0.00    +0.000 Cl
ATOM     27  C   UNL     1      45.646   5.082   9.464  0.00  0.00    +0.000 A 
ENDBRANCH  19  21
ENDBRANCH   1  15
TORSDOF 4
ENDMDL
MODEL 6
REMARK VINA RESULT:    -6.567      5.898      8.815
REMARK INTER + INTRA:          -8.804
REMARK INTER:                  -8.377
REMARK INTRA:                  -0.427
REMARK UNBOUND:                -0.702
REMARK  Name = 
REMARK  4 active torsions:
REMARK  status: ('A' for Active; 'I' for Inactive)
REMARK    1  A    between atoms: C_2  and  C_4
REMARK    2  A    between atoms: N_8  and  C_9
REMARK    3  A    between atoms: C_9  and  C_10
REMARK    4  A    between atoms: C_14  and  C_15
REMARK                            x       y       z     vdW  Elec       q    Type
REMARK                         _______ _______ _______ _____ _____    ______ ____
ROOT
ATOM      1  C   UNL     1      48.088   3.247  17.170  0.00  0.00    +0.000 C 
ENDROOT
BRANCH   1   6
ATOM      2  C   UNL     1      52.860   2.147  18.108  0.00  0.00    +0.000 A 
ATOM      3  C   UNL     1      52.171   1.027  17.709  0.00  0.00    +0.000 A 
ATOM      4  N   UNL     1      50.892   1.053  17.264  0.00  0.00    +0.000 NA
ATOM      5  C   UNL     1      50.280   2.247  17.238  0.00  0.00    +0.000 A 
ATOM      6  N   UNL     1      49.030   2.275  16.657  0.00  0.00    +0.000 N 
ATOM      7  N   UNL     1      50.852   3.384  17.660  0.00  0.00    +0.000 NA
ATOM      8  C   UNL     1      52.133   3.312  18.089  0.00  0.00    +0.000 A 
ATOM      9  H   UNL     1      48.688   1.327  16.562  0.00  0.00    +0.000 HD
BRANCH   2  11
ATOM     10  N   UNL     1      54.604   1.309  19.570  0.00  0.00    +0.000 N 
ATOM     11  C   UNL     1      54.261   2.147  18.545  0.00  0.00    +0.000 C 
ATOM     12  O   UNL     1      55.099   2.833  17.979  0.00  0.00    +0.000 OA
ATOM     13  H   UNL     1      55.595   1.237  19.773  0.00  0.00    +0.000 HD
ATOM     14  H   UNL     1      54.023   0.538  19.871  0.00  0.00    +0.000 HD
ENDBRANCH   2  11
ENDBRANCH   1   6
BRANCH   1  15
ATOM     15  C   UNL     1      47.955   4.369  16.178  0.00  0.00    +0.000 A 
ATOM     16  C   UNL     1      48.618   5.577  16.339  0.00  0.00    +0.000 A 
ATOM     17  N   UNL     1      48.535   6.601  15.464  0.00  0.00    +0.000 NA
ATOM     18  C   UNL     1      47.749   6.410  14.375  0.00  0.00    +0.000 A 
ATOM     19  C   UNL     1      47.036   5.244  14.084  0.00  0.00    +0.000 A 
ATOM     20  C   UNL     1      47.169   4.213  15.025  0.00  0.00    +0.000 A 
BRANCH  19  21
ATOM     21  C   UNL     1      46.200   5.102  12.873  0.00  0.00    +0.000 A 
ATOM     22  C   UNL     1      46.320   5.995  11.789  0.00  0.00    +0.000 A 
ATOM     23  C   UNL     1      45.525   5.867  10.646  0.00  0.00    +0.000 A 
ATOM     24  C   UNL     1      44.597   4.836  10.554  0.00  0.00    +0.000 A 
ATOM     25  C   UNL     1      44.464   3.940  11.609  0.00  0.00    +0.000 A 
ATOM     26 CL   UNL     1      43.321   2.656  11.499  0.00  0.00    +0.000 Cl
ATOM     27  C   UNL     1      45.250   4.071  12.756  0.00  0.00    +0.000 A 
ENDBRANCH  19  21
ENDBRANCH   1  15
TORSDOF 4
ENDMDL
MODEL 7
REMARK VINA RESULT:    -6.395      5.064      8.661
REMARK INTER + INTRA:          -8.592
REMARK INTER:                  -8.046
REMARK INTRA:                  -0.546
REMARK UNBOUND:                -0.702
REMARK  Name = 
REMARK  4 active torsions:
REMARK  status: ('A' for Active; 'I' for Inactive)
REMARK    1  A    between atoms: C_2  and  C_4
REMARK    2  A    between atoms: N_8  and  C_9
REMARK    3  A    between atoms: C_9  and  C_10
REMARK    4  A    between atoms: C_14  and  C_15
REMARK                            x       y       z     vdW  Elec       q    Type
REMARK                         _______ _______ _______ _____ _____    ______ ____
ROOT
ATOM      1  C   UNL     1      48.729   7.437  14.088  0.00  0.00    +0.000 C 
ENDROOT
BRANCH   1   6
ATOM      2  C   UNL     1      48.965   5.331  18.601  0.00  0.00    +0.000 A 
ATOM      3  C   UNL     1      49.184   6.685  18.683  0.00  0.00    +0.000 A 
ATOM      4  N   UNL     1      49.051   7.530  17.633  0.00  0.00    +0.000 NA
ATOM      5  C   UNL     1      48.701   6.990  16.456  0.00  0.00    +0.000 A 
ATOM      6  N   UNL     1      48.438   7.879  15.435  0.00  0.00    +0.000 N 
ATOM      7  N   UNL     1      48.521   5.675  16.267  0.00  0.00    +0.000 NA
ATOM      8  C   UNL     1      48.658   4.869  17.344  0.00  0.00    +0.000 A 
ATOM      9  H   UNL     1      48.789   8.792  15.693  0.00  0.00    +0.000 HD
BRANCH   2  11
ATOM     10  N   UNL     1      48.432   3.194  19.617  0.00  0.00    +0.000 N 
ATOM     11  C   UNL     1      49.056   4.406  19.737  0.00  0.00    +0.000 C 
ATOM     12  O   UNL     1      49.707   4.688  20.731  0.00  0.00    +0.000 OA
ATOM     13  H   UNL     1      48.609   2.528  20.361  0.00  0.00    +0.000 HD
ATOM     14  H   UNL     1      48.131   2.813  18.730  0.00  0.00    +0.000 HD
ENDBRANCH   2  11
ENDBRANCH   1   6
BRANCH   1  15
ATOM     15  C   UNL     1      47.477   7.538  13.260  0.00  0.00    +0.000 A 
ATOM     16  C   UNL     1      46.745   8.712  13.173  0.00  0.00    +0.000 A 
ATOM     17  N   UNL     1      45.626   8.845  12.430  0.00  0.00    +0.000 NA
ATOM     18  C   UNL     1      45.218   7.750  11.741  0.00  0.00    +0.000 A 
ATOM     19  C   UNL     1      45.865   6.512  11.730  0.00  0.00    +0.000 A 
ATOM     20  C   UNL     1      47.025   6.438  12.514  0.00  0.00    +0.000 A 
BRANCH  19  21
ATOM     21  C   UNL     1      45.365   5.358  10.952  0.00  0.00    +0.000 A 
ATOM     22  C   UNL     1      45.636   5.230   9.574  0.00  0.00    +0.000 A 
ATOM     23  C   UNL     1      45.159   4.144   8.834  0.00  0.00    +0.000 A 
ATOM     24  C   UNL     1      44.408   3.153   9.456  0.00  0.00    +0.000 A 
ATOM     25  C   UNL     1      44.133   3.255  10.815  0.00  0.00    +0.000 A 
ATOM     26 CL   UNL     1      43.209   2.027  11.593  0.00  0.00    +0.000 Cl
ATOM     27  C   UNL     1      44.600   4.343  11.555  0.00  0.00    +0.000 A 
ENDBRANCH  19  21
ENDBRANCH   1  15
TORSDOF 4
ENDMDL
MODEL 8
REMARK VINA RESULT:    -6.314      3.627      5.531
REMARK INTER + INTRA:          -8.492
REMARK INTER:                  -7.880
REMARK INTRA:                  -0.613
REMARK UNBOUND:                -0.702
REMARK  Name = 
REMARK  4 active torsions:
REMARK  status: ('A' for Active; 'I' for Inactive)
REMARK    1  A    between atoms: C_2  and  C_4
REMARK    2  A    between atoms: N_8  and  C_9
REMARK    3  A    between atoms: C_9  and  C_10
REMARK    4  A    between atoms: C_14  and  C_15
REMARK                            x       y       z     vdW  Elec       q    Type
REMARK                         _______ _______ _______ _____ _____    ______ ____
ROOT
ATOM      1  C   UNL     1      47.633   8.282  13.370  0.00  0.00    +0.000 C 
ENDROOT
BRANCH   1   6
ATOM      2  C   UNL     1      44.719   5.013  10.986  0.00  0.00    +0.000 A 
ATOM      3  C   UNL     1      44.168   5.367  12.194  0.00  0.00    +0.000 A 
ATOM      4  N   UNL     1      44.675   6.335  12.994  0.00  0.00    +0.000 NA
ATOM      5  C   UNL     1      45.786   6.956  12.570  0.00  0.00    +0.000 A 
ATOM      6  N   UNL     1      46.209   8.027  13.329  0.00  0.00    +0.000 N 
ATOM      7  N   UNL     1      46.425   6.641  11.434  0.00  0.00    +0.000 NA
ATOM      8  C   UNL     1      45.879   5.673  10.663  0.00  0.00    +0.000 A 
ATOM      9  H   UNL     1      45.731   8.010  14.220  0.00  0.00    +0.000 HD
BRANCH   2  11
ATOM     10  N   UNL     1      43.985   4.353   8.771  0.00  0.00    +0.000 N 
ATOM     11  C   UNL     1      44.156   4.003  10.082  0.00  0.00    +0.000 C 
ATOM     12  O   UNL     1      43.898   2.875  10.476  0.00  0.00    +0.000 OA
ATOM     13  H   UNL     1      43.710   3.605   8.144  0.00  0.00    +0.000 HD
ATOM     14  H   UNL     1      44.435   5.155   8.350  0.00  0.00    +0.000 HD
ENDBRANCH   2  11
ENDBRANCH   1   6
BRANCH   1  15
ATOM     15  C   UNL     1      48.143   7.985  14.753  0.00  0.00    +0.000 A 
ATOM     16  C   UNL     1      48.250   8.968  15.725  0.00  0.00    +0.000 A 
ATOM     17  N   UNL     1      48.689   8.738  16.980  0.00  0.00    +0.000 NA
ATOM     18  C   UNL     1      49.041   7.462  17.279  0.00  0.00    +0.000 A 
ATOM     19  C   UNL     1      48.973   6.377  16.402  0.00  0.00    +0.000 A 
ATOM     20  C   UNL     1      48.502   6.677  15.116  0.00  0.00    +0.000 A 
BRANCH  19  21
ATOM     21  C   UNL     1      49.370   5.008  16.795  0.00  0.00    +0.000 A 
ATOM     22  C   UNL     1      48.454   3.937  16.754  0.00  0.00    +0.000 A 
ATOM     23  C   UNL     1      48.825   2.643  17.132  0.00  0.00    +0.000 A 
ATOM     24  C   UNL     1      50.125   2.386  17.552  0.00  0.00    +0.000 A 
ATOM     25  C   UNL     1      51.048   3.425  17.597  0.00  0.00    +0.000 A 
ATOM     26 CL   UNL     1      52.662   3.112  18.110  0.00  0.00    +0.000 Cl
ATOM     27  C   UNL     1      50.678   4.720  17.228  0.00  0.00    +0.000 A 
ENDBRANCH  19  21
ENDBRANCH   1  15
TORSDOF 4
ENDMDL
MODEL 9
REMARK VINA RESULT:    -6.265      3.559      5.512
REMARK INTER + INTRA:          -8.432
REMARK INTER:                  -7.837
REMARK INTRA:                  -0.594
REMARK UNBOUND:                -0.702
REMARK  Name = 
REMARK  4 active torsions:
REMARK  status: ('A' for Active; 'I' for Inactive)
REMARK    1  A    between atoms: C_2  and  C_4
REMARK    2  A    between atoms: N_8  and  C_9
REMARK    3  A    between atoms: C_9  and  C_10
REMARK    4  A    between atoms: C_14  and  C_15
REMARK                            x       y       z     vdW  Elec       q    Type
REMARK                         _______ _______ _______ _____ _____    ______ ____
ROOT
ATOM      1  C   UNL     1      47.362   8.136  12.537  0.00  0.00    +0.000 C 
ENDROOT
BRANCH   1   6
ATOM      2  C   UNL     1      44.640   4.094  11.483  0.00  0.00    +0.000 A 
ATOM      3  C   UNL     1      44.595   4.375  12.828  0.00  0.00    +0.000 A 
ATOM      4  N   UNL     1      45.135   5.488  13.379  0.00  0.00    +0.000 NA
ATOM      5  C   UNL     1      45.754   6.340  12.549  0.00  0.00    +0.000 A 
ATOM      6  N   UNL     1      46.177   7.530  13.104  0.00  0.00    +0.000 N 
ATOM      7  N   UNL     1      45.897   6.124  11.233  0.00  0.00    +0.000 NA
ATOM      8  C   UNL     1      45.337   5.002  10.725  0.00  0.00    +0.000 A 
ATOM      9  H   UNL     1      46.153   7.451  14.112  0.00  0.00    +0.000 HD
BRANCH   2  11
ATOM     10  N   UNL     1      44.665   2.352   9.796  0.00  0.00    +0.000 N 
ATOM     11  C   UNL     1      44.019   2.919  10.861  0.00  0.00    +0.000 C 
ATOM     12  O   UNL     1      42.990   2.436  11.309  0.00  0.00    +0.000 OA
ATOM     13  H   UNL     1      44.283   1.475   9.461  0.00  0.00    +0.000 HD
ATOM     14  H   UNL     1      45.634   2.538   9.575  0.00  0.00    +0.000 HD
ENDBRANCH   2  11
ENDBRANCH   1   6
BRANCH   1  15
ATOM     15  C   UNL     1      48.497   7.998  13.513  0.00  0.00    +0.000 A 
ATOM     16  C   UNL     1      49.611   8.823  13.469  0.00  0.00    +0.000 A 
ATOM     17  N   UNL     1      50.642   8.740  14.335  0.00  0.00    +0.000 NA
ATOM     18  C   UNL     1      50.557   7.782  15.293  0.00  0.00    +0.000 A 
ATOM     19  C   UNL     1      49.491   6.894  15.459  0.00  0.00    +0.000 A 
ATOM     20  C   UNL     1      48.447   7.036  14.534  0.00  0.00    +0.000 A 
BRANCH  19  21
ATOM     21  C   UNL     1      49.462   5.875  16.530  0.00  0.00    +0.000 A 
ATOM     22  C   UNL     1      50.461   5.826  17.523  0.00  0.00    +0.000 A 
ATOM     23  C   UNL     1      50.440   4.859  18.533  0.00  0.00    +0.000 A 
ATOM     24  C   UNL     1      49.412   3.923  18.581  0.00  0.00    +0.000 A 
ATOM     25  C   UNL     1      48.413   3.956  17.614  0.00  0.00    +0.000 A 
ATOM     26 CL   UNL     1      47.134   2.804  17.671  0.00  0.00    +0.000 Cl
ATOM     27  C   UNL     1      48.437   4.914  16.599  0.00  0.00    +0.000 A 
ENDBRANCH  19  21
ENDBRANCH   1  15
TORSDOF 4
ENDMDL
