MODEL 1
REMARK VINA RESULT:    -7.334      0.000      0.000
REMARK INTER + INTRA:         -10.734
REMARK INTER:                  -9.907
REMARK INTRA:                  -0.827
REMARK UNBOUND:                -0.827
REMARK  Name = 
REMARK  9 active torsions:
REMARK  status: ('A' for Active; 'I' for Inactive)
REMARK    1  A    between atoms: C_1  and  C_2
REMARK    2  A    between atoms: C_3  and  C_4
REMARK    3  A    between atoms: C_4  and  C_5
REMARK    4  A    between atoms: C_4  and  C_6
REMARK    5  A    between atoms: C_4  and  C_17
REMARK    6  A    between atoms: C_6  and  N_7
REMARK    7  A    between atoms: C_11  and  C_12
REMARK    8  A    between atoms: C_21  and  O_22
REMARK    9  A    between atoms: O_22  and  C_23
REMARK                            x       y       z     vdW  Elec       q    Type
REMARK                         _______ _______ _______ _____ _____    ______ ____
ROOT
ATOM      1  C   UNL     1      46.414   5.200  12.850  0.00  0.00    +0.000 C 
ENDROOT
BRANCH   1   2
ATOM      2  N   UNL     1      46.484   4.017  13.707  0.00  0.00    +0.000 N 
ATOM      3  C   UNL     1      47.228   4.030  14.865  0.00  0.00    +0.000 A 
ATOM      4  C   UNL     1      47.423   5.174  15.628  0.00  0.00    +0.000 A 
ATOM      5  C   UNL     1      48.129   5.095  16.825  0.00  0.00    +0.000 A 
ATOM      6  C   UNL     1      48.608   3.864  17.263  0.00  0.00    +0.000 A 
ATOM      7  C   UNL     1      48.369   2.770  16.446  0.00  0.00    +0.000 A 
ATOM      8  N   UNL     1      47.705   2.834  15.263  0.00  0.00    +0.000 NA
ATOM      9  H   UNL     1      46.624   3.126  13.232  0.00  0.00    +0.000 HD
BRANCH   6  10
ATOM     10  C   UNL     1      49.317   3.797  18.563  0.00  0.00    +0.000 C 
ATOM     11  N   UNL     1      48.650   3.343  19.664  0.00  0.00    +0.000 N 
ATOM     12  O   UNL     1      50.488   4.148  18.662  0.00  0.00    +0.000 OA
ATOM     13  H   UNL     1      47.691   3.036  19.695  0.00  0.00    +0.000 HD
ATOM     14  H   UNL     1      49.174   3.331  20.530  0.00  0.00    +0.000 HD
ENDBRANCH   6  10
ENDBRANCH   1   2
BRANCH   1  15
ATOM     15  C   UNL     1      45.072   5.292  12.048  0.00  0.00    +0.000 C 
ATOM     16  C   UNL     1      43.933   4.883  13.009  0.00  0.00    +0.000 C 
BRANCH  15  17
ATOM     17  C   UNL     1      45.027   4.385  10.798  0.00  0.00    +0.000 A 
ATOM     18  C   UNL     1      44.365   3.142  10.830  0.00  0.00    +0.000 A 
ATOM     19  C   UNL     1      44.280   2.332   9.695  0.00  0.00    +0.000 A 
ATOM     20  C   UNL     1      44.864   2.735   8.498  0.00  0.00    +0.000 A 
ATOM     21  C   UNL     1      45.538   3.952   8.435  0.00  0.00    +0.000 A 
ATOM     22  C   UNL     1      45.640   4.750   9.583  0.00  0.00    +0.000 A 
BRANCH  21  23
ATOM     23  O   UNL     1      46.158   4.446   7.319  0.00  0.00    +0.000 OA
ATOM     24  C   UNL     1      46.744   3.469   6.464  0.00  0.00    +0.000 C 
ENDBRANCH  21  23
ENDBRANCH  15  17
BRANCH  15  27
ATOM     25  C   UNL     1      44.522   9.336  11.296  0.00  0.00    +0.000 C 
ATOM     26  C   UNL     1      44.719   7.896  11.468  0.00  0.00    +0.000 C 
ATOM     27  C   UNL     1      44.883   6.727  11.679  0.00  0.00    +0.000 C 
ENDBRANCH  15  27
ENDBRANCH   1  15
TORSDOF 6
ENDMDL
MODEL 2
REMARK VINA RESULT:    -6.852      1.432      1.705
REMARK INTER + INTRA:         -10.082
REMARK INTER:                  -9.651
REMARK INTRA:                  -0.431
REMARK UNBOUND:                -0.827
REMARK  Name = 
REMARK  9 active torsions:
REMARK  status: ('A' for Active; 'I' for Inactive)
REMARK    1  A    between atoms: C_1  and  C_2
REMARK    2  A    between atoms: C_3  and  C_4
REMARK    3  A    between atoms: C_4  and  C_5
REMARK    4  A    between atoms: C_4  and  C_6
REMARK    5  A    between atoms: C_4  and  C_17
REMARK    6  A    between atoms: C_6  and  N_7
REMARK    7  A    between atoms: C_11  and  C_12
REMARK    8  A    between atoms: C_21  and  O_22
REMARK    9  A    between atoms: O_22  and  C_23
REMARK                            x       y       z     vdW  Elec       q    Type
REMARK                         _______ _______ _______ _____ _____    ______ ____
ROOT
ATOM      1  C   UNL     1      45.975   4.606  13.608  0.00  0.00    +0.000 C 
ENDROOT
BRANCH   1   2
ATOM      2  N   UNL     1      47.294   4.999  14.104  0.00  0.00    +0.000 N 
ATOM      3  C   UNL     1      47.609   4.873  15.439  0.00  0.00    +0.000 A 
ATOM      4  C   UNL     1      47.079   3.882  16.253  0.00  0.00    +0.000 A 
ATOM      5  C   UNL     1      47.500   3.775  17.576  0.00  0.00    +0.000 A 
ATOM      6  C   UNL     1      48.472   4.644  18.063  0.00  0.00    +0.000 A 
ATOM      7  C   UNL     1      48.954   5.602  17.185  0.00  0.00    +0.000 A 
ATOM      8  N   UNL     1      48.535   5.738  15.900  0.00  0.00    +0.000 NA
ATOM      9  H   UNL     1      47.657   5.886  13.758  0.00  0.00    +0.000 HD
BRANCH   6  10
ATOM     10  C   UNL     1      48.937   4.481  19.460  0.00  0.00    +0.000 C 
ATOM     11  N   UNL     1      48.418   3.475  20.223  0.00  0.00    +0.000 N 
ATOM     12  O   UNL     1      49.773   5.240  19.939  0.00  0.00    +0.000 OA
ATOM     13  H   UNL     1      47.726   2.802  19.932  0.00  0.00    +0.000 HD
ATOM     14  H   UNL     1      48.757   3.416  21.175  0.00  0.00    +0.000 HD
ENDBRANCH   6  10
ENDBRANCH   1   2
BRANCH   1  15
ATOM     15  C   UNL     1      45.541   5.405  12.333  0.00  0.00    +0.000 C 
ATOM     16  C   UNL     1      44.272   6.206  12.703  0.00  0.00    +0.000 C 
BRANCH  15  17
ATOM     17  C   UNL     1      45.235   4.512  11.109  0.00  0.00    +0.000 A 
ATOM     18  C   UNL     1      44.468   3.339  11.244  0.00  0.00    +0.000 A 
ATOM     19  C   UNL     1      44.148   2.546  10.140  0.00  0.00    +0.000 A 
ATOM     20  C   UNL     1      44.596   2.897   8.869  0.00  0.00    +0.000 A 
ATOM     21  C   UNL     1      45.369   4.043   8.703  0.00  0.00    +0.000 A 
ATOM     22  C   UNL     1      45.706   4.822   9.818  0.00  0.00    +0.000 A 
BRANCH  21  23
ATOM     23  O   UNL     1      45.873   4.480   7.507  0.00  0.00    +0.000 OA
ATOM     24  C   UNL     1      46.556   3.495   6.737  0.00  0.00    +0.000 C 
ENDBRANCH  21  23
ENDBRANCH  15  17
BRANCH  15  27
ATOM     25  C   UNL     1      48.769   7.892  11.546  0.00  0.00    +0.000 C 
ATOM     26  C   UNL     1      47.574   7.089  11.810  0.00  0.00    +0.000 C 
ATOM     27  C   UNL     1      46.637   6.374  12.033  0.00  0.00    +0.000 C 
ENDBRANCH  15  27
ENDBRANCH   1  15
TORSDOF 6
ENDMDL
MODEL 3
REMARK VINA RESULT:    -6.473      2.113      3.007
REMARK INTER + INTRA:          -9.571
REMARK INTER:                  -8.952
REMARK INTRA:                  -0.619
REMARK UNBOUND:                -0.827
REMARK  Name = 
REMARK  9 active torsions:
REMARK  status: ('A' for Active; 'I' for Inactive)
REMARK    1  A    between atoms: C_1  and  C_2
REMARK    2  A    between atoms: C_3  and  C_4
REMARK    3  A    between atoms: C_4  and  C_5
REMARK    4  A    between atoms: C_4  and  C_6
REMARK    5  A    between atoms: C_4  and  C_17
REMARK    6  A    between atoms: C_6  and  N_7
REMARK    7  A    between atoms: C_11  and  C_12
REMARK    8  A    between atoms: C_21  and  O_22
REMARK    9  A    between atoms: O_22  and  C_23
REMARK                            x       y       z     vdW  Elec       q    Type
REMARK                         _______ _______ _______ _____ _____    ______ ____
ROOT
ATOM      1  C   UNL     1      46.074   6.472  13.356  0.00  0.00    +0.000 C 
ENDROOT
BRANCH   1   2
ATOM      2  N   UNL     1      47.382   6.531  14.008  0.00  0.00    +0.000 N 
ATOM      3  C   UNL     1      47.700   5.660  15.025  0.00  0.00    +0.000 A 
ATOM      4  C   UNL     1      47.195   4.369  15.104  0.00  0.00    +0.000 A 
ATOM      5  C   UNL     1      47.618   3.522  16.125  0.00  0.00    +0.000 A 
ATOM      6  C   UNL     1      48.568   3.966  17.040  0.00  0.00    +0.000 A 
ATOM      7  C   UNL     1      49.026   5.265  16.890  0.00  0.00    +0.000 A 
ATOM      8  N   UNL     1      48.604   6.114  15.916  0.00  0.00    +0.000 NA
ATOM      9  H   UNL     1      47.722   7.461  14.247  0.00  0.00    +0.000 HD
BRANCH   6  10
ATOM     10  C   UNL     1      49.037   3.031  18.090  0.00  0.00    +0.000 C 
ATOM     11  N   UNL     1      48.458   3.072  19.326  0.00  0.00    +0.000 N 
ATOM     12  O   UNL     1      49.938   2.230  17.866  0.00  0.00    +0.000 OA
ATOM     13  H   UNL     1      47.718   3.691  19.618  0.00  0.00    +0.000 HD
ATOM     14  H   UNL     1      48.824   2.424  20.012  0.00  0.00    +0.000 HD
ENDBRANCH   6  10
ENDBRANCH   1   2
BRANCH   1  15
ATOM     15  C   UNL     1      46.124   6.905  11.851  0.00  0.00    +0.000 C 
ATOM     16  C   UNL     1      45.234   8.160  11.704  0.00  0.00    +0.000 C 
BRANCH  15  17
ATOM     17  C   UNL     1      45.628   5.818  10.871  0.00  0.00    +0.000 A 
ATOM     18  C   UNL     1      46.122   5.753   9.554  0.00  0.00    +0.000 A 
ATOM     19  C   UNL     1      45.714   4.750   8.671  0.00  0.00    +0.000 A 
ATOM     20  C   UNL     1      44.791   3.790   9.076  0.00  0.00    +0.000 A 
ATOM     21  C   UNL     1      44.272   3.834  10.367  0.00  0.00    +0.000 A 
ATOM     22  C   UNL     1      44.667   4.856  11.241  0.00  0.00    +0.000 A 
BRANCH  21  23
ATOM     23  O   UNL     1      43.354   2.951  10.872  0.00  0.00    +0.000 OA
ATOM     24  C   UNL     1      43.473   2.677  12.264  0.00  0.00    +0.000 C 
ENDBRANCH  21  23
ENDBRANCH  15  17
BRANCH  15  27
ATOM     25  C   UNL     1      50.128   7.789  11.216  0.00  0.00    +0.000 C 
ATOM     26  C   UNL     1      48.695   7.546  11.380  0.00  0.00    +0.000 C 
ATOM     27  C   UNL     1      47.536   7.292  11.556  0.00  0.00    +0.000 C 
ENDBRANCH  15  27
ENDBRANCH   1  15
TORSDOF 6
ENDMDL
MODEL 4
REMARK VINA RESULT:    -6.347      3.403      4.360
REMARK INTER + INTRA:          -9.400
REMARK INTER:                  -8.584
REMARK INTRA:                  -0.816
REMARK UNBOUND:                -0.827
REMARK  Name = 
REMARK  9 active torsions:
REMARK  status: ('A' for Active; 'I' for Inactive)
REMARK    1  A    between atoms: C_1  and  C_2
REMARK    2  A    between atoms: C_3  and  C_4
REMARK    3  A    between atoms: C_4  and  C_5
REMARK    4  A    between atoms: C_4  and  C_6
REMARK    5  A    between atoms: C_4  and  C_17
REMARK    6  A    between atoms: C_6  and  N_7
REMARK    7  A    between atoms: C_11  and  C_12
REMARK    8  A    between atoms: C_21  and  O_22
REMARK    9  A    between atoms: O_22  and  C_23
REMARK                            x       y       z     vdW  Elec       q    Type
REMARK                         _______ _______ _______ _____ _____    ______ ____
ROOT
ATOM      1  C   UNL     1      45.951   5.414  13.068  0.00  0.00    +0.000 C 
ENDROOT
BRANCH   1   2
ATOM      2  N   UNL     1      46.363   6.721  13.577  0.00  0.00    +0.000 N 
ATOM      3  C   UNL     1      47.573   7.269  13.211  0.00  0.00    +0.000 A 
ATOM      4  C   UNL     1      48.169   7.036  11.979  0.00  0.00    +0.000 A 
ATOM      5  C   UNL     1      49.359   7.681  11.654  0.00  0.00    +0.000 A 
ATOM      6  C   UNL     1      49.926   8.578  12.555  0.00  0.00    +0.000 A 
ATOM      7  C   UNL     1      49.267   8.758  13.761  0.00  0.00    +0.000 A 
ATOM      8  N   UNL     1      48.120   8.117  14.105  0.00  0.00    +0.000 NA
ATOM      9  H   UNL     1      46.211   6.884  14.572  0.00  0.00    +0.000 HD
BRANCH   6  10
ATOM     10  C   UNL     1      51.168   9.287  12.168  0.00  0.00    +0.000 C 
ATOM     11  N   UNL     1      51.574   9.259  10.865  0.00  0.00    +0.000 N 
ATOM     12  O   UNL     1      51.837   9.890  13.001  0.00  0.00    +0.000 OA
ATOM     13  H   UNL     1      51.106   8.791  10.105  0.00  0.00    +0.000 HD
ATOM     14  H   UNL     1      52.437   9.745  10.655  0.00  0.00    +0.000 HD
ENDBRANCH   6  10
ENDBRANCH   1   2
BRANCH   1  15
ATOM     15  C   UNL     1      44.719   5.498  12.104  0.00  0.00    +0.000 C 
ATOM     16  C   UNL     1      43.462   5.148  12.933  0.00  0.00    +0.000 C 
BRANCH  15  17
ATOM     17  C   UNL     1      44.806   4.542  10.893  0.00  0.00    +0.000 A 
ATOM     18  C   UNL     1      44.205   3.268  10.932  0.00  0.00    +0.000 A 
ATOM     19  C   UNL     1      44.239   2.412   9.829  0.00  0.00    +0.000 A 
ATOM     20  C   UNL     1      44.886   2.799   8.659  0.00  0.00    +0.000 A 
ATOM     21  C   UNL     1      45.502   4.045   8.591  0.00  0.00    +0.000 A 
ATOM     22  C   UNL     1      45.484   4.891   9.708  0.00  0.00    +0.000 A 
BRANCH  21  23
ATOM     23  O   UNL     1      46.174   4.527   7.500  0.00  0.00    +0.000 OA
ATOM     24  C   UNL     1      46.657   3.539   6.595  0.00  0.00    +0.000 C 
ENDBRANCH  21  23
ENDBRANCH  15  17
BRANCH  15  27
ATOM     25  C   UNL     1      44.161   9.457  10.994  0.00  0.00    +0.000 C 
ATOM     26  C   UNL     1      44.440   8.063  11.339  0.00  0.00    +0.000 C 
ATOM     27  C   UNL     1      44.608   6.920  11.661  0.00  0.00    +0.000 C 
ENDBRANCH  15  27
ENDBRANCH   1  15
TORSDOF 6
ENDMDL
MODEL 5
REMARK VINA RESULT:    -6.165      2.694      2.916
REMARK INTER + INTRA:          -9.155
REMARK INTER:                  -8.408
REMARK INTRA:                  -0.747
REMARK UNBOUND:                -0.827
REMARK  Name = 
REMARK  9 active torsions:
REMARK  status: ('A' for Active; 'I' for Inactive)
REMARK    1  A    between atoms: C_1  and  C_2
REMARK    2  A    between atoms: C_3  and  C_4
REMARK    3  A    between atoms: C_4  and  C_5
REMARK    4  A    between atoms: C_4  and  C_6
REMARK    5  A    between atoms: C_4  and  C_17
REMARK    6  A    between atoms: C_6  and  N_7
REMARK    7  A    between atoms: C_11  and  C_12
REMARK    8  A    between atoms: C_21  and  O_22
REMARK    9  A    between atoms: O_22  and  C_23
REMARK                            x       y       z     vdW  Elec       q    Type
REMARK                         _______ _______ _______ _____ _____    ______ ____
ROOT
ATOM      1  C   UNL     1      46.827   6.440  12.190  0.00  0.00    +0.000 C 
ENDROOT
BRANCH   1   2
ATOM      2  N   UNL     1      47.056   6.473  13.634  0.00  0.00    +0.000 N 
ATOM      3  C   UNL     1      48.307   6.748  14.141  0.00  0.00    +0.000 A 
ATOM      4  C   UNL     1      49.219   7.577  13.501  0.00  0.00    +0.000 A 
ATOM      5  C   UNL     1      50.438   7.863  14.111  0.00  0.00    +0.000 A 
ATOM      6  C   UNL     1      50.719   7.342  15.370  0.00  0.00    +0.000 A 
ATOM      7  C   UNL     1      49.754   6.528  15.942  0.00  0.00    +0.000 A 
ATOM      8  N   UNL     1      48.571   6.216  15.350  0.00  0.00    +0.000 NA
ATOM      9  H   UNL     1      46.637   5.717  14.173  0.00  0.00    +0.000 HD
BRANCH   6  10
ATOM     10  C   UNL     1      52.003   7.697  16.018  0.00  0.00    +0.000 C 
ATOM     11  N   UNL     1      52.022   7.968  17.356  0.00  0.00    +0.000 N 
ATOM     12  O   UNL     1      53.042   7.757  15.369  0.00  0.00    +0.000 OA
ATOM     13  H   UNL     1      51.230   7.953  17.979  0.00  0.00    +0.000 HD
ATOM     14  H   UNL     1      52.921   8.221  17.747  0.00  0.00    +0.000 HD
ENDBRANCH   6  10
ENDBRANCH   1   2
BRANCH   1  15
ATOM     15  C   UNL     1      45.335   6.142  11.817  0.00  0.00    +0.000 C 
ATOM     16  C   UNL     1      44.618   5.696  13.111  0.00  0.00    +0.000 C 
BRANCH  15  17
ATOM     17  C   UNL     1      45.165   5.045  10.742  0.00  0.00    +0.000 A 
ATOM     18  C   UNL     1      44.411   3.885  11.007  0.00  0.00    +0.000 A 
ATOM     19  C   UNL     1      44.214   2.906  10.031  0.00  0.00    +0.000 A 
ATOM     20  C   UNL     1      44.775   3.052   8.765  0.00  0.00    +0.000 A 
ATOM     21  C   UNL     1      45.537   4.179   8.475  0.00  0.00    +0.000 A 
ATOM     22  C   UNL     1      45.751   5.148   9.466  0.00  0.00    +0.000 A 
BRANCH  21  23
ATOM     23  O   UNL     1      46.145   4.425   7.272  0.00  0.00    +0.000 OA
ATOM     24  C   UNL     1      46.664   3.278   6.606  0.00  0.00    +0.000 C 
ENDBRANCH  21  23
ENDBRANCH  15  17
BRANCH  15  27
ATOM     25  C   UNL     1      43.620   9.792  10.838  0.00  0.00    +0.000 C 
ATOM     26  C   UNL     1      44.232   8.488  11.091  0.00  0.00    +0.000 C 
ATOM     27  C   UNL     1      44.733   7.434  11.368  0.00  0.00    +0.000 C 
ENDBRANCH  15  27
ENDBRANCH   1  15
TORSDOF 6
ENDMDL
MODEL 6
REMARK VINA RESULT:    -6.046      2.954      8.888
REMARK INTER + INTRA:          -8.993
REMARK INTER:                  -8.134
REMARK INTRA:                  -0.859
REMARK UNBOUND:                -0.827
REMARK  Name = 
REMARK  9 active torsions:
REMARK  status: ('A' for Active; 'I' for Inactive)
REMARK    1  A    between atoms: C_1  and  C_2
REMARK    2  A    between atoms: C_3  and  C_4
REMARK    3  A    between atoms: C_4  and  C_5
REMARK    4  A    between atoms: C_4  and  C_6
REMARK    5  A    between atoms: C_4  and  C_17
REMARK    6  A    between atoms: C_6  and  N_7
REMARK    7  A    between atoms: C_11  and  C_12
REMARK    8  A    between atoms: C_21  and  O_22
REMARK    9  A    between atoms: O_22  and  C_23
REMARK                            x       y       z     vdW  Elec       q    Type
REMARK                         _______ _______ _______ _____ _____    ______ ____
ROOT
ATOM      1  C   UNL     1      48.150   4.615  15.996  0.00  0.00    +0.000 C 
ENDROOT
BRANCH   1   2
ATOM      2  N   UNL     1      47.318   3.875  15.047  0.00  0.00    +0.000 N 
ATOM      3  C   UNL     1      46.469   4.539  14.190  0.00  0.00    +0.000 A 
ATOM      4  C   UNL     1      46.734   5.807  13.692  0.00  0.00    +0.000 A 
ATOM      5  C   UNL     1      45.861   6.386  12.774  0.00  0.00    +0.000 A 
ATOM      6  C   UNL     1      44.746   5.675  12.340  0.00  0.00    +0.000 A 
ATOM      7  C   UNL     1      44.556   4.413  12.882  0.00  0.00    +0.000 A 
ATOM      8  N   UNL     1      45.382   3.845  13.798  0.00  0.00    +0.000 NA
ATOM      9  H   UNL     1      46.845   3.050  15.413  0.00  0.00    +0.000 HD
BRANCH   6  10
ATOM     10  C   UNL     1      43.857   6.292  11.328  0.00  0.00    +0.000 C 
ATOM     11  N   UNL     1      43.856   7.650  11.182  0.00  0.00    +0.000 N 
ATOM     12  O   UNL     1      43.121   5.603  10.629  0.00  0.00    +0.000 OA
ATOM     13  H   UNL     1      44.413   8.307  11.705  0.00  0.00    +0.000 HD
ATOM     14  H   UNL     1      43.220   8.023  10.488  0.00  0.00    +0.000 HD
ENDBRANCH   6  10
ENDBRANCH   1   2
BRANCH   1  15
ATOM     15  C   UNL     1      48.278   3.896  17.382  0.00  0.00    +0.000 C 
ATOM     16  C   UNL     1      47.071   2.940  17.517  0.00  0.00    +0.000 C 
BRANCH  15  17
ATOM     17  C   UNL     1      48.293   4.862  18.588  0.00  0.00    +0.000 A 
ATOM     18  C   UNL     1      48.672   4.414  19.869  0.00  0.00    +0.000 A 
ATOM     19  C   UNL     1      48.732   5.286  20.958  0.00  0.00    +0.000 A 
ATOM     20  C   UNL     1      48.402   6.629  20.802  0.00  0.00    +0.000 A 
ATOM     21  C   UNL     1      48.009   7.102  19.553  0.00  0.00    +0.000 A 
ATOM     22  C   UNL     1      47.929   6.218  18.469  0.00  0.00    +0.000 A 
BRANCH  21  23
ATOM     23  O   UNL     1      47.653   8.397  19.283  0.00  0.00    +0.000 OA
ATOM     24  C   UNL     1      47.980   8.859  17.976  0.00  0.00    +0.000 C 
ENDBRANCH  21  23
ENDBRANCH  15  17
BRANCH  15  27
ATOM     25  C   UNL     1      51.594   1.403  17.347  0.00  0.00    +0.000 C 
ATOM     26  C   UNL     1      50.481   2.352  17.330  0.00  0.00    +0.000 C 
ATOM     27  C   UNL     1      49.525   3.076  17.334  0.00  0.00    +0.000 C 
ENDBRANCH  15  27
ENDBRANCH   1  15
TORSDOF 6
ENDMDL
MODEL 7
REMARK VINA RESULT:    -6.022      3.021      7.676
REMARK INTER + INTRA:          -8.961
REMARK INTER:                  -7.880
REMARK INTRA:                  -1.081
REMARK UNBOUND:                -0.827
REMARK  Name = 
REMARK  9 active torsions:
REMARK  status: ('A' for Active; 'I' for Inactive)
REMARK    1  A    between atoms: C_1  and  C_2
REMARK    2  A    between atoms: C_3  and  C_4
REMARK    3  A    between atoms: C_4  and  C_5
REMARK    4  A    between atoms: C_4  and  C_6
REMARK    5  A    between atoms: C_4  and  C_17
REMARK    6  A    between atoms: C_6  and  N_7
REMARK    7  A    between atoms: C_11  and  C_12
REMARK    8  A    between atoms: C_21  and  O_22
REMARK    9  A    between atoms: O_22  and  C_23
REMARK                            x       y       z     vdW  Elec       q    Type
REMARK                         _______ _______ _______ _____ _____    ______ ____
ROOT
ATOM      1  C   UNL     1      48.946   6.932  14.330  0.00  0.00    +0.000 C 
ENDROOT
BRANCH   1   2
ATOM      2  N   UNL     1      47.509   7.175  14.213  0.00  0.00    +0.000 N 
ATOM      3  C   UNL     1      46.686   6.250  13.608  0.00  0.00    +0.000 A 
ATOM      4  C   UNL     1      46.930   4.884  13.639  0.00  0.00    +0.000 A 
ATOM      5  C   UNL     1      46.016   4.005  13.065  0.00  0.00    +0.000 A 
ATOM      6  C   UNL     1      44.848   4.501  12.492  0.00  0.00    +0.000 A 
ATOM      7  C   UNL     1      44.678   5.876  12.506  0.00  0.00    +0.000 A 
ATOM      8  N   UNL     1      45.573   6.750  13.037  0.00  0.00    +0.000 NA
ATOM      9  H   UNL     1      47.234   8.110  13.915  0.00  0.00    +0.000 HD
BRANCH   6  10
ATOM     10  C   UNL     1      43.869   3.543  11.928  0.00  0.00    +0.000 C 
ATOM     11  N   UNL     1      43.738   2.310  12.498  0.00  0.00    +0.000 N 
ATOM     12  O   UNL     1      43.182   3.841  10.957  0.00  0.00    +0.000 OA
ATOM     13  H   UNL     1      44.253   1.962  13.291  0.00  0.00    +0.000 HD
ATOM     14  H   UNL     1      43.066   1.687  12.066  0.00  0.00    +0.000 HD
ENDBRANCH   6  10
ENDBRANCH   1   2
BRANCH   1  15
ATOM     15  C   UNL     1      49.459   7.016  15.808  0.00  0.00    +0.000 C 
ATOM     16  C   UNL     1      50.974   7.313  15.752  0.00  0.00    +0.000 C 
BRANCH  15  17
ATOM     17  C   UNL     1      49.228   5.724  16.624  0.00  0.00    +0.000 A 
ATOM     18  C   UNL     1      47.937   5.364  17.057  0.00  0.00    +0.000 A 
ATOM     19  C   UNL     1      47.708   4.178  17.759  0.00  0.00    +0.000 A 
ATOM     20  C   UNL     1      48.765   3.323  18.058  0.00  0.00    +0.000 A 
ATOM     21  C   UNL     1      50.055   3.656  17.657  0.00  0.00    +0.000 A 
ATOM     22  C   UNL     1      50.283   4.859  16.974  0.00  0.00    +0.000 A 
BRANCH  21  23
ATOM     23  O   UNL     1      51.171   2.900  17.904  0.00  0.00    +0.000 OA
ATOM     24  C   UNL     1      51.181   1.613  17.296  0.00  0.00    +0.000 C 
ENDBRANCH  21  23
ENDBRANCH  15  17
BRANCH  15  27
ATOM     25  C   UNL     1      47.730  10.231  17.782  0.00  0.00    +0.000 C 
ATOM     26  C   UNL     1      48.275   9.109  17.017  0.00  0.00    +0.000 C 
ATOM     27  C   UNL     1      48.774   8.183  16.440  0.00  0.00    +0.000 C 
ENDBRANCH  15  27
ENDBRANCH   1  15
TORSDOF 6
ENDMDL
MODEL 8
REMARK VINA RESULT:    -5.964      2.840      7.708
REMARK INTER + INTRA:          -8.883
REMARK INTER:                  -7.969
REMARK INTRA:                  -0.915
REMARK UNBOUND:                -0.827
REMARK  Name = 
REMARK  9 active torsions:
REMARK  status: ('A' for Active; 'I' for Inactive)
REMARK    1  A    between atoms: C_1  and  C_2
REMARK    2  A    between atoms: C_3  and  C_4
REMARK    3  A    between atoms: C_4  and  C_5
REMARK    4  A    between atoms: C_4  and  C_6
REMARK    5  A    between atoms: C_4  and  C_17
REMARK    6  A    between atoms: C_6  and  N_7
REMARK    7  A    between atoms: C_11  and  C_12
REMARK    8  A    between atoms: C_21  and  O_22
REMARK    9  A    between atoms: O_22  and  C_23
REMARK                            x       y       z     vdW  Elec       q    Type
REMARK                         _______ _______ _______ _____ _____    ______ ____
ROOT
ATOM      1  C   UNL     1      47.159   4.653  16.423  0.00  0.00    +0.000 C 
ENDROOT
BRANCH   1   2
ATOM      2  N   UNL     1      47.261   3.823  15.224  0.00  0.00    +0.000 N 
ATOM      3  C   UNL     1      46.530   4.123  14.096  0.00  0.00    +0.000 A 
ATOM      4  C   UNL     1      46.182   5.419  13.741  0.00  0.00    +0.000 A 
ATOM      5  C   UNL     1      45.501   5.650  12.549  0.00  0.00    +0.000 A 
ATOM      6  C   UNL     1      45.202   4.583  11.707  0.00  0.00    +0.000 A 
ATOM      7  C   UNL     1      45.588   3.321  12.132  0.00  0.00    +0.000 A 
ATOM      8  N   UNL     1      46.229   3.074  13.304  0.00  0.00    +0.000 NA
ATOM      9  H   UNL     1      47.245   2.815  15.373  0.00  0.00    +0.000 HD
BRANCH   6  10
ATOM     10  C   UNL     1      44.518   4.858  10.422  0.00  0.00    +0.000 C 
ATOM     11  N   UNL     1      45.265   5.024   9.291  0.00  0.00    +0.000 N 
ATOM     12  O   UNL     1      43.296   4.945  10.364  0.00  0.00    +0.000 OA
ATOM     13  H   UNL     1      46.269   4.978   9.228  0.00  0.00    +0.000 HD
ATOM     14  H   UNL     1      44.750   5.225   8.442  0.00  0.00    +0.000 HD
ENDBRANCH   6  10
ENDBRANCH   1   2
BRANCH   1  15
ATOM     15  C   UNL     1      48.551   4.954  17.076  0.00  0.00    +0.000 C 
ATOM     16  C   UNL     1      48.286   5.453  18.514  0.00  0.00    +0.000 C 
BRANCH  15  17
ATOM     17  C   UNL     1      49.380   6.016  16.319  0.00  0.00    +0.000 A 
ATOM     18  C   UNL     1      50.746   6.206  16.605  0.00  0.00    +0.000 A 
ATOM     19  C   UNL     1      51.517   7.132  15.899  0.00  0.00    +0.000 A 
ATOM     20  C   UNL     1      50.942   7.904  14.894  0.00  0.00    +0.000 A 
ATOM     21  C   UNL     1      49.591   7.752  14.595  0.00  0.00    +0.000 A 
ATOM     22  C   UNL     1      48.817   6.838  15.322  0.00  0.00    +0.000 A 
BRANCH  21  23
ATOM     23  O   UNL     1      48.916   8.461  13.637  0.00  0.00    +0.000 OA
ATOM     24  C   UNL     1      49.327   8.216  12.295  0.00  0.00    +0.000 C 
ENDBRANCH  21  23
ENDBRANCH  15  17
BRANCH  15  27
ATOM     25  C   UNL     1      50.823   1.492  17.332  0.00  0.00    +0.000 C 
ATOM     26  C   UNL     1      49.946   2.658  17.227  0.00  0.00    +0.000 C 
ATOM     27  C   UNL     1      49.284   3.656  17.156  0.00  0.00    +0.000 C 
ENDBRANCH  15  27
ENDBRANCH   1  15
TORSDOF 6
ENDMDL
MODEL 9
REMARK VINA RESULT:    -5.909      2.514      8.692
REMARK INTER + INTRA:          -8.809
REMARK INTER:                  -8.076
REMARK INTRA:                  -0.733
REMARK UNBOUND:                -0.827
REMARK  Name = 
REMARK  9 active torsions:
REMARK  status: ('A' for Active; 'I' for Inactive)
REMARK    1  A    between atoms: C_1  and  C_2
REMARK    2  A    between atoms: C_3  and  C_4
REMARK    3  A    between atoms: C_4  and  C_5
REMARK    4  A    between atoms: C_4  and  C_6
REMARK    5  A    between atoms: C_4  and  C_17
REMARK    6  A    between atoms: C_6  and  N_7
REMARK    7  A    between atoms: C_11  and  C_12
REMARK    8  A    between atoms: C_21  and  O_22
REMARK    9  A    between atoms: O_22  and  C_23
REMARK                            x       y       z     vdW  Elec       q    Type
REMARK                         _______ _______ _______ _____ _____    ______ ____
ROOT
ATOM      1  C   UNL     1      47.914   4.803  16.129  0.00  0.00    +0.000 C 
ENDROOT
BRANCH   1   2
ATOM      2  N   UNL     1      47.620   5.874  15.178  0.00  0.00    +0.000 N 
ATOM      3  C   UNL     1      47.004   5.600  13.978  0.00  0.00    +0.000 A 
ATOM      4  C   UNL     1      46.097   4.562  13.810  0.00  0.00    +0.000 A 
ATOM      5  C   UNL     1      45.462   4.390  12.584  0.00  0.00    +0.000 A 
ATOM      6  C   UNL     1      45.718   5.278  11.543  0.00  0.00    +0.000 A 
ATOM      7  C   UNL     1      46.633   6.289  11.792  0.00  0.00    +0.000 A 
ATOM      8  N   UNL     1      47.282   6.456  12.974  0.00  0.00    +0.000 NA
ATOM      9  H   UNL     1      48.363   6.554  15.024  0.00  0.00    +0.000 HD
BRANCH   6  10
ATOM     10  C   UNL     1      44.996   5.102  10.261  0.00  0.00    +0.000 C 
ATOM     11  N   UNL     1      43.631   5.121  10.257  0.00  0.00    +0.000 N 
ATOM     12  O   UNL     1      45.606   4.934   9.211  0.00  0.00    +0.000 OA
ATOM     13  H   UNL     1      43.034   5.246  11.059  0.00  0.00    +0.000 HD
ATOM     14  H   UNL     1      43.185   4.981   9.359  0.00  0.00    +0.000 HD
ENDBRANCH   6  10
ENDBRANCH   1   2
BRANCH   1  15
ATOM     15  C   UNL     1      49.073   5.168  17.118  0.00  0.00    +0.000 C 
ATOM     16  C   UNL     1      49.824   6.378  16.519  0.00  0.00    +0.000 C 
BRANCH  15  17
ATOM     17  C   UNL     1      50.078   4.019  17.356  0.00  0.00    +0.000 A 
ATOM     18  C   UNL     1      49.732   2.684  17.066  0.00  0.00    +0.000 A 
ATOM     19  C   UNL     1      50.645   1.641  17.236  0.00  0.00    +0.000 A 
ATOM     20  C   UNL     1      51.927   1.900  17.714  0.00  0.00    +0.000 A 
ATOM     21  C   UNL     1      52.296   3.206  18.024  0.00  0.00    +0.000 A 
ATOM     22  C   UNL     1      51.369   4.245  17.874  0.00  0.00    +0.000 A 
BRANCH  21  23
ATOM     23  O   UNL     1      53.522   3.578  18.509  0.00  0.00    +0.000 OA
ATOM     24  C   UNL     1      54.368   2.506  18.916  0.00  0.00    +0.000 C 
ENDBRANCH  21  23
ENDBRANCH  15  17
BRANCH  15  27
ATOM     25  C   UNL     1      47.318   6.101  20.761  0.00  0.00    +0.000 C 
ATOM     26  C   UNL     1      47.922   5.862  19.450  0.00  0.00    +0.000 C 
ATOM     27  C   UNL     1      48.433   5.599  18.397  0.00  0.00    +0.000 C 
ENDBRANCH  15  27
ENDBRANCH   1  15
TORSDOF 6
ENDMDL
