MODEL 1
REMARK VINA RESULT:    -7.957      0.000      0.000
REMARK INTER + INTRA:         -11.614
REMARK INTER:                 -10.748
REMARK INTRA:                  -0.865
REMARK UNBOUND:                -0.865
REMARK  Name = 
REMARK  6 active torsions:
REMARK  status: ('A' for Active; 'I' for Inactive)
REMARK    1  A    between atoms: C_2  and  C_3
REMARK    2  A    between atoms: N_7  and  C_8
REMARK    3  A    between atoms: C_8  and  C_9
REMARK    4  A    between atoms: C_9  and  C_10
REMARK    5  A    between atoms: C_14  and  O_15
REMARK    6  A    between atoms: O_15  and  C_16
REMARK                            x       y       z     vdW  Elec       q    Type
REMARK                         _______ _______ _______ _____ _____    ______ ____
ROOT
ATOM      1  C   UNL     1      43.758   5.037  12.405  0.00  0.00    +0.000 C 
ENDROOT
BRANCH   1   2
ATOM      2  C   UNL     1      45.215   5.427  12.518  0.00  0.00    +0.000 A 
ATOM      3  C   UNL     1      45.787   6.311  11.596  0.00  0.00    +0.000 A 
ATOM      4  C   UNL     1      47.096   6.764  11.774  0.00  0.00    +0.000 A 
ATOM      5  C   UNL     1      47.847   6.345  12.875  0.00  0.00    +0.000 A 
ATOM      6  C   UNL     1      47.288   5.461  13.796  0.00  0.00    +0.000 A 
ATOM      7  C   UNL     1      45.979   5.006  13.616  0.00  0.00    +0.000 A 
BRANCH   6   8
ATOM      8  O   UNL     1      47.904   5.017  14.940  0.00  0.00    +0.000 OA
BRANCH   8   9
ATOM      9  C   UNL     1      47.170   4.174  15.854  0.00  0.00    +0.000 C 
ATOM     10  C   UNL     1      47.153   4.574  17.346  0.00  0.00    +0.000 C 
ATOM     11  N   UNL     1      47.425   3.169  17.716  0.00  0.00    +0.000 NA
ATOM     12  C   UNL     1      47.941   2.931  16.352  0.00  0.00    +0.000 C 
ATOM     13  H   UNL     1      46.587   2.632  17.934  0.00  0.00    +0.000 HD
ENDBRANCH   8   9
ENDBRANCH   6   8
ENDBRANCH   1   2
BRANCH   1  14
ATOM     14  C   UNL     1      43.445   4.688  10.950  0.00  0.00    +0.000 C 
BRANCH  14  19
ATOM     15  C   UNL     1      46.568   2.484   7.563  0.00  0.00    +0.000 A 
ATOM     16  C   UNL     1      46.286   3.817   7.824  0.00  0.00    +0.000 A 
ATOM     17  C   UNL     1      45.383   4.131   8.839  0.00  0.00    +0.000 A 
ATOM     18  C   UNL     1      44.769   3.115   9.570  0.00  0.00    +0.000 A 
ATOM     19  N   UNL     1      43.879   3.356  10.586  0.00  0.00    +0.000 N 
ATOM     20  N   UNL     1      45.035   1.818   9.317  0.00  0.00    +0.000 NA
ATOM     21  C   UNL     1      45.926   1.529   8.334  0.00  0.00    +0.000 A 
ATOM     22  H   UNL     1      43.451   2.527  10.982  0.00  0.00    +0.000 HD
BRANCH  15  24
ATOM     23  N   UNL     1      48.233   1.791   5.706  0.00  0.00    +0.000 NA
ATOM     24  C   UNL     1      47.488   2.108   6.539  0.00  0.00    +0.000 C 
ENDBRANCH  15  24
ENDBRANCH  14  19
ENDBRANCH   1  14
TORSDOF 6
ENDMDL
MODEL 2
REMARK VINA RESULT:    -7.148      2.418      3.625
REMARK INTER + INTRA:         -10.521
REMARK INTER:                  -9.724
REMARK INTRA:                  -0.798
REMARK UNBOUND:                -0.865
REMARK  Name = 
REMARK  6 active torsions:
REMARK  status: ('A' for Active; 'I' for Inactive)
REMARK    1  A    between atoms: C_2  and  C_3
REMARK    2  A    between atoms: N_7  and  C_8
REMARK    3  A    between atoms: C_8  and  C_9
REMARK    4  A    between atoms: C_9  and  C_10
REMARK    5  A    between atoms: C_14  and  O_15
REMARK    6  A    between atoms: O_15  and  C_16
REMARK                            x       y       z     vdW  Elec       q    Type
REMARK                         _______ _______ _______ _____ _____    ______ ____
ROOT
ATOM      1  C   UNL     1      43.391   5.486  12.112  0.00  0.00    +0.000 C 
ENDROOT
BRANCH   1   2
ATOM      2  C   UNL     1      44.824   5.597  12.580  0.00  0.00    +0.000 A 
ATOM      3  C   UNL     1      45.312   4.750  13.582  0.00  0.00    +0.000 A 
ATOM      4  C   UNL     1      46.666   4.773  13.925  0.00  0.00    +0.000 A 
ATOM      5  C   UNL     1      47.548   5.636  13.272  0.00  0.00    +0.000 A 
ATOM      6  C   UNL     1      47.071   6.487  12.277  0.00  0.00    +0.000 A 
ATOM      7  C   UNL     1      45.716   6.467  11.936  0.00  0.00    +0.000 A 
BRANCH   6   8
ATOM      8  O   UNL     1      47.844   7.342  11.530  0.00  0.00    +0.000 OA
BRANCH   8   9
ATOM      9  C   UNL     1      48.493   8.455  12.180  0.00  0.00    +0.000 C 
ATOM     10  C   UNL     1      48.089   9.880  11.741  0.00  0.00    +0.000 C 
ATOM     11  N   UNL     1      49.516  10.262  11.697  0.00  0.00    +0.000 NA
ATOM     12  C   UNL     1      49.875   8.832  11.598  0.00  0.00    +0.000 C 
ATOM     13  H   UNL     1      49.849  10.707  12.551  0.00  0.00    +0.000 HD
ENDBRANCH   8   9
ENDBRANCH   6   8
ENDBRANCH   1   2
BRANCH   1  14
ATOM     14  C   UNL     1      43.375   5.075  10.640  0.00  0.00    +0.000 C 
BRANCH  14  19
ATOM     15  C   UNL     1      46.552   2.484   7.595  0.00  0.00    +0.000 A 
ATOM     16  C   UNL     1      46.280   3.839   7.702  0.00  0.00    +0.000 A 
ATOM     17  C   UNL     1      45.356   4.271   8.653  0.00  0.00    +0.000 A 
ATOM     18  C   UNL     1      44.713   3.347   9.474  0.00  0.00    +0.000 A 
ATOM     19  N   UNL     1      43.801   3.706  10.435  0.00  0.00    +0.000 N 
ATOM     20  N   UNL     1      44.968   2.028   9.372  0.00  0.00    +0.000 NA
ATOM     21  C   UNL     1      45.879   1.624   8.448  0.00  0.00    +0.000 A 
ATOM     22  H   UNL     1      43.353   2.930  10.907  0.00  0.00    +0.000 HD
BRANCH  15  24
ATOM     23  N   UNL     1      48.264   1.588   5.872  0.00  0.00    +0.000 NA
ATOM     24  C   UNL     1      47.491   1.988   6.642  0.00  0.00    +0.000 C 
ENDBRANCH  15  24
ENDBRANCH  14  19
ENDBRANCH   1  14
TORSDOF 6
ENDMDL
MODEL 3
REMARK VINA RESULT:    -6.848      2.512      7.931
REMARK INTER + INTRA:         -10.116
REMARK INTER:                  -9.969
REMARK INTRA:                  -0.147
REMARK UNBOUND:                -0.865
REMARK  Name = 
REMARK  6 active torsions:
REMARK  status: ('A' for Active; 'I' for Inactive)
REMARK    1  A    between atoms: C_2  and  C_3
REMARK    2  A    between atoms: N_7  and  C_8
REMARK    3  A    between atoms: C_8  and  C_9
REMARK    4  A    between atoms: C_9  and  C_10
REMARK    5  A    between atoms: C_14  and  O_15
REMARK    6  A    between atoms: O_15  and  C_16
REMARK                            x       y       z     vdW  Elec       q    Type
REMARK                         _______ _______ _______ _____ _____    ______ ____
ROOT
ATOM      1  C   UNL     1      45.435   6.266  11.112  0.00  0.00    +0.000 C 
ENDROOT
BRANCH   1   2
ATOM      2  C   UNL     1      45.187   4.957  10.396  0.00  0.00    +0.000 A 
ATOM      3  C   UNL     1      44.406   3.960  10.990  0.00  0.00    +0.000 A 
ATOM      4  C   UNL     1      44.078   2.805  10.277  0.00  0.00    +0.000 A 
ATOM      5  C   UNL     1      44.522   2.633   8.964  0.00  0.00    +0.000 A 
ATOM      6  C   UNL     1      45.305   3.617   8.366  0.00  0.00    +0.000 A 
ATOM      7  C   UNL     1      45.635   4.772   9.080  0.00  0.00    +0.000 A 
BRANCH   6   8
ATOM      8  O   UNL     1      45.758   3.588   7.070  0.00  0.00    +0.000 OA
BRANCH   8   9
ATOM      9  C   UNL     1      47.138   3.251   6.813  0.00  0.00    +0.000 C 
ATOM     10  C   UNL     1      47.534   2.896   5.363  0.00  0.00    +0.000 C 
ATOM     11  N   UNL     1      48.304   1.739   5.866  0.00  0.00    +0.000 NA
ATOM     12  C   UNL     1      47.516   1.783   7.115  0.00  0.00    +0.000 C 
ATOM     13  H   UNL     1      49.295   1.933   6.004  0.00  0.00    +0.000 HD
ENDBRANCH   8   9
ENDBRANCH   6   8
ENDBRANCH   1   2
BRANCH   1  14
ATOM     14  C   UNL     1      46.622   6.101  12.061  0.00  0.00    +0.000 C 
BRANCH  14  19
ATOM     15  C   UNL     1      48.296   4.900  16.734  0.00  0.00    +0.000 A 
ATOM     16  C   UNL     1      48.573   5.976  15.905  0.00  0.00    +0.000 A 
ATOM     17  C   UNL     1      47.946   6.052  14.662  0.00  0.00    +0.000 A 
ATOM     18  C   UNL     1      47.063   5.052  14.261  0.00  0.00    +0.000 A 
ATOM     19  N   UNL     1      46.407   5.071  13.055  0.00  0.00    +0.000 N 
ATOM     20  N   UNL     1      46.793   4.000  15.059  0.00  0.00    +0.000 NA
ATOM     21  C   UNL     1      47.403   3.946  16.272  0.00  0.00    +0.000 A 
ATOM     22  H   UNL     1      45.854   4.245  12.859  0.00  0.00    +0.000 HD
BRANCH  15  24
ATOM     23  N   UNL     1      49.410   4.666  19.059  0.00  0.00    +0.000 NA
ATOM     24  C   UNL     1      48.907   4.775  18.018  0.00  0.00    +0.000 C 
ENDBRANCH  15  24
ENDBRANCH  14  19
ENDBRANCH   1  14
TORSDOF 6
ENDMDL
MODEL 4
REMARK VINA RESULT:    -6.821      2.770      4.390
REMARK INTER + INTRA:         -10.078
REMARK INTER:                  -9.768
REMARK INTRA:                  -0.311
REMARK UNBOUND:                -0.865
REMARK  Name = 
REMARK  6 active torsions:
REMARK  status: ('A' for Active; 'I' for Inactive)
REMARK    1  A    between atoms: C_2  and  C_3
REMARK    2  A    between atoms: N_7  and  C_8
REMARK    3  A    between atoms: C_8  and  C_9
REMARK    4  A    between atoms: C_9  and  C_10
REMARK    5  A    between atoms: C_14  and  O_15
REMARK    6  A    between atoms: O_15  and  C_16
REMARK                            x       y       z     vdW  Elec       q    Type
REMARK                         _______ _______ _______ _____ _____    ______ ____
ROOT
ATOM      1  C   UNL     1      44.080   4.111  12.531  0.00  0.00    +0.000 C 
ENDROOT
BRANCH   1   2
ATOM      2  C   UNL     1      45.103   5.198  12.766  0.00  0.00    +0.000 A 
ATOM      3  C   UNL     1      46.466   4.887  12.838  0.00  0.00    +0.000 A 
ATOM      4  C   UNL     1      47.416   5.906  12.933  0.00  0.00    +0.000 A 
ATOM      5  C   UNL     1      47.019   7.245  12.954  0.00  0.00    +0.000 A 
ATOM      6  C   UNL     1      45.665   7.565  12.888  0.00  0.00    +0.000 A 
ATOM      7  C   UNL     1      44.714   6.545  12.796  0.00  0.00    +0.000 A 
BRANCH   6   8
ATOM      8  O   UNL     1      45.154   8.839  12.849  0.00  0.00    +0.000 OA
BRANCH   8   9
ATOM      9  C   UNL     1      45.221   9.587  11.616  0.00  0.00    +0.000 C 
ATOM     10  C   UNL     1      45.175  11.129  11.708  0.00  0.00    +0.000 C 
ATOM     11  N   UNL     1      44.198  11.157  10.599  0.00  0.00    +0.000 NA
ATOM     12  C   UNL     1      43.872   9.743  10.877  0.00  0.00    +0.000 C 
ATOM     13  H   UNL     1      44.621  11.304   9.683  0.00  0.00    +0.000 HD
ENDBRANCH   8   9
ENDBRANCH   6   8
ENDBRANCH   1   2
BRANCH   1  14
ATOM     14  C   UNL     1      43.293   4.429  11.260  0.00  0.00    +0.000 C 
BRANCH  14  19
ATOM     15  C   UNL     1      46.506   2.713   7.680  0.00  0.00    +0.000 A 
ATOM     16  C   UNL     1      45.727   2.047   8.614  0.00  0.00    +0.000 A 
ATOM     17  C   UNL     1      44.918   2.789   9.473  0.00  0.00    +0.000 A 
ATOM     18  C   UNL     1      44.905   4.180   9.395  0.00  0.00    +0.000 A 
ATOM     19  N   UNL     1      44.126   4.969  10.205  0.00  0.00    +0.000 N 
ATOM     20  N   UNL     1      45.663   4.834   8.494  0.00  0.00    +0.000 NA
ATOM     21  C   UNL     1      46.438   4.097   7.656  0.00  0.00    +0.000 A 
ATOM     22  H   UNL     1      44.269   5.965  10.094  0.00  0.00    +0.000 HD
BRANCH  15  24
ATOM     23  N   UNL     1      48.040   1.419   6.045  0.00  0.00    +0.000 NA
ATOM     24  C   UNL     1      47.349   2.002   6.774  0.00  0.00    +0.000 C 
ENDBRANCH  15  24
ENDBRANCH  14  19
ENDBRANCH   1  14
TORSDOF 6
ENDMDL
MODEL 5
REMARK VINA RESULT:    -6.482      3.452      7.651
REMARK INTER + INTRA:          -9.621
REMARK INTER:                  -9.206
REMARK INTRA:                  -0.415
REMARK UNBOUND:                -0.865
REMARK  Name = 
REMARK  6 active torsions:
REMARK  status: ('A' for Active; 'I' for Inactive)
REMARK    1  A    between atoms: C_2  and  C_3
REMARK    2  A    between atoms: N_7  and  C_8
REMARK    3  A    between atoms: C_8  and  C_9
REMARK    4  A    between atoms: C_9  and  C_10
REMARK    5  A    between atoms: C_14  and  O_15
REMARK    6  A    between atoms: O_15  and  C_16
REMARK                            x       y       z     vdW  Elec       q    Type
REMARK                         _______ _______ _______ _____ _____    ______ ____
ROOT
ATOM      1  C   UNL     1      45.086   6.292  10.994  0.00  0.00    +0.000 C 
ENDROOT
BRANCH   1   2
ATOM      2  C   UNL     1      44.985   4.908  10.394  0.00  0.00    +0.000 A 
ATOM      3  C   UNL     1      44.349   3.875  11.094  0.00  0.00    +0.000 A 
ATOM      4  C   UNL     1      44.149   2.633  10.488  0.00  0.00    +0.000 A 
ATOM      5  C   UNL     1      44.579   2.407   9.178  0.00  0.00    +0.000 A 
ATOM      6  C   UNL     1      45.218   3.426   8.475  0.00  0.00    +0.000 A 
ATOM      7  C   UNL     1      45.420   4.668   9.083  0.00  0.00    +0.000 A 
BRANCH   6   8
ATOM      8  O   UNL     1      45.639   3.344   7.171  0.00  0.00    +0.000 OA
BRANCH   8   9
ATOM      9  C   UNL     1      47.035   3.097   6.895  0.00  0.00    +0.000 C 
ATOM     10  C   UNL     1      47.439   2.810   5.432  0.00  0.00    +0.000 C 
ATOM     11  N   UNL     1      48.280   1.686   5.894  0.00  0.00    +0.000 NA
ATOM     12  C   UNL     1      47.500   1.645   7.148  0.00  0.00    +0.000 C 
ATOM     13  H   UNL     1      49.259   1.934   6.031  0.00  0.00    +0.000 HD
ENDBRANCH   8   9
ENDBRANCH   6   8
ENDBRANCH   1   2
BRANCH   1  14
ATOM     14  C   UNL     1      45.157   6.175  12.516  0.00  0.00    +0.000 C 
BRANCH  14  19
ATOM     15  C   UNL     1      49.771   8.191  13.370  0.00  0.00    +0.000 A 
ATOM     16  C   UNL     1      49.377   7.046  12.695  0.00  0.00    +0.000 A 
ATOM     17  C   UNL     1      48.019   6.746  12.607  0.00  0.00    +0.000 A 
ATOM     18  C   UNL     1      47.077   7.584  13.201  0.00  0.00    +0.000 A 
ATOM     19  N   UNL     1      45.725   7.350  13.144  0.00  0.00    +0.000 N 
ATOM     20  N   UNL     1      47.453   8.695  13.863  0.00  0.00    +0.000 NA
ATOM     21  C   UNL     1      48.779   8.980  13.930  0.00  0.00    +0.000 A 
ATOM     22  H   UNL     1      45.159   7.996  13.681  0.00  0.00    +0.000 HD
BRANCH  15  24
ATOM     23  N   UNL     1      52.268   8.836  13.592  0.00  0.00    +0.000 NA
ATOM     24  C   UNL     1      51.148   8.548  13.487  0.00  0.00    +0.000 C 
ENDBRANCH  15  24
ENDBRANCH  14  19
ENDBRANCH   1  14
TORSDOF 6
ENDMDL
MODEL 6
REMARK VINA RESULT:    -6.131      2.204      7.938
REMARK INTER + INTRA:          -9.146
REMARK INTER:                  -8.587
REMARK INTRA:                  -0.559
REMARK UNBOUND:                -0.865
REMARK  Name = 
REMARK  6 active torsions:
REMARK  status: ('A' for Active; 'I' for Inactive)
REMARK    1  A    between atoms: C_2  and  C_3
REMARK    2  A    between atoms: N_7  and  C_8
REMARK    3  A    between atoms: C_8  and  C_9
REMARK    4  A    between atoms: C_9  and  C_10
REMARK    5  A    between atoms: C_14  and  O_15
REMARK    6  A    between atoms: O_15  and  C_16
REMARK                            x       y       z     vdW  Elec       q    Type
REMARK                         _______ _______ _______ _____ _____    ______ ____
ROOT
ATOM      1  C   UNL     1      46.317   6.667  12.768  0.00  0.00    +0.000 C 
ENDROOT
BRANCH   1   2
ATOM      2  C   UNL     1      45.144   5.861  12.260  0.00  0.00    +0.000 A 
ATOM      3  C   UNL     1      43.946   5.815  12.984  0.00  0.00    +0.000 A 
ATOM      4  C   UNL     1      42.827   5.171  12.453  0.00  0.00    +0.000 A 
ATOM      5  C   UNL     1      42.887   4.568  11.193  0.00  0.00    +0.000 A 
ATOM      6  C   UNL     1      44.076   4.604  10.468  0.00  0.00    +0.000 A 
ATOM      7  C   UNL     1      45.197   5.246  11.000  0.00  0.00    +0.000 A 
BRANCH   6   8
ATOM      8  O   UNL     1      44.246   4.095   9.204  0.00  0.00    +0.000 OA
BRANCH   8   9
ATOM      9  C   UNL     1      45.523   3.531   8.837  0.00  0.00    +0.000 C 
ATOM     10  C   UNL     1      45.858   3.427   7.332  0.00  0.00    +0.000 C 
ATOM     11  N   UNL     1      46.347   2.048   7.545  0.00  0.00    +0.000 NA
ATOM     12  C   UNL     1      45.565   1.986   8.797  0.00  0.00    +0.000 C 
ATOM     13  H   UNL     1      47.354   1.987   7.692  0.00  0.00    +0.000 HD
ENDBRANCH   8   9
ENDBRANCH   6   8
ENDBRANCH   1   2
BRANCH   1  14
ATOM     14  C   UNL     1      47.440   5.715  13.177  0.00  0.00    +0.000 C 
BRANCH  14  19
ATOM     15  C   UNL     1      48.175   4.583  18.103  0.00  0.00    +0.000 A 
ATOM     16  C   UNL     1      48.636   5.630  17.320  0.00  0.00    +0.000 A 
ATOM     17  C   UNL     1      48.255   5.693  15.981  0.00  0.00    +0.000 A 
ATOM     18  C   UNL     1      47.429   4.709  15.441  0.00  0.00    +0.000 A 
ATOM     19  N   UNL     1      47.010   4.717  14.134  0.00  0.00    +0.000 N 
ATOM     20  N   UNL     1      46.981   3.686  16.195  0.00  0.00    +0.000 NA
ATOM     21  C   UNL     1      47.353   3.645  17.500  0.00  0.00    +0.000 A 
ATOM     22  H   UNL     1      46.476   3.903  13.854  0.00  0.00    +0.000 HD
BRANCH  15  24
ATOM     23  N   UNL     1      48.814   4.390  20.604  0.00  0.00    +0.000 NA
ATOM     24  C   UNL     1      48.531   4.473  19.480  0.00  0.00    +0.000 C 
ENDBRANCH  15  24
ENDBRANCH  14  19
ENDBRANCH   1  14
TORSDOF 6
ENDMDL
MODEL 7
REMARK VINA RESULT:    -5.730      2.293      3.885
REMARK INTER + INTRA:          -8.606
REMARK INTER:                  -8.090
REMARK INTRA:                  -0.516
REMARK UNBOUND:                -0.865
REMARK  Name = 
REMARK  6 active torsions:
REMARK  status: ('A' for Active; 'I' for Inactive)
REMARK    1  A    between atoms: C_2  and  C_3
REMARK    2  A    between atoms: N_7  and  C_8
REMARK    3  A    between atoms: C_8  and  C_9
REMARK    4  A    between atoms: C_9  and  C_10
REMARK    5  A    between atoms: C_14  and  O_15
REMARK    6  A    between atoms: O_15  and  C_16
REMARK                            x       y       z     vdW  Elec       q    Type
REMARK                         _______ _______ _______ _____ _____    ______ ____
ROOT
ATOM      1  C   UNL     1      47.801   8.183  12.990  0.00  0.00    +0.000 C 
ENDROOT
BRANCH   1   2
ATOM      2  C   UNL     1      48.269   7.957  14.410  0.00  0.00    +0.000 A 
ATOM      3  C   UNL     1      48.204   8.991  15.352  0.00  0.00    +0.000 A 
ATOM      4  C   UNL     1      48.521   8.745  16.689  0.00  0.00    +0.000 A 
ATOM      5  C   UNL     1      48.903   7.467  17.104  0.00  0.00    +0.000 A 
ATOM      6  C   UNL     1      48.976   6.433  16.173  0.00  0.00    +0.000 A 
ATOM      7  C   UNL     1      48.661   6.679  14.834  0.00  0.00    +0.000 A 
BRANCH   6   8
ATOM      8  O   UNL     1      49.288   5.128  16.464  0.00  0.00    +0.000 OA
BRANCH   8   9
ATOM      9  C   UNL     1      48.515   4.423  17.460  0.00  0.00    +0.000 C 
ATOM     10  C   UNL     1      48.415   2.886  17.338  0.00  0.00    +0.000 C 
ATOM     11  N   UNL     1      46.963   2.969  17.597  0.00  0.00    +0.000 NA
ATOM     12  C   UNL     1      46.992   4.391  17.197  0.00  0.00    +0.000 C 
ATOM     13  H   UNL     1      46.711   2.827  18.575  0.00  0.00    +0.000 HD
ENDBRANCH   8   9
ENDBRANCH   6   8
ENDBRANCH   1   2
BRANCH   1  14
ATOM     14  C   UNL     1      46.278   8.073  12.941  0.00  0.00    +0.000 C 
BRANCH  14  19
ATOM     15  C   UNL     1      44.978   3.758  10.537  0.00  0.00    +0.000 A 
ATOM     16  C   UNL     1      45.476   4.963  10.063  0.00  0.00    +0.000 A 
ATOM     17  C   UNL     1      45.759   5.982  10.971  0.00  0.00    +0.000 A 
ATOM     18  C   UNL     1      45.534   5.790  12.332  0.00  0.00    +0.000 A 
ATOM     19  N   UNL     1      45.799   6.749  13.278  0.00  0.00    +0.000 N 
ATOM     20  N   UNL     1      45.045   4.624  12.799  0.00  0.00    +0.000 NA
ATOM     21  C   UNL     1      44.785   3.637  11.904  0.00  0.00    +0.000 A 
ATOM     22  H   UNL     1      45.518   6.506  14.220  0.00  0.00    +0.000 HD
BRANCH  15  24
ATOM     23  N   UNL     1      44.436   1.797   8.937  0.00  0.00    +0.000 NA
ATOM     24  C   UNL     1      44.675   2.680   9.653  0.00  0.00    +0.000 C 
ENDBRANCH  15  24
ENDBRANCH  14  19
ENDBRANCH   1  14
TORSDOF 6
ENDMDL
MODEL 8
REMARK VINA RESULT:    -5.694      3.431      5.482
REMARK INTER + INTRA:          -8.557
REMARK INTER:                  -7.723
REMARK INTRA:                  -0.834
REMARK UNBOUND:                -0.865
REMARK  Name = 
REMARK  6 active torsions:
REMARK  status: ('A' for Active; 'I' for Inactive)
REMARK    1  A    between atoms: C_2  and  C_3
REMARK    2  A    between atoms: N_7  and  C_8
REMARK    3  A    between atoms: C_8  and  C_9
REMARK    4  A    between atoms: C_9  and  C_10
REMARK    5  A    between atoms: C_14  and  O_15
REMARK    6  A    between atoms: O_15  and  C_16
REMARK                            x       y       z     vdW  Elec       q    Type
REMARK                         _______ _______ _______ _____ _____    ______ ____
ROOT
ATOM      1  C   UNL     1      48.893   8.347  15.194  0.00  0.00    +0.000 C 
ENDROOT
BRANCH   1   2
ATOM      2  C   UNL     1      48.657   7.775  16.574  0.00  0.00    +0.000 A 
ATOM      3  C   UNL     1      48.175   8.587  17.607  0.00  0.00    +0.000 A 
ATOM      4  C   UNL     1      47.843   8.031  18.844  0.00  0.00    +0.000 A 
ATOM      5  C   UNL     1      47.985   6.658  19.063  0.00  0.00    +0.000 A 
ATOM      6  C   UNL     1      48.469   5.842  18.044  0.00  0.00    +0.000 A 
ATOM      7  C   UNL     1      48.804   6.400  16.807  0.00  0.00    +0.000 A 
BRANCH   6   8
ATOM      8  O   UNL     1      48.605   4.478  18.120  0.00  0.00    +0.000 OA
BRANCH   8   9
ATOM      9  C   UNL     1      49.139   3.759  16.988  0.00  0.00    +0.000 C 
ATOM     10  C   UNL     1      48.229   2.713  16.306  0.00  0.00    +0.000 C 
ATOM     11  N   UNL     1      49.360   1.762  16.276  0.00  0.00    +0.000 NA
ATOM     12  C   UNL     1      50.015   2.537  17.350  0.00  0.00    +0.000 C 
ATOM     13  H   UNL     1      49.878   1.766  15.397  0.00  0.00    +0.000 HD
ENDBRANCH   8   9
ENDBRANCH   6   8
ENDBRANCH   1   2
BRANCH   1  14
ATOM     14  C   UNL     1      48.502   7.305  14.146  0.00  0.00    +0.000 C 
BRANCH  14  19
ATOM     15  C   UNL     1      44.709   4.300  12.515  0.00  0.00    +0.000 A 
ATOM     16  C   UNL     1      45.992   4.008  12.955  0.00  0.00    +0.000 A 
ATOM     17  C   UNL     1      46.822   5.051  13.361  0.00  0.00    +0.000 A 
ATOM     18  C   UNL     1      46.366   6.368  13.314  0.00  0.00    +0.000 A 
ATOM     19  N   UNL     1      47.129   7.439  13.707  0.00  0.00    +0.000 N 
ATOM     20  N   UNL     1      45.123   6.659  12.882  0.00  0.00    +0.000 NA
ATOM     21  C   UNL     1      44.323   5.630  12.501  0.00  0.00    +0.000 A 
ATOM     22  H   UNL     1      46.704   8.344  13.549  0.00  0.00    +0.000 HD
BRANCH  15  24
ATOM     23  N   UNL     1      43.089   2.436  11.739  0.00  0.00    +0.000 NA
ATOM     24  C   UNL     1      43.817   3.270  12.092  0.00  0.00    +0.000 C 
ENDBRANCH  15  24
ENDBRANCH  14  19
ENDBRANCH   1  14
TORSDOF 6
ENDMDL
MODEL 9
REMARK VINA RESULT:    -5.331      3.020      7.778
REMARK INTER + INTRA:          -8.066
REMARK INTER:                  -7.494
REMARK INTRA:                  -0.572
REMARK UNBOUND:                -0.865
REMARK  Name = 
REMARK  6 active torsions:
REMARK  status: ('A' for Active; 'I' for Inactive)
REMARK    1  A    between atoms: C_2  and  C_3
REMARK    2  A    between atoms: N_7  and  C_8
REMARK    3  A    between atoms: C_8  and  C_9
REMARK    4  A    between atoms: C_9  and  C_10
REMARK    5  A    between atoms: C_14  and  O_15
REMARK    6  A    between atoms: O_15  and  C_16
REMARK                            x       y       z     vdW  Elec       q    Type
REMARK                         _______ _______ _______ _____ _____    ______ ____
ROOT
ATOM      1  C   UNL     1      48.513   7.761  13.151  0.00  0.00    +0.000 C 
ENDROOT
BRANCH   1   2
ATOM      2  C   UNL     1      47.117   7.536  12.615  0.00  0.00    +0.000 A 
ATOM      3  C   UNL     1      46.163   8.559  12.668  0.00  0.00    +0.000 A 
ATOM      4  C   UNL     1      44.916   8.390  12.063  0.00  0.00    +0.000 A 
ATOM      5  C   UNL     1      44.608   7.202  11.396  0.00  0.00    +0.000 A 
ATOM      6  C   UNL     1      45.548   6.176  11.342  0.00  0.00    +0.000 A 
ATOM      7  C   UNL     1      46.795   6.344  11.950  0.00  0.00    +0.000 A 
BRANCH   6   8
ATOM      8  O   UNL     1      45.384   4.986  10.677  0.00  0.00    +0.000 OA
BRANCH   8   9
ATOM      9  C   UNL     1      44.124   4.289  10.780  0.00  0.00    +0.000 C 
ATOM     10  C   UNL     1      43.766   3.647  12.139  0.00  0.00    +0.000 C 
ATOM     11  N   UNL     1      43.338   2.419  11.437  0.00  0.00    +0.000 NA
ATOM     12  C   UNL     1      44.145   2.830  10.269  0.00  0.00    +0.000 C 
ATOM     13  H   UNL     1      42.337   2.382  11.246  0.00  0.00    +0.000 HD
ENDBRANCH   8   9
ENDBRANCH   6   8
ENDBRANCH   1   2
BRANCH   1  14
ATOM     14  C   UNL     1      48.442   7.970  14.663  0.00  0.00    +0.000 C 
BRANCH  14  19
ATOM     15  C   UNL     1      51.081   4.692  17.558  0.00  0.00    +0.000 A 
ATOM     16  C   UNL     1      51.445   5.886  16.952  0.00  0.00    +0.000 A 
ATOM     17  C   UNL     1      50.492   6.590  16.218  0.00  0.00    +0.000 A 
ATOM     18  C   UNL     1      49.197   6.091  16.090  0.00  0.00    +0.000 A 
ATOM     19  N   UNL     1      48.210   6.739  15.389  0.00  0.00    +0.000 N 
ATOM     20  N   UNL     1      48.838   4.929  16.671  0.00  0.00    +0.000 NA
ATOM     21  C   UNL     1      49.775   4.261  17.393  0.00  0.00    +0.000 A 
ATOM     22  H   UNL     1      47.339   6.229  15.313  0.00  0.00    +0.000 HD
BRANCH  15  24
ATOM     23  N   UNL     1      52.784   3.320  18.942  0.00  0.00    +0.000 NA
ATOM     24  C   UNL     1      52.015   3.933  18.324  0.00  0.00    +0.000 C 
ENDBRANCH  15  24
ENDBRANCH  14  19
ENDBRANCH   1  14
TORSDOF 6
ENDMDL
