MODEL 1
REMARK VINA RESULT:    -7.695      0.000      0.000
REMARK INTER + INTRA:          -9.972
REMARK INTER:                  -9.494
REMARK INTRA:                  -0.478
REMARK UNBOUND:                -0.478
REMARK  Name = 
REMARK  4 active torsions:
REMARK  status: ('A' for Active; 'I' for Inactive)
REMARK    1  A    between atoms: C_2  and  C_4
REMARK    2  A    between atoms: C_7  and  O_8
REMARK    3  A    between atoms: O_8  and  C_9
REMARK    4  A    between atoms: C_9  and  C_10
REMARK                            x       y       z     vdW  Elec       q    Type
REMARK                         _______ _______ _______ _____ _____    ______ ____
ROOT
ATOM      1  C   UNL     1      46.312   4.756  13.214  0.00  0.00    +0.000 A 
ATOM      2  C   UNL     1      46.239   5.665  12.167  0.00  0.00    +0.000 A 
ATOM      3  C   UNL     1      45.490   5.315  11.044  0.00  0.00    +0.000 A 
ATOM      4  C   UNL     1      44.855   4.076  11.000  0.00  0.00    +0.000 A 
ATOM      5  C   UNL     1      44.954   3.254  12.119  0.00  0.00    +0.000 A 
ATOM      6  N   UNL     1      45.676   3.550  13.220  0.00  0.00    +0.000 NA
ENDROOT
BRANCH   1   8
ATOM      7  N   UNL     1      46.770   4.378  15.557  0.00  0.00    +0.000 N 
ATOM      8  C   UNL     1      47.133   5.059  14.427  0.00  0.00    +0.000 C 
ATOM      9  O   UNL     1      48.069   5.847  14.414  0.00  0.00    +0.000 OA
ATOM     10  H   UNL     1      47.285   4.515  16.414  0.00  0.00    +0.000 HD
ATOM     11  H   UNL     1      46.006   3.714  15.513  0.00  0.00    +0.000 HD
ENDBRANCH   1   8
BRANCH   4  12
ATOM     12  O   UNL     1      44.190   3.769   9.845  0.00  0.00    +0.000 OA
BRANCH  12  13
ATOM     13  C   UNL     1      44.406   2.436   9.374  0.00  0.00    +0.000 C 
BRANCH  13  14
ATOM     14  C   UNL     1      45.507   2.434   8.347  0.00  0.00    +0.000 A 
ATOM     15  C   UNL     1      46.292   1.288   8.161  0.00  0.00    +0.000 A 
ATOM     16  C   UNL     1      47.302   1.273   7.201  0.00  0.00    +0.000 A 
ATOM     17  C   UNL     1      47.536   2.404   6.421  0.00  0.00    +0.000 A 
ATOM     18  C   UNL     1      46.762   3.549   6.600  0.00  0.00    +0.000 A 
ATOM     19  C   UNL     1      45.751   3.567   7.561  0.00  0.00    +0.000 A 
ENDBRANCH  13  14
ENDBRANCH  12  13
ENDBRANCH   4  12
TORSDOF 4
ENDMDL
MODEL 2
REMARK VINA RESULT:    -7.268      1.228      1.692
REMARK INTER + INTRA:          -9.446
REMARK INTER:                  -9.014
REMARK INTRA:                  -0.432
REMARK UNBOUND:                -0.478
REMARK  Name = 
REMARK  4 active torsions:
REMARK  status: ('A' for Active; 'I' for Inactive)
REMARK    1  A    between atoms: C_2  and  C_4
REMARK    2  A    between atoms: C_7  and  O_8
REMARK    3  A    between atoms: O_8  and  C_9
REMARK    4  A    between atoms: C_9  and  C_10
REMARK                            x       y       z     vdW  Elec       q    Type
REMARK                         _______ _______ _______ _____ _____    ______ ____
ROOT
ATOM      1  C   UNL     1      46.503   5.735  12.572  0.00  0.00    +0.000 A 
ATOM      2  C   UNL     1      46.193   6.282  11.334  0.00  0.00    +0.000 A 
ATOM      3  C   UNL     1      45.408   5.529  10.461  0.00  0.00    +0.000 A 
ATOM      4  C   UNL     1      44.974   4.262  10.845  0.00  0.00    +0.000 A 
ATOM      5  C   UNL     1      45.303   3.822  12.123  0.00  0.00    +0.000 A 
ATOM      6  N   UNL     1      46.068   4.514  12.995  0.00  0.00    +0.000 NA
ENDROOT
BRANCH   1   8
ATOM      7  N   UNL     1      46.965   7.752  13.821  0.00  0.00    +0.000 N 
ATOM      8  C   UNL     1      47.374   6.478  13.533  0.00  0.00    +0.000 C 
ATOM      9  O   UNL     1      48.374   5.986  14.039  0.00  0.00    +0.000 OA
ATOM     10  H   UNL     1      47.490   8.315  14.473  0.00  0.00    +0.000 HD
ATOM     11  H   UNL     1      46.115   8.107  13.399  0.00  0.00    +0.000 HD
ENDBRANCH   1   8
BRANCH   4  12
ATOM     12  O   UNL     1      44.263   3.552   9.919  0.00  0.00    +0.000 OA
BRANCH  12  13
ATOM     13  C   UNL     1      44.510   3.934   8.563  0.00  0.00    +0.000 C 
BRANCH  13  14
ATOM     14  C   UNL     1      45.562   3.038   7.967  0.00  0.00    +0.000 A 
ATOM     15  C   UNL     1      46.425   3.529   6.978  0.00  0.00    +0.000 A 
ATOM     16  C   UNL     1      47.412   2.710   6.433  0.00  0.00    +0.000 A 
ATOM     17  C   UNL     1      47.543   1.394   6.870  0.00  0.00    +0.000 A 
ATOM     18  C   UNL     1      46.688   0.895   7.853  0.00  0.00    +0.000 A 
ATOM     19  C   UNL     1      45.699   1.713   8.399  0.00  0.00    +0.000 A 
ENDBRANCH  13  14
ENDBRANCH  12  13
ENDBRANCH   4  12
TORSDOF 4
ENDMDL
MODEL 3
REMARK VINA RESULT:    -7.224      2.951      6.070
REMARK INTER + INTRA:          -9.392
REMARK INTER:                  -9.115
REMARK INTRA:                  -0.277
REMARK UNBOUND:                -0.478
REMARK  Name = 
REMARK  4 active torsions:
REMARK  status: ('A' for Active; 'I' for Inactive)
REMARK    1  A    between atoms: C_2  and  C_4
REMARK    2  A    between atoms: C_7  and  O_8
REMARK    3  A    between atoms: O_8  and  C_9
REMARK    4  A    between atoms: C_9  and  C_10
REMARK                            x       y       z     vdW  Elec       q    Type
REMARK                         _______ _______ _______ _____ _____    ______ ____
ROOT
ATOM      1  C   UNL     1      46.510   2.590   7.399  0.00  0.00    +0.000 A 
ATOM      2  C   UNL     1      46.006   3.881   7.473  0.00  0.00    +0.000 A 
ATOM      3  C   UNL     1      45.038   4.155   8.439  0.00  0.00    +0.000 A 
ATOM      4  C   UNL     1      44.601   3.135   9.282  0.00  0.00    +0.000 A 
ATOM      5  C   UNL     1      45.200   1.886   9.156  0.00  0.00    +0.000 A 
ATOM      6  N   UNL     1      46.132   1.577   8.229  0.00  0.00    +0.000 NA
ENDROOT
BRANCH   1   8
ATOM      7  N   UNL     1      47.452   2.961   5.205  0.00  0.00    +0.000 N 
ATOM      8  C   UNL     1      47.520   2.227   6.358  0.00  0.00    +0.000 C 
ATOM      9  O   UNL     1      48.357   1.349   6.522  0.00  0.00    +0.000 OA
ATOM     10  H   UNL     1      48.109   2.788   4.458  0.00  0.00    +0.000 HD
ATOM     11  H   UNL     1      46.760   3.697   5.125  0.00  0.00    +0.000 HD
ENDBRANCH   1   8
BRANCH   4  12
ATOM     12  O   UNL     1      43.606   3.454  10.164  0.00  0.00    +0.000 OA
BRANCH  12  13
ATOM     13  C   UNL     1      43.611   4.819  10.592  0.00  0.00    +0.000 C 
BRANCH  13  14
ATOM     14  C   UNL     1      44.754   5.047  11.545  0.00  0.00    +0.000 A 
ATOM     15  C   UNL     1      45.642   6.111  11.334  0.00  0.00    +0.000 A 
ATOM     16  C   UNL     1      46.693   6.338  12.220  0.00  0.00    +0.000 A 
ATOM     17  C   UNL     1      46.867   5.503  13.321  0.00  0.00    +0.000 A 
ATOM     18  C   UNL     1      45.991   4.440  13.538  0.00  0.00    +0.000 A 
ATOM     19  C   UNL     1      44.938   4.211  12.652  0.00  0.00    +0.000 A 
ENDBRANCH  13  14
ENDBRANCH  12  13
ENDBRANCH   4  12
TORSDOF 4
ENDMDL
MODEL 4
REMARK VINA RESULT:    -6.733      2.093      2.620
REMARK INTER + INTRA:          -8.786
REMARK INTER:                  -8.470
REMARK INTRA:                  -0.315
REMARK UNBOUND:                -0.478
REMARK  Name = 
REMARK  4 active torsions:
REMARK  status: ('A' for Active; 'I' for Inactive)
REMARK    1  A    between atoms: C_2  and  C_4
REMARK    2  A    between atoms: C_7  and  O_8
REMARK    3  A    between atoms: O_8  and  C_9
REMARK    4  A    between atoms: C_9  and  C_10
REMARK                            x       y       z     vdW  Elec       q    Type
REMARK                         _______ _______ _______ _____ _____    ______ ____
ROOT
ATOM      1  C   UNL     1      45.518   6.812  12.304  0.00  0.00    +0.000 A 
ATOM      2  C   UNL     1      45.098   5.742  13.082  0.00  0.00    +0.000 A 
ATOM      3  C   UNL     1      44.935   4.503  12.463  0.00  0.00    +0.000 A 
ATOM      4  C   UNL     1      45.182   4.379  11.097  0.00  0.00    +0.000 A 
ATOM      5  C   UNL     1      45.640   5.502  10.415  0.00  0.00    +0.000 A 
ATOM      6  N   UNL     1      45.801   6.721  10.974  0.00  0.00    +0.000 NA
ENDROOT
BRANCH   1   8
ATOM      7  N   UNL     1      46.723   8.310  13.768  0.00  0.00    +0.000 N 
ATOM      8  C   UNL     1      45.671   8.173  12.904  0.00  0.00    +0.000 C 
ATOM      9  O   UNL     1      44.921   9.104  12.638  0.00  0.00    +0.000 OA
ATOM     10  H   UNL     1      46.904   9.202  14.204  0.00  0.00    +0.000 HD
ATOM     11  H   UNL     1      47.333   7.519  13.937  0.00  0.00    +0.000 HD
ENDBRANCH   1   8
BRANCH   4  12
ATOM     12  O   UNL     1      44.942   3.154  10.541  0.00  0.00    +0.000 OA
BRANCH  12  13
ATOM     13  C   UNL     1      44.447   3.201   9.199  0.00  0.00    +0.000 C 
BRANCH  13  14
ATOM     14  C   UNL     1      45.499   2.688   8.253  0.00  0.00    +0.000 A 
ATOM     15  C   UNL     1      46.000   3.520   7.242  0.00  0.00    +0.000 A 
ATOM     16  C   UNL     1      46.985   3.058   6.372  0.00  0.00    +0.000 A 
ATOM     17  C   UNL     1      47.476   1.760   6.503  0.00  0.00    +0.000 A 
ATOM     18  C   UNL     1      46.982   0.924   7.504  0.00  0.00    +0.000 A 
ATOM     19  C   UNL     1      45.996   1.385   8.376  0.00  0.00    +0.000 A 
ENDBRANCH  13  14
ENDBRANCH  12  13
ENDBRANCH   4  12
TORSDOF 4
ENDMDL
MODEL 5
REMARK VINA RESULT:    -5.486      2.901      7.319
REMARK INTER + INTRA:          -7.247
REMARK INTER:                  -6.902
REMARK INTRA:                  -0.345
REMARK UNBOUND:                -0.478
REMARK  Name = 
REMARK  4 active torsions:
REMARK  status: ('A' for Active; 'I' for Inactive)
REMARK    1  A    between atoms: C_2  and  C_4
REMARK    2  A    between atoms: C_7  and  O_8
REMARK    3  A    between atoms: O_8  and  C_9
REMARK    4  A    between atoms: C_9  and  C_10
REMARK                            x       y       z     vdW  Elec       q    Type
REMARK                         _______ _______ _______ _____ _____    ______ ____
ROOT
ATOM      1  C   UNL     1      45.278   4.189  11.753  0.00  0.00    +0.000 A 
ATOM      2  C   UNL     1      45.630   5.515  11.967  0.00  0.00    +0.000 A 
ATOM      3  C   UNL     1      46.426   5.814  13.072  0.00  0.00    +0.000 A 
ATOM      4  C   UNL     1      46.830   4.789  13.926  0.00  0.00    +0.000 A 
ATOM      5  C   UNL     1      46.459   3.488  13.600  0.00  0.00    +0.000 A 
ATOM      6  N   UNL     1      45.682   3.157  12.547  0.00  0.00    +0.000 NA
ENDROOT
BRANCH   1   8
ATOM      7  N   UNL     1      44.397   2.485  10.284  0.00  0.00    +0.000 N 
ATOM      8  C   UNL     1      44.393   3.814  10.608  0.00  0.00    +0.000 C 
ATOM      9  O   UNL     1      43.703   4.628  10.008  0.00  0.00    +0.000 OA
ATOM     10  H   UNL     1      43.814   2.148   9.532  0.00  0.00    +0.000 HD
ATOM     11  H   UNL     1      44.963   1.843  10.827  0.00  0.00    +0.000 HD
ENDBRANCH   1   8
BRANCH   4  12
ATOM     12  O   UNL     1      47.556   5.157  15.024  0.00  0.00    +0.000 OA
BRANCH  12  13
ATOM     13  C   UNL     1      47.349   4.330  16.173  0.00  0.00    +0.000 C 
BRANCH  13  14
ATOM     14  C   UNL     1      48.678   3.866  16.708  0.00  0.00    +0.000 A 
ATOM     15  C   UNL     1      49.610   4.800  17.181  0.00  0.00    +0.000 A 
ATOM     16  C   UNL     1      50.835   4.377  17.692  0.00  0.00    +0.000 A 
ATOM     17  C   UNL     1      51.140   3.018  17.734  0.00  0.00    +0.000 A 
ATOM     18  C   UNL     1      50.220   2.081  17.264  0.00  0.00    +0.000 A 
ATOM     19  C   UNL     1      48.993   2.503  16.751  0.00  0.00    +0.000 A 
ENDBRANCH  13  14
ENDBRANCH  12  13
ENDBRANCH   4  12
TORSDOF 4
ENDMDL
MODEL 6
REMARK VINA RESULT:    -5.462      2.342      3.338
REMARK INTER + INTRA:          -7.217
REMARK INTER:                  -6.781
REMARK INTRA:                  -0.436
REMARK UNBOUND:                -0.478
REMARK  Name = 
REMARK  4 active torsions:
REMARK  status: ('A' for Active; 'I' for Inactive)
REMARK    1  A    between atoms: C_2  and  C_4
REMARK    2  A    between atoms: C_7  and  O_8
REMARK    3  A    between atoms: O_8  and  C_9
REMARK    4  A    between atoms: C_9  and  C_10
REMARK                            x       y       z     vdW  Elec       q    Type
REMARK                         _______ _______ _______ _____ _____    ______ ____
ROOT
ATOM      1  C   UNL     1      48.462   6.817  13.746  0.00  0.00    +0.000 A 
ATOM      2  C   UNL     1      47.462   5.869  13.914  0.00  0.00    +0.000 A 
ATOM      3  C   UNL     1      46.506   5.735  12.908  0.00  0.00    +0.000 A 
ATOM      4  C   UNL     1      46.575   6.554  11.782  0.00  0.00    +0.000 A 
ATOM      5  C   UNL     1      47.641   7.443  11.689  0.00  0.00    +0.000 A 
ATOM      6  N   UNL     1      48.580   7.611  12.644  0.00  0.00    +0.000 NA
ENDROOT
BRANCH   1   8
ATOM      7  N   UNL     1      50.185   8.208  14.714  0.00  0.00    +0.000 N 
ATOM      8  C   UNL     1      49.489   7.034  14.810  0.00  0.00    +0.000 C 
ATOM      9  O   UNL     1      49.691   6.230  15.711  0.00  0.00    +0.000 OA
ATOM     10  H   UNL     1      50.886   8.437  15.403  0.00  0.00    +0.000 HD
ATOM     11  H   UNL     1      49.964   8.856  13.967  0.00  0.00    +0.000 HD
ENDBRANCH   1   8
BRANCH   4  12
ATOM     12  O   UNL     1      45.573   6.415  10.862  0.00  0.00    +0.000 OA
BRANCH  12  13
ATOM     13  C   UNL     1      44.802   5.218  11.004  0.00  0.00    +0.000 C 
BRANCH  13  14
ATOM     14  C   UNL     1      45.132   4.268   9.884  0.00  0.00    +0.000 A 
ATOM     15  C   UNL     1      45.765   4.741   8.726  0.00  0.00    +0.000 A 
ATOM     16  C   UNL     1      46.088   3.865   7.691  0.00  0.00    +0.000 A 
ATOM     17  C   UNL     1      45.779   2.511   7.804  0.00  0.00    +0.000 A 
ATOM     18  C   UNL     1      45.147   2.032   8.951  0.00  0.00    +0.000 A 
ATOM     19  C   UNL     1      44.822   2.907   9.988  0.00  0.00    +0.000 A 
ENDBRANCH  13  14
ENDBRANCH  12  13
ENDBRANCH   4  12
TORSDOF 4
ENDMDL
MODEL 7
REMARK VINA RESULT:    -5.392      4.112      7.386
REMARK INTER + INTRA:          -7.131
REMARK INTER:                  -6.796
REMARK INTRA:                  -0.335
REMARK UNBOUND:                -0.478
REMARK  Name = 
REMARK  4 active torsions:
REMARK  status: ('A' for Active; 'I' for Inactive)
REMARK    1  A    between atoms: C_2  and  C_4
REMARK    2  A    between atoms: C_7  and  O_8
REMARK    3  A    between atoms: O_8  and  C_9
REMARK    4  A    between atoms: C_9  and  C_10
REMARK                            x       y       z     vdW  Elec       q    Type
REMARK                         _______ _______ _______ _____ _____    ______ ____
ROOT
ATOM      1  C   UNL     1      44.405   5.846  12.186  0.00  0.00    +0.000 A 
ATOM      2  C   UNL     1      44.806   4.584  12.604  0.00  0.00    +0.000 A 
ATOM      3  C   UNL     1      46.044   4.462  13.235  0.00  0.00    +0.000 A 
ATOM      4  C   UNL     1      46.838   5.593  13.414  0.00  0.00    +0.000 A 
ATOM      5  C   UNL     1      46.327   6.819  12.997  0.00  0.00    +0.000 A 
ATOM      6  N   UNL     1      45.140   6.979  12.374  0.00  0.00    +0.000 NA
ENDROOT
BRANCH   1   8
ATOM      7  N   UNL     1      42.845   7.313  11.066  0.00  0.00    +0.000 N 
ATOM      8  C   UNL     1      43.107   6.031  11.468  0.00  0.00    +0.000 C 
ATOM      9  O   UNL     1      42.336   5.107  11.242  0.00  0.00    +0.000 OA
ATOM     10  H   UNL     1      41.995   7.519  10.562  0.00  0.00    +0.000 HD
ATOM     11  H   UNL     1      43.526   8.040  11.252  0.00  0.00    +0.000 HD
ENDBRANCH   1   8
BRANCH   4  12
ATOM     12  O   UNL     1      48.066   5.395  13.982  0.00  0.00    +0.000 OA
BRANCH  12  13
ATOM     13  C   UNL     1      48.236   6.024  15.255  0.00  0.00    +0.000 C 
BRANCH  13  14
ATOM     14  C   UNL     1      48.328   4.975  16.330  0.00  0.00    +0.000 A 
ATOM     15  C   UNL     1      49.457   4.915  17.159  0.00  0.00    +0.000 A 
ATOM     16  C   UNL     1      49.542   3.957  18.167  0.00  0.00    +0.000 A 
ATOM     17  C   UNL     1      48.501   3.050  18.353  0.00  0.00    +0.000 A 
ATOM     18  C   UNL     1      47.375   3.100  17.533  0.00  0.00    +0.000 A 
ATOM     19  C   UNL     1      47.287   4.058  16.523  0.00  0.00    +0.000 A 
ENDBRANCH  13  14
ENDBRANCH  12  13
ENDBRANCH   4  12
TORSDOF 4
ENDMDL
MODEL 8
REMARK VINA RESULT:    -5.181      3.160      7.886
REMARK INTER + INTRA:          -6.870
REMARK INTER:                  -6.556
REMARK INTRA:                  -0.314
REMARK UNBOUND:                -0.478
REMARK  Name = 
REMARK  4 active torsions:
REMARK  status: ('A' for Active; 'I' for Inactive)
REMARK    1  A    between atoms: C_2  and  C_4
REMARK    2  A    between atoms: C_7  and  O_8
REMARK    3  A    between atoms: O_8  and  C_9
REMARK    4  A    between atoms: C_9  and  C_10
REMARK                            x       y       z     vdW  Elec       q    Type
REMARK                         _______ _______ _______ _____ _____    ______ ____
ROOT
ATOM      1  C   UNL     1      44.992   4.286  11.961  0.00  0.00    +0.000 A 
ATOM      2  C   UNL     1      45.345   5.589  12.288  0.00  0.00    +0.000 A 
ATOM      3  C   UNL     1      46.301   5.781  13.284  0.00  0.00    +0.000 A 
ATOM      4  C   UNL     1      46.859   4.676  13.924  0.00  0.00    +0.000 A 
ATOM      5  C   UNL     1      46.470   3.411  13.494  0.00  0.00    +0.000 A 
ATOM      6  N   UNL     1      45.541   3.182  12.541  0.00  0.00    +0.000 NA
ENDROOT
BRANCH   1   8
ATOM      7  N   UNL     1      43.721   5.044  10.051  0.00  0.00    +0.000 N 
ATOM      8  C   UNL     1      43.943   4.019  10.930  0.00  0.00    +0.000 C 
ATOM      9  O   UNL     1      43.331   2.961  10.864  0.00  0.00    +0.000 OA
ATOM     10  H   UNL     1      43.039   4.937   9.314  0.00  0.00    +0.000 HD
ATOM     11  H   UNL     1      44.271   5.891  10.127  0.00  0.00    +0.000 HD
ENDBRANCH   1   8
BRANCH   4  12
ATOM     12  O   UNL     1      47.743   4.935  14.934  0.00  0.00    +0.000 OA
BRANCH  12  13
ATOM     13  C   UNL     1      47.582   4.106  16.088  0.00  0.00    +0.000 C 
BRANCH  13  14
ATOM     14  C   UNL     1      48.263   4.744  17.269  0.00  0.00    +0.000 A 
ATOM     15  C   UNL     1      48.470   4.006  18.444  0.00  0.00    +0.000 A 
ATOM     16  C   UNL     1      49.113   4.585  19.535  0.00  0.00    +0.000 A 
ATOM     17  C   UNL     1      49.554   5.904  19.464  0.00  0.00    +0.000 A 
ATOM     18  C   UNL     1      49.351   6.647  18.301  0.00  0.00    +0.000 A 
ATOM     19  C   UNL     1      48.707   6.070  17.207  0.00  0.00    +0.000 A 
ENDBRANCH  13  14
ENDBRANCH  12  13
ENDBRANCH   4  12
TORSDOF 4
ENDMDL
MODEL 9
REMARK VINA RESULT:    -5.014      3.782      5.722
REMARK INTER + INTRA:          -6.665
REMARK INTER:                  -6.369
REMARK INTRA:                  -0.296
REMARK UNBOUND:                -0.478
REMARK  Name = 
REMARK  4 active torsions:
REMARK  status: ('A' for Active; 'I' for Inactive)
REMARK    1  A    between atoms: C_2  and  C_4
REMARK    2  A    between atoms: C_7  and  O_8
REMARK    3  A    between atoms: O_8  and  C_9
REMARK    4  A    between atoms: C_9  and  C_10
REMARK                            x       y       z     vdW  Elec       q    Type
REMARK                         _______ _______ _______ _____ _____    ______ ____
ROOT
ATOM      1  C   UNL     1      49.832   4.058  17.416  0.00  0.00    +0.000 A 
ATOM      2  C   UNL     1      49.295   5.292  17.073  0.00  0.00    +0.000 A 
ATOM      3  C   UNL     1      48.126   5.313  16.314  0.00  0.00    +0.000 A 
ATOM      4  C   UNL     1      47.543   4.111  15.916  0.00  0.00    +0.000 A 
ATOM      5  C   UNL     1      48.134   2.928  16.348  0.00  0.00    +0.000 A 
ATOM      6  N   UNL     1      49.271   2.863  17.074  0.00  0.00    +0.000 NA
ENDROOT
BRANCH   1   8
ATOM      7  N   UNL     1      51.670   2.728  18.248  0.00  0.00    +0.000 N 
ATOM      8  C   UNL     1      51.106   3.974  18.193  0.00  0.00    +0.000 C 
ATOM      9  O   UNL     1      51.618   4.945  18.735  0.00  0.00    +0.000 OA
ATOM     10  H   UNL     1      52.540   2.590  18.741  0.00  0.00    +0.000 HD
ATOM     11  H   UNL     1      51.224   1.960  17.761  0.00  0.00    +0.000 HD
ENDBRANCH   1   8
BRANCH   4  12
ATOM     12  O   UNL     1      46.434   4.201  15.122  0.00  0.00    +0.000 OA
BRANCH  12  13
ATOM     13  C   UNL     1      46.698   4.072  13.722  0.00  0.00    +0.000 C 
BRANCH  13  14
ATOM     14  C   UNL     1      45.411   4.190  12.951  0.00  0.00    +0.000 A 
ATOM     15  C   UNL     1      45.088   3.239  11.973  0.00  0.00    +0.000 A 
ATOM     16  C   UNL     1      43.890   3.332  11.267  0.00  0.00    +0.000 A 
ATOM     17  C   UNL     1      43.008   4.377  11.529  0.00  0.00    +0.000 A 
ATOM     18  C   UNL     1      43.321   5.330  12.498  0.00  0.00    +0.000 A 
ATOM     19  C   UNL     1      44.519   5.239  13.207  0.00  0.00    +0.000 A 
ENDBRANCH  13  14
ENDBRANCH  12  13
ENDBRANCH   4  12
TORSDOF 4
ENDMDL
