MODEL 1
REMARK VINA RESULT:    -8.240      0.000      0.000
REMARK INTER + INTRA:         -11.480
REMARK INTER:                 -11.131
REMARK INTRA:                  -0.349
REMARK UNBOUND:                -0.349
REMARK  Name = 
REMARK  7 active torsions:
REMARK  status: ('A' for Active; 'I' for Inactive)
REMARK    1  A    between atoms: C_1  and  O_2
REMARK    2  A    between atoms: O_2  and  C_3
REMARK    3  A    between atoms: C_5  and  C_6
REMARK    4  A    between atoms: C_11  and  N_12
REMARK    5  A    between atoms: N_12  and  C_13
REMARK    6  A    between atoms: C_13  and  C_14
REMARK    7  A    between atoms: C_19  and  C_20
REMARK                            x       y       z     vdW  Elec       q    Type
REMARK                         _______ _______ _______ _____ _____    ______ ____
ROOT
ATOM      1  N   UNL     1      43.918   5.577  10.285  0.00  0.00    +0.000 N 
ATOM      2  H   UNL     1      43.023   5.691   9.818  0.00  0.00    +0.000 HD
ENDROOT
BRANCH   1   8
ATOM      3  C   UNL     1      44.264   3.184  10.010  0.00  0.00    +0.000 A 
ATOM      4  C   UNL     1      44.911   2.151   9.327  0.00  0.00    +0.000 A 
ATOM      5  C   UNL     1      45.917   2.439   8.405  0.00  0.00    +0.000 A 
ATOM      6  C   UNL     1      46.232   3.770   8.209  0.00  0.00    +0.000 A 
ATOM      7  N   UNL     1      45.625   4.798   8.848  0.00  0.00    +0.000 NA
ATOM      8  C   UNL     1      44.643   4.516   9.736  0.00  0.00    +0.000 A 
BRANCH   5   9
ATOM      9  C   UNL     1      46.580   1.317   7.694  0.00  0.00    +0.000 C 
ATOM     10  N   UNL     1      47.417   1.586   6.655  0.00  0.00    +0.000 N 
ATOM     11  O   UNL     1      46.384   0.151   8.035  0.00  0.00    +0.000 OA
ATOM     12  H   UNL     1      47.639   2.499   6.285  0.00  0.00    +0.000 HD
ATOM     13  H   UNL     1      47.839   0.786   6.200  0.00  0.00    +0.000 HD
ENDBRANCH   5   9
BRANCH   3  15
ATOM     14  C   UNL     1      43.637   2.232  12.093  0.00  0.00    +0.000 C 
ATOM     15  O   UNL     1      43.263   2.975  10.932  0.00  0.00    +0.000 OA
ENDBRANCH   3  15
ENDBRANCH   1   8
BRANCH   1  16
ATOM     16  C   UNL     1      43.833   5.631  11.739  0.00  0.00    +0.000 C 
BRANCH  16  17
ATOM     17  C   UNL     1      45.222   5.876  12.285  0.00  0.00    +0.000 A 
ATOM     18  C   UNL     1      46.008   6.890  11.722  0.00  0.00    +0.000 A 
ATOM     19  C   UNL     1      47.251   7.188  12.262  0.00  0.00    +0.000 A 
ATOM     20 CL   UNL     1      48.185   8.473  11.599  0.00  0.00    +0.000 Cl
ATOM     21  C   UNL     1      47.741   6.468  13.351  0.00  0.00    +0.000 A 
ATOM     22  C   UNL     1      47.007   5.405  13.910  0.00  0.00    +0.000 A 
ATOM     23  C   UNL     1      45.739   5.128  13.356  0.00  0.00    +0.000 A 
BRANCH  22  24
ATOM     24  C   UNL     1      47.526   4.620  15.052  0.00  0.00    +0.000 A 
ATOM     25  C   UNL     1      47.952   5.208  16.246  0.00  0.00    +0.000 A 
ATOM     26  C   UNL     1      48.410   4.401  17.285  0.00  0.00    +0.000 A 
ATOM     27  C   UNL     1      48.439   3.025  17.113  0.00  0.00    +0.000 A 
ATOM     28  C   UNL     1      48.011   2.513  15.902  0.00  0.00    +0.000 A 
ATOM     29  N   UNL     1      47.563   3.274  14.877  0.00  0.00    +0.000 NA
ENDBRANCH  22  24
ENDBRANCH  16  17
ENDBRANCH   1  16
TORSDOF 6
ENDMDL
MODEL 2
REMARK VINA RESULT:    -7.677      3.329      6.920
REMARK INTER + INTRA:         -10.719
REMARK INTER:                  -9.512
REMARK INTRA:                  -1.207
REMARK UNBOUND:                -0.349
REMARK  Name = 
REMARK  7 active torsions:
REMARK  status: ('A' for Active; 'I' for Inactive)
REMARK    1  A    between atoms: C_1  and  O_2
REMARK    2  A    between atoms: O_2  and  C_3
REMARK    3  A    between atoms: C_5  and  C_6
REMARK    4  A    between atoms: C_11  and  N_12
REMARK    5  A    between atoms: N_12  and  C_13
REMARK    6  A    between atoms: C_13  and  C_14
REMARK    7  A    between atoms: C_19  and  C_20
REMARK                            x       y       z     vdW  Elec       q    Type
REMARK                         _______ _______ _______ _____ _____    ______ ____
ROOT
ATOM      1  N   UNL     1      44.546   6.853  12.481  0.00  0.00    +0.000 N 
ATOM      2  H   UNL     1      43.969   7.505  13.006  0.00  0.00    +0.000 HD
ENDROOT
BRANCH   1   8
ATOM      3  C   UNL     1      46.740   6.190  13.300  0.00  0.00    +0.000 A 
ATOM      4  C   UNL     1      48.116   6.427  13.326  0.00  0.00    +0.000 A 
ATOM      5  C   UNL     1      48.644   7.577  12.738  0.00  0.00    +0.000 A 
ATOM      6  C   UNL     1      47.751   8.448  12.144  0.00  0.00    +0.000 A 
ATOM      7  N   UNL     1      46.412   8.251  12.094  0.00  0.00    +0.000 NA
ATOM      8  C   UNL     1      45.905   7.130  12.658  0.00  0.00    +0.000 A 
BRANCH   5   9
ATOM      9  C   UNL     1      50.111   7.795  12.781  0.00  0.00    +0.000 C 
ATOM     10  N   UNL     1      50.865   7.486  11.690  0.00  0.00    +0.000 N 
ATOM     11  O   UNL     1      50.652   8.254  13.787  0.00  0.00    +0.000 OA
ATOM     12  H   UNL     1      50.529   7.094  10.822  0.00  0.00    +0.000 HD
ATOM     13  H   UNL     1      51.862   7.647  11.773  0.00  0.00    +0.000 HD
ENDBRANCH   5   9
BRANCH   3  15
ATOM     14  C   UNL     1      46.815   3.838  13.612  0.00  0.00    +0.000 C 
ATOM     15  O   UNL     1      46.150   5.078  13.858  0.00  0.00    +0.000 OA
ENDBRANCH   3  15
ENDBRANCH   1   8
BRANCH   1  16
ATOM     16  C   UNL     1      44.093   6.634  11.113  0.00  0.00    +0.000 C 
BRANCH  16  17
ATOM     17  C   UNL     1      44.295   5.175  10.777  0.00  0.00    +0.000 A 
ATOM     18  C   UNL     1      43.691   4.198  11.580  0.00  0.00    +0.000 A 
ATOM     19  C   UNL     1      43.793   2.857  11.241  0.00  0.00    +0.000 A 
ATOM     20 CL   UNL     1      43.001   1.670  12.204  0.00  0.00    +0.000 Cl
ATOM     21  C   UNL     1      44.515   2.465  10.115  0.00  0.00    +0.000 A 
ATOM     22  C   UNL     1      45.183   3.408   9.313  0.00  0.00    +0.000 A 
ATOM     23  C   UNL     1      45.055   4.769   9.667  0.00  0.00    +0.000 A 
BRANCH  22  24
ATOM     24  C   UNL     1      45.970   3.002   8.128  0.00  0.00    +0.000 A 
ATOM     25  C   UNL     1      46.260   3.873   7.075  0.00  0.00    +0.000 A 
ATOM     26  C   UNL     1      47.024   3.424   6.000  0.00  0.00    +0.000 A 
ATOM     27  C   UNL     1      47.479   2.113   5.993  0.00  0.00    +0.000 A 
ATOM     28  C   UNL     1      47.146   1.305   7.064  0.00  0.00    +0.000 A 
ATOM     29  N   UNL     1      46.406   1.716   8.118  0.00  0.00    +0.000 NA
ENDBRANCH  22  24
ENDBRANCH  16  17
ENDBRANCH   1  16
TORSDOF 6
ENDMDL
MODEL 3
REMARK VINA RESULT:    -7.545      2.668      4.397
REMARK INTER + INTRA:         -10.541
REMARK INTER:                  -9.661
REMARK INTRA:                  -0.880
REMARK UNBOUND:                -0.349
REMARK  Name = 
REMARK  7 active torsions:
REMARK  status: ('A' for Active; 'I' for Inactive)
REMARK    1  A    between atoms: C_1  and  O_2
REMARK    2  A    between atoms: O_2  and  C_3
REMARK    3  A    between atoms: C_5  and  C_6
REMARK    4  A    between atoms: C_11  and  N_12
REMARK    5  A    between atoms: N_12  and  C_13
REMARK    6  A    between atoms: C_13  and  C_14
REMARK    7  A    between atoms: C_19  and  C_20
REMARK                            x       y       z     vdW  Elec       q    Type
REMARK                         _______ _______ _______ _____ _____    ______ ____
ROOT
ATOM      1  N   UNL     1      43.656   4.575   9.985  0.00  0.00    +0.000 N 
ATOM      2  H   UNL     1      42.801   4.812   9.490  0.00  0.00    +0.000 HD
ENDROOT
BRANCH   1   8
ATOM      3  C   UNL     1      45.542   4.067   8.534  0.00  0.00    +0.000 A 
ATOM      4  C   UNL     1      46.363   3.096   7.953  0.00  0.00    +0.000 A 
ATOM      5  C   UNL     1      46.056   1.743   8.087  0.00  0.00    +0.000 A 
ATOM      6  C   UNL     1      44.922   1.421   8.808  0.00  0.00    +0.000 A 
ATOM      7  N   UNL     1      44.105   2.332   9.390  0.00  0.00    +0.000 NA
ATOM      8  C   UNL     1      44.412   3.645   9.266  0.00  0.00    +0.000 A 
BRANCH   5   9
ATOM      9  C   UNL     1      46.951   0.739   7.460  0.00  0.00    +0.000 C 
ATOM     10  N   UNL     1      46.726  -0.586   7.678  0.00  0.00    +0.000 N 
ATOM     11  O   UNL     1      47.890   1.090   6.745  0.00  0.00    +0.000 OA
ATOM     12  H   UNL     1      45.998  -0.983   8.254  0.00  0.00    +0.000 HD
ATOM     13  H   UNL     1      47.370  -1.230   7.233  0.00  0.00    +0.000 HD
ENDBRANCH   5   9
BRANCH   3  15
ATOM     14  C   UNL     1      46.802   5.924   9.311  0.00  0.00    +0.000 C 
ATOM     15  O   UNL     1      45.785   5.419   8.444  0.00  0.00    +0.000 OA
ENDBRANCH   3  15
ENDBRANCH   1   8
BRANCH   1  16
ATOM     16  C   UNL     1      43.459   4.305  11.404  0.00  0.00    +0.000 C 
BRANCH  16  17
ATOM     17  C   UNL     1      44.546   5.018  12.175  0.00  0.00    +0.000 A 
ATOM     18  C   UNL     1      45.276   4.311  13.138  0.00  0.00    +0.000 A 
ATOM     19  C   UNL     1      46.334   4.921  13.797  0.00  0.00    +0.000 A 
ATOM     20 CL   UNL     1      47.260   4.025  14.939  0.00  0.00    +0.000 Cl
ATOM     21  C   UNL     1      46.665   6.247  13.527  0.00  0.00    +0.000 A 
ATOM     22  C   UNL     1      45.923   7.011  12.606  0.00  0.00    +0.000 A 
ATOM     23  C   UNL     1      44.860   6.367  11.937  0.00  0.00    +0.000 A 
BRANCH  22  24
ATOM     24  C   UNL     1      46.252   8.425  12.326  0.00  0.00    +0.000 A 
ATOM     25  C   UNL     1      47.564   8.898  12.249  0.00  0.00    +0.000 A 
ATOM     26  C   UNL     1      47.796  10.241  11.962  0.00  0.00    +0.000 A 
ATOM     27  C   UNL     1      46.716  11.089  11.762  0.00  0.00    +0.000 A 
ATOM     28  C   UNL     1      45.445  10.554  11.864  0.00  0.00    +0.000 A 
ATOM     29  N   UNL     1      45.192   9.255  12.142  0.00  0.00    +0.000 NA
ENDBRANCH  22  24
ENDBRANCH  16  17
ENDBRANCH   1  16
TORSDOF 6
ENDMDL
MODEL 4
REMARK VINA RESULT:    -7.544      3.156      7.366
REMARK INTER + INTRA:         -10.539
REMARK INTER:                  -9.885
REMARK INTRA:                  -0.654
REMARK UNBOUND:                -0.349
REMARK  Name = 
REMARK  7 active torsions:
REMARK  status: ('A' for Active; 'I' for Inactive)
REMARK    1  A    between atoms: C_1  and  O_2
REMARK    2  A    between atoms: O_2  and  C_3
REMARK    3  A    between atoms: C_5  and  C_6
REMARK    4  A    between atoms: C_11  and  N_12
REMARK    5  A    between atoms: N_12  and  C_13
REMARK    6  A    between atoms: C_13  and  C_14
REMARK    7  A    between atoms: C_19  and  C_20
REMARK                            x       y       z     vdW  Elec       q    Type
REMARK                         _______ _______ _______ _____ _____    ______ ____
ROOT
ATOM      1  N   UNL     1      47.982   6.741  12.531  0.00  0.00    +0.000 N 
ATOM      2  H   UNL     1      48.391   6.200  11.774  0.00  0.00    +0.000 HD
ENDROOT
BRANCH   1   8
ATOM      3  C   UNL     1      48.397   6.544  14.921  0.00  0.00    +0.000 A 
ATOM      4  C   UNL     1      48.187   5.834  16.105  0.00  0.00    +0.000 A 
ATOM      5  C   UNL     1      47.535   4.601  16.081  0.00  0.00    +0.000 A 
ATOM      6  C   UNL     1      47.119   4.131  14.850  0.00  0.00    +0.000 A 
ATOM      7  N   UNL     1      47.300   4.792  13.682  0.00  0.00    +0.000 NA
ATOM      8  C   UNL     1      47.924   5.993  13.710  0.00  0.00    +0.000 A 
BRANCH   5   9
ATOM      9  C   UNL     1      47.326   3.876  17.359  0.00  0.00    +0.000 C 
ATOM     10  N   UNL     1      48.040   4.240  18.459  0.00  0.00    +0.000 N 
ATOM     11  O   UNL     1      46.514   2.953  17.435  0.00  0.00    +0.000 OA
ATOM     12  H   UNL     1      48.737   4.969  18.506  0.00  0.00    +0.000 HD
ATOM     13  H   UNL     1      47.865   3.709  19.304  0.00  0.00    +0.000 HD
ENDBRANCH   5   9
BRANCH   3  15
ATOM     14  C   UNL     1      48.289   8.868  15.394  0.00  0.00    +0.000 C 
ATOM     15  O   UNL     1      49.030   7.765  14.870  0.00  0.00    +0.000 OA
ENDBRANCH   3  15
ENDBRANCH   1   8
BRANCH   1  16
ATOM     16  C   UNL     1      46.774   7.463  12.151  0.00  0.00    +0.000 C 
BRANCH  16  17
ATOM     17  C   UNL     1      45.817   6.480  11.516  0.00  0.00    +0.000 A 
ATOM     18  C   UNL     1      44.481   6.456  11.938  0.00  0.00    +0.000 A 
ATOM     19  C   UNL     1      43.567   5.623  11.310  0.00  0.00    +0.000 A 
ATOM     20 CL   UNL     1      41.917   5.642  11.800  0.00  0.00    +0.000 Cl
ATOM     21  C   UNL     1      43.971   4.785  10.272  0.00  0.00    +0.000 A 
ATOM     22  C   UNL     1      45.313   4.738   9.854  0.00  0.00    +0.000 A 
ATOM     23  C   UNL     1      46.225   5.604  10.496  0.00  0.00    +0.000 A 
BRANCH  22  24
ATOM     24  C   UNL     1      45.757   3.837   8.767  0.00  0.00    +0.000 A 
ATOM     25  C   UNL     1      45.677   2.446   8.854  0.00  0.00    +0.000 A 
ATOM     26  C   UNL     1      46.097   1.663   7.781  0.00  0.00    +0.000 A 
ATOM     27  C   UNL     1      46.595   2.283   6.643  0.00  0.00    +0.000 A 
ATOM     28  C   UNL     1      46.655   3.664   6.631  0.00  0.00    +0.000 A 
ATOM     29  N   UNL     1      46.254   4.447   7.659  0.00  0.00    +0.000 NA
ENDBRANCH  22  24
ENDBRANCH  16  17
ENDBRANCH   1  16
TORSDOF 6
ENDMDL
MODEL 5
REMARK VINA RESULT:    -7.214      2.372      3.895
REMARK INTER + INTRA:         -10.093
REMARK INTER:                  -9.961
REMARK INTRA:                  -0.132
REMARK UNBOUND:                -0.349
REMARK  Name = 
REMARK  7 active torsions:
REMARK  status: ('A' for Active; 'I' for Inactive)
REMARK    1  A    between atoms: C_1  and  O_2
REMARK    2  A    between atoms: O_2  and  C_3
REMARK    3  A    between atoms: C_5  and  C_6
REMARK    4  A    between atoms: C_11  and  N_12
REMARK    5  A    between atoms: N_12  and  C_13
REMARK    6  A    between atoms: C_13  and  C_14
REMARK    7  A    between atoms: C_19  and  C_20
REMARK                            x       y       z     vdW  Elec       q    Type
REMARK                         _______ _______ _______ _____ _____    ______ ____
ROOT
ATOM      1  N   UNL     1      43.628   5.267  10.736  0.00  0.00    +0.000 N 
ATOM      2  H   UNL     1      43.338   4.751  11.562  0.00  0.00    +0.000 HD
ENDROOT
BRANCH   1   8
ATOM      3  C   UNL     1      44.289   3.086   9.882  0.00  0.00    +0.000 A 
ATOM      4  C   UNL     1      45.021   2.353   8.944  0.00  0.00    +0.000 A 
ATOM      5  C   UNL     1      45.901   2.999   8.077  0.00  0.00    +0.000 A 
ATOM      6  C   UNL     1      46.008   4.372   8.193  0.00  0.00    +0.000 A 
ATOM      7  N   UNL     1      45.312   5.117   9.084  0.00  0.00    +0.000 NA
ATOM      8  C   UNL     1      44.451   4.488   9.918  0.00  0.00    +0.000 A 
BRANCH   5   9
ATOM      9  C   UNL     1      46.660   2.189   7.092  0.00  0.00    +0.000 C 
ATOM     10  N   UNL     1      46.772   2.630   5.809  0.00  0.00    +0.000 N 
ATOM     11  O   UNL     1      47.190   1.128   7.421  0.00  0.00    +0.000 OA
ATOM     12  H   UNL     1      46.368   3.474   5.428  0.00  0.00    +0.000 HD
ATOM     13  H   UNL     1      47.294   2.038   5.174  0.00  0.00    +0.000 HD
ENDBRANCH   5   9
BRANCH   3  15
ATOM     14  C   UNL     1      43.795   2.542  12.139  0.00  0.00    +0.000 C 
ATOM     15  O   UNL     1      43.402   2.516  10.767  0.00  0.00    +0.000 OA
ENDBRANCH   3  15
ENDBRANCH   1   8
BRANCH   1  16
ATOM     16  C   UNL     1      44.078   6.625  11.018  0.00  0.00    +0.000 C 
BRANCH  16  17
ATOM     17  C   UNL     1      45.361   6.541  11.812  0.00  0.00    +0.000 A 
ATOM     18  C   UNL     1      45.457   5.618  12.861  0.00  0.00    +0.000 A 
ATOM     19  C   UNL     1      46.653   5.465  13.548  0.00  0.00    +0.000 A 
ATOM     20 CL   UNL     1      46.776   4.289  14.798  0.00  0.00    +0.000 Cl
ATOM     21  C   UNL     1      47.761   6.244  13.219  0.00  0.00    +0.000 A 
ATOM     22  C   UNL     1      47.692   7.222  12.209  0.00  0.00    +0.000 A 
ATOM     23  C   UNL     1      46.470   7.351  11.513  0.00  0.00    +0.000 A 
BRANCH  22  24
ATOM     24  C   UNL     1      48.855   8.068  11.866  0.00  0.00    +0.000 A 
ATOM     25  C   UNL     1      50.143   7.555  11.697  0.00  0.00    +0.000 A 
ATOM     26  C   UNL     1      51.187   8.412  11.355  0.00  0.00    +0.000 A 
ATOM     27  C   UNL     1      50.927   9.766  11.192  0.00  0.00    +0.000 A 
ATOM     28  C   UNL     1      49.630  10.205  11.385  0.00  0.00    +0.000 A 
ATOM     29  N   UNL     1      48.600   9.394  11.718  0.00  0.00    +0.000 NA
ENDBRANCH  22  24
ENDBRANCH  16  17
ENDBRANCH   1  16
TORSDOF 6
ENDMDL
MODEL 6
REMARK VINA RESULT:    -7.018      3.713      7.762
REMARK INTER + INTRA:          -9.830
REMARK INTER:                  -9.147
REMARK INTRA:                  -0.682
REMARK UNBOUND:                -0.349
REMARK  Name = 
REMARK  7 active torsions:
REMARK  status: ('A' for Active; 'I' for Inactive)
REMARK    1  A    between atoms: C_1  and  O_2
REMARK    2  A    between atoms: O_2  and  C_3
REMARK    3  A    between atoms: C_5  and  C_6
REMARK    4  A    between atoms: C_11  and  N_12
REMARK    5  A    between atoms: N_12  and  C_13
REMARK    6  A    between atoms: C_13  and  C_14
REMARK    7  A    between atoms: C_19  and  C_20
REMARK                            x       y       z     vdW  Elec       q    Type
REMARK                         _______ _______ _______ _____ _____    ______ ____
ROOT
ATOM      1  N   UNL     1      48.038   6.713  15.272  0.00  0.00    +0.000 N 
ATOM      2  H   UNL     1      47.492   7.412  15.768  0.00  0.00    +0.000 HD
ENDROOT
BRANCH   1   8
ATOM      3  C   UNL     1      48.708   5.088  16.954  0.00  0.00    +0.000 A 
ATOM      4  C   UNL     1      49.745   4.464  17.653  0.00  0.00    +0.000 A 
ATOM      5  C   UNL     1      51.058   4.911  17.510  0.00  0.00    +0.000 A 
ATOM      6  C   UNL     1      51.272   5.981  16.662  0.00  0.00    +0.000 A 
ATOM      7  N   UNL     1      50.295   6.607  15.965  0.00  0.00    +0.000 NA
ATOM      8  C   UNL     1      49.023   6.165  16.098  0.00  0.00    +0.000 A 
BRANCH   5   9
ATOM      9  C   UNL     1      52.135   4.223  18.264  0.00  0.00    +0.000 C 
ATOM     10  N   UNL     1      52.033   2.888  18.508  0.00  0.00    +0.000 N 
ATOM     11  O   UNL     1      53.119   4.844  18.667  0.00  0.00    +0.000 OA
ATOM     12  H   UNL     1      51.268   2.286  18.237  0.00  0.00    +0.000 HD
ATOM     13  H   UNL     1      52.791   2.467  19.032  0.00  0.00    +0.000 HD
ENDBRANCH   5   9
BRANCH   3  15
ATOM     14  C   UNL     1      47.172   3.313  17.313  0.00  0.00    +0.000 C 
ATOM     15  O   UNL     1      47.390   4.699  17.045  0.00  0.00    +0.000 OA
ENDBRANCH   3  15
ENDBRANCH   1   8
BRANCH   1  16
ATOM     16  C   UNL     1      48.455   7.130  13.939  0.00  0.00    +0.000 C 
BRANCH  16  17
ATOM     17  C   UNL     1      47.226   7.211  13.063  0.00  0.00    +0.000 A 
ATOM     18  C   UNL     1      46.474   8.393  13.050  0.00  0.00    +0.000 A 
ATOM     19  C   UNL     1      45.392   8.520  12.190  0.00  0.00    +0.000 A 
ATOM     20 CL   UNL     1      44.508   9.996  12.142  0.00  0.00    +0.000 Cl
ATOM     21  C   UNL     1      45.027   7.468  11.352  0.00  0.00    +0.000 A 
ATOM     22  C   UNL     1      45.722   6.244  11.374  0.00  0.00    +0.000 A 
ATOM     23  C   UNL     1      46.828   6.141  12.244  0.00  0.00    +0.000 A 
BRANCH  22  24
ATOM     24  C   UNL     1      45.332   5.113  10.503  0.00  0.00    +0.000 A 
ATOM     25  C   UNL     1      45.675   5.043   9.151  0.00  0.00    +0.000 A 
ATOM     26  C   UNL     1      45.288   3.936   8.399  0.00  0.00    +0.000 A 
ATOM     27  C   UNL     1      44.561   2.923   9.008  0.00  0.00    +0.000 A 
ATOM     28  C   UNL     1      44.248   3.064  10.347  0.00  0.00    +0.000 A 
ATOM     29  N   UNL     1      44.611   4.128  11.099  0.00  0.00    +0.000 NA
ENDBRANCH  22  24
ENDBRANCH  16  17
ENDBRANCH   1  16
TORSDOF 6
ENDMDL
MODEL 7
REMARK VINA RESULT:    -6.971      3.198      7.483
REMARK INTER + INTRA:          -9.765
REMARK INTER:                  -9.309
REMARK INTRA:                  -0.456
REMARK UNBOUND:                -0.349
REMARK  Name = 
REMARK  7 active torsions:
REMARK  status: ('A' for Active; 'I' for Inactive)
REMARK    1  A    between atoms: C_1  and  O_2
REMARK    2  A    between atoms: O_2  and  C_3
REMARK    3  A    between atoms: C_5  and  C_6
REMARK    4  A    between atoms: C_11  and  N_12
REMARK    5  A    between atoms: N_12  and  C_13
REMARK    6  A    between atoms: C_13  and  C_14
REMARK    7  A    between atoms: C_19  and  C_20
REMARK                            x       y       z     vdW  Elec       q    Type
REMARK                         _______ _______ _______ _____ _____    ______ ____
ROOT
ATOM      1  N   UNL     1      48.749   7.696  14.563  0.00  0.00    +0.000 N 
ATOM      2  H   UNL     1      49.450   8.324  14.948  0.00  0.00    +0.000 HD
ENDROOT
BRANCH   1   8
ATOM      3  C   UNL     1      48.957   6.627  16.739  0.00  0.00    +0.000 A 
ATOM      4  C   UNL     1      48.627   5.551  17.567  0.00  0.00    +0.000 A 
ATOM      5  C   UNL     1      47.943   4.450  17.051  0.00  0.00    +0.000 A 
ATOM      6  C   UNL     1      47.618   4.481  15.709  0.00  0.00    +0.000 A 
ATOM      7  N   UNL     1      47.915   5.507  14.877  0.00  0.00    +0.000 NA
ATOM      8  C   UNL     1      48.571   6.578  15.382  0.00  0.00    +0.000 A 
BRANCH   5   9
ATOM      9  C   UNL     1      47.605   3.326  17.960  0.00  0.00    +0.000 C 
ATOM     10  N   UNL     1      48.302   3.171  19.119  0.00  0.00    +0.000 N 
ATOM     11  O   UNL     1      46.703   2.537  17.679  0.00  0.00    +0.000 OA
ATOM     12  H   UNL     1      49.066   3.749  19.441  0.00  0.00    +0.000 HD
ATOM     13  H   UNL     1      48.037   2.385  19.701  0.00  0.00    +0.000 HD
ENDBRANCH   5   9
BRANCH   3  15
ATOM     14  C   UNL     1      49.404   8.103  18.544  0.00  0.00    +0.000 C 
ATOM     15  O   UNL     1      49.628   7.745  17.179  0.00  0.00    +0.000 OA
ENDBRANCH   3  15
ENDBRANCH   1   8
BRANCH   1  16
ATOM     16  C   UNL     1      48.903   7.446  13.135  0.00  0.00    +0.000 C 
BRANCH  16  17
ATOM     17  C   UNL     1      47.528   7.427  12.508  0.00  0.00    +0.000 A 
ATOM     18  C   UNL     1      46.698   8.547  12.648  0.00  0.00    +0.000 A 
ATOM     19  C   UNL     1      45.466   8.585  12.009  0.00  0.00    +0.000 A 
ATOM     20 CL   UNL     1      44.478   9.988  12.142  0.00  0.00    +0.000 Cl
ATOM     21  C   UNL     1      45.032   7.503  11.245  0.00  0.00    +0.000 A 
ATOM     22  C   UNL     1      45.811   6.337  11.124  0.00  0.00    +0.000 A 
ATOM     23  C   UNL     1      47.067   6.325  11.769  0.00  0.00    +0.000 A 
BRANCH  22  24
ATOM     24  C   UNL     1      45.352   5.175  10.332  0.00  0.00    +0.000 A 
ATOM     25  C   UNL     1      45.680   4.996   8.987  0.00  0.00    +0.000 A 
ATOM     26  C   UNL     1      45.226   3.865   8.312  0.00  0.00    +0.000 A 
ATOM     27  C   UNL     1      44.450   2.936   8.990  0.00  0.00    +0.000 A 
ATOM     28  C   UNL     1      44.156   3.183  10.318  0.00  0.00    +0.000 A 
ATOM     29  N   UNL     1      44.583   4.273  10.996  0.00  0.00    +0.000 NA
ENDBRANCH  22  24
ENDBRANCH  16  17
ENDBRANCH   1  16
TORSDOF 6
ENDMDL
MODEL 8
REMARK VINA RESULT:    -6.931      3.352      5.492
REMARK INTER + INTRA:          -9.711
REMARK INTER:                  -9.047
REMARK INTRA:                  -0.664
REMARK UNBOUND:                -0.349
REMARK  Name = 
REMARK  7 active torsions:
REMARK  status: ('A' for Active; 'I' for Inactive)
REMARK    1  A    between atoms: C_1  and  O_2
REMARK    2  A    between atoms: O_2  and  C_3
REMARK    3  A    between atoms: C_5  and  C_6
REMARK    4  A    between atoms: C_11  and  N_12
REMARK    5  A    between atoms: N_12  and  C_13
REMARK    6  A    between atoms: C_13  and  C_14
REMARK    7  A    between atoms: C_19  and  C_20
REMARK                            x       y       z     vdW  Elec       q    Type
REMARK                         _______ _______ _______ _____ _____    ______ ____
ROOT
ATOM      1  N   UNL     1      47.106   5.155  15.000  0.00  0.00    +0.000 N 
ATOM      2  H   UNL     1      46.891   6.080  15.363  0.00  0.00    +0.000 HD
ENDROOT
BRANCH   1   8
ATOM      3  C   UNL     1      46.130   5.902  12.901  0.00  0.00    +0.000 A 
ATOM      4  C   UNL     1      45.519   5.563  11.690  0.00  0.00    +0.000 A 
ATOM      5  C   UNL     1      45.142   4.244  11.438  0.00  0.00    +0.000 A 
ATOM      6  C   UNL     1      45.398   3.314  12.427  0.00  0.00    +0.000 A 
ATOM      7  N   UNL     1      45.992   3.603  13.609  0.00  0.00    +0.000 NA
ATOM      8  C   UNL     1      46.365   4.882  13.847  0.00  0.00    +0.000 A 
BRANCH   5   9
ATOM      9  C   UNL     1      44.499   3.918  10.140  0.00  0.00    +0.000 C 
ATOM     10  N   UNL     1      44.719   4.723   9.065  0.00  0.00    +0.000 N 
ATOM     11  O   UNL     1      43.774   2.930  10.026  0.00  0.00    +0.000 OA
ATOM     12  H   UNL     1      45.282   5.561   9.049  0.00  0.00    +0.000 HD
ATOM     13  H   UNL     1      44.252   4.461   8.205  0.00  0.00    +0.000 HD
ENDBRANCH   5   9
BRANCH   3  15
ATOM     14  C   UNL     1      45.607   8.218  12.879  0.00  0.00    +0.000 C 
ATOM     15  O   UNL     1      46.530   7.181  13.216  0.00  0.00    +0.000 OA
ENDBRANCH   3  15
ENDBRANCH   1   8
BRANCH   1  16
ATOM     16  C   UNL     1      47.139   4.115  16.021  0.00  0.00    +0.000 C 
BRANCH  16  17
ATOM     17  C   UNL     1      48.301   4.398  16.946  0.00  0.00    +0.000 A 
ATOM     18  C   UNL     1      48.238   5.504  17.803  0.00  0.00    +0.000 A 
ATOM     19  C   UNL     1      49.255   5.734  18.720  0.00  0.00    +0.000 A 
ATOM     20 CL   UNL     1      49.141   7.064  19.806  0.00  0.00    +0.000 Cl
ATOM     21  C   UNL     1      50.358   4.884  18.780  0.00  0.00    +0.000 A 
ATOM     22  C   UNL     1      50.487   3.794  17.899  0.00  0.00    +0.000 A 
ATOM     23  C   UNL     1      49.435   3.569  16.985  0.00  0.00    +0.000 A 
BRANCH  22  24
ATOM     24  C   UNL     1      51.663   2.897  17.940  0.00  0.00    +0.000 A 
ATOM     25  C   UNL     1      52.902   3.294  18.447  0.00  0.00    +0.000 A 
ATOM     26  C   UNL     1      53.959   2.387  18.470  0.00  0.00    +0.000 A 
ATOM     27  C   UNL     1      53.761   1.102  17.983  0.00  0.00    +0.000 A 
ATOM     28  C   UNL     1      52.511   0.782  17.488  0.00  0.00    +0.000 A 
ATOM     29  N   UNL     1      51.469   1.644  17.453  0.00  0.00    +0.000 NA
ENDBRANCH  22  24
ENDBRANCH  16  17
ENDBRANCH   1  16
TORSDOF 6
ENDMDL
MODEL 9
REMARK VINA RESULT:    -6.675      4.058      5.931
REMARK INTER + INTRA:          -9.366
REMARK INTER:                  -8.385
REMARK INTRA:                  -0.982
REMARK UNBOUND:                -0.349
REMARK  Name = 
REMARK  7 active torsions:
REMARK  status: ('A' for Active; 'I' for Inactive)
REMARK    1  A    between atoms: C_1  and  O_2
REMARK    2  A    between atoms: O_2  and  C_3
REMARK    3  A    between atoms: C_5  and  C_6
REMARK    4  A    between atoms: C_11  and  N_12
REMARK    5  A    between atoms: N_12  and  C_13
REMARK    6  A    between atoms: C_13  and  C_14
REMARK    7  A    between atoms: C_19  and  C_20
REMARK                            x       y       z     vdW  Elec       q    Type
REMARK                         _______ _______ _______ _____ _____    ______ ____
ROOT
ATOM      1  N   UNL     1      48.671   6.649  14.204  0.00  0.00    +0.000 N 
ATOM      2  H   UNL     1      49.356   6.831  13.476  0.00  0.00    +0.000 HD
ENDROOT
BRANCH   1   8
ATOM      3  C   UNL     1      46.820   5.130  13.770  0.00  0.00    +0.000 A 
ATOM      4  C   UNL     1      45.498   4.962  13.351  0.00  0.00    +0.000 A 
ATOM      5  C   UNL     1      44.786   6.038  12.821  0.00  0.00    +0.000 A 
ATOM      6  C   UNL     1      45.444   7.250  12.735  0.00  0.00    +0.000 A 
ATOM      7  N   UNL     1      46.722   7.453  13.136  0.00  0.00    +0.000 NA
ATOM      8  C   UNL     1      47.407   6.409  13.658  0.00  0.00    +0.000 A 
BRANCH   5   9
ATOM      9  C   UNL     1      43.382   5.825  12.389  0.00  0.00    +0.000 C 
ATOM     10  N   UNL     1      42.924   6.454  11.272  0.00  0.00    +0.000 N 
ATOM     11  O   UNL     1      42.631   5.085  13.025  0.00  0.00    +0.000 OA
ATOM     12  H   UNL     1      43.446   7.089  10.686  0.00  0.00    +0.000 HD
ATOM     13  H   UNL     1      41.957   6.281  11.024  0.00  0.00    +0.000 HD
ENDBRANCH   5   9
BRANCH   3  15
ATOM     14  C   UNL     1      47.235   3.712  15.629  0.00  0.00    +0.000 C 
ATOM     15  O   UNL     1      47.582   4.115  14.304  0.00  0.00    +0.000 OA
ENDBRANCH   3  15
ENDBRANCH   1   8
BRANCH   1  16
ATOM     16  C   UNL     1      48.737   7.584  15.321  0.00  0.00    +0.000 C 
BRANCH  16  17
ATOM     17  C   UNL     1      49.001   6.794  16.582  0.00  0.00    +0.000 A 
ATOM     18  C   UNL     1      48.362   7.170  17.771  0.00  0.00    +0.000 A 
ATOM     19  C   UNL     1      48.524   6.409  18.920  0.00  0.00    +0.000 A 
ATOM     20 CL   UNL     1      47.690   6.849  20.360  0.00  0.00    +0.000 Cl
ATOM     21  C   UNL     1      49.341   5.280  18.911  0.00  0.00    +0.000 A 
ATOM     22  C   UNL     1      50.045   4.899  17.753  0.00  0.00    +0.000 A 
ATOM     23  C   UNL     1      49.855   5.678  16.592  0.00  0.00    +0.000 A 
BRANCH  22  24
ATOM     24  C   UNL     1      50.931   3.714  17.738  0.00  0.00    +0.000 A 
ATOM     25  C   UNL     1      50.494   2.445  17.352  0.00  0.00    +0.000 A 
ATOM     26  C   UNL     1      51.393   1.380  17.345  0.00  0.00    +0.000 A 
ATOM     27  C   UNL     1      52.708   1.600  17.727  0.00  0.00    +0.000 A 
ATOM     28  C   UNL     1      53.068   2.881  18.105  0.00  0.00    +0.000 A 
ATOM     29  N   UNL     1      52.216   3.930  18.122  0.00  0.00    +0.000 NA
ENDBRANCH  22  24
ENDBRANCH  16  17
ENDBRANCH   1  16
TORSDOF 6
ENDMDL
