MODEL 1
REMARK VINA RESULT:    -8.841      0.000      0.000
REMARK INTER + INTRA:         -13.306
REMARK INTER:                 -11.942
REMARK INTRA:                  -1.364
REMARK UNBOUND:                -1.364
REMARK  Name = 
REMARK  6 active torsions:
REMARK  status: ('A' for Active; 'I' for Inactive)
REMARK    1  A    between atoms: C_2  and  C_3
REMARK    2  A    between atoms: C_6  and  N_7
REMARK    3  A    between atoms: N_7  and  C_8
REMARK    4  A    between atoms: C_8  and  C_9
REMARK    5  A    between atoms: C_14  and  C_15
REMARK    6  A    between atoms: C_19  and  C_20
REMARK                            x       y       z     vdW  Elec       q    Type
REMARK                         _______ _______ _______ _____ _____    ______ ____
ROOT
ATOM      1  C   UNL     1      45.072   5.322  12.106  0.00  0.00    +0.000 A 
ATOM      2  C   UNL     1      45.504   4.366  13.037  0.00  0.00    +0.000 A 
ATOM      3  C   UNL     1      46.764   4.447  13.605  0.00  0.00    +0.000 A 
ATOM      4  F   UNL     1      47.176   3.476  14.432  0.00  0.00    +0.000 F 
ATOM      5  C   UNL     1      47.621   5.492  13.298  0.00  0.00    +0.000 A 
ATOM      6  C   UNL     1      47.210   6.516  12.435  0.00  0.00    +0.000 A 
ATOM      7  C   UNL     1      45.924   6.416  11.863  0.00  0.00    +0.000 A 
ENDROOT
BRANCH   6   8
ATOM      8  C   UNL     1      48.102   7.643  12.112  0.00  0.00    +0.000 A 
ATOM      9  C   UNL     1      47.670   8.972  12.161  0.00  0.00    +0.000 A 
ATOM     10  N   UNL     1      48.432  10.047  11.849  0.00  0.00    +0.000 NA
ATOM     11  C   UNL     1      49.709   9.798  11.476  0.00  0.00    +0.000 A 
ATOM     12  C   UNL     1      50.264   8.530  11.405  0.00  0.00    +0.000 A 
ATOM     13  C   UNL     1      49.439   7.448  11.733  0.00  0.00    +0.000 A 
BRANCH  12  14
ATOM     14  C   UNL     1      51.671   8.265  11.019  0.00  0.00    +0.000 C 
ATOM     15  N   UNL     1      52.028   7.006  10.628  0.00  0.00    +0.000 N 
ATOM     16  O   UNL     1      52.510   9.158  11.047  0.00  0.00    +0.000 OA
ATOM     17  H   UNL     1      51.427   6.198  10.602  0.00  0.00    +0.000 HD
ATOM     18  H   UNL     1      53.002   6.869  10.389  0.00  0.00    +0.000 HD
ENDBRANCH  12  14
ENDBRANCH   6   8
BRANCH   1  19
ATOM     19  C   UNL     1      43.800   5.090  11.299  0.00  0.00    +0.000 C 
ATOM     20  C   UNL     1      42.433   5.341  11.935  0.00  0.00    +0.000 C 
ATOM     21  C   UNL     1      43.018   6.364  11.027  0.00  0.00    +0.000 C 
BRANCH  19  22
ATOM     22  N   UNL     1      43.808   3.895  10.449  0.00  0.00    +0.000 N 
ATOM     23  H   UNL     1      43.268   3.107  10.795  0.00  0.00    +0.000 HD
BRANCH  22  27
ATOM     24  C   UNL     1      46.598   2.563   7.564  0.00  0.00    +0.000 A 
ATOM     25  C   UNL     1      46.319   3.928   7.668  0.00  0.00    +0.000 A 
ATOM     26  C   UNL     1      45.395   4.394   8.615  0.00  0.00    +0.000 A 
ATOM     27  C   UNL     1      44.779   3.516   9.505  0.00  0.00    +0.000 A 
ATOM     28  C   UNL     1      45.055   2.145   9.376  0.00  0.00    +0.000 A 
ATOM     29  C   UNL     1      45.953   1.669   8.414  0.00  0.00    +0.000 A 
BRANCH  24  31
ATOM     30  N   UNL     1      48.271   1.714   5.775  0.00  0.00    +0.000 NA
ATOM     31  C   UNL     1      47.518   2.089   6.576  0.00  0.00    +0.000 C 
ENDBRANCH  24  31
ENDBRANCH  22  27
ENDBRANCH  19  22
ENDBRANCH   1  19
TORSDOF 6
ENDMDL
MODEL 2
REMARK VINA RESULT:    -8.743      3.428      4.795
REMARK INTER + INTRA:         -13.173
REMARK INTER:                 -12.068
REMARK INTRA:                  -1.105
REMARK UNBOUND:                -1.364
REMARK  Name = 
REMARK  6 active torsions:
REMARK  status: ('A' for Active; 'I' for Inactive)
REMARK    1  A    between atoms: C_2  and  C_3
REMARK    2  A    between atoms: C_6  and  N_7
REMARK    3  A    between atoms: N_7  and  C_8
REMARK    4  A    between atoms: C_8  and  C_9
REMARK    5  A    between atoms: C_14  and  C_15
REMARK    6  A    between atoms: C_19  and  C_20
REMARK                            x       y       z     vdW  Elec       q    Type
REMARK                         _______ _______ _______ _____ _____    ______ ____
ROOT
ATOM      1  C   UNL     1      45.228   5.372  11.880  0.00  0.00    +0.000 A 
ATOM      2  C   UNL     1      45.980   6.451  11.390  0.00  0.00    +0.000 A 
ATOM      3  C   UNL     1      47.107   6.893  12.061  0.00  0.00    +0.000 A 
ATOM      4  F   UNL     1      47.758   7.974  11.611  0.00  0.00    +0.000 F 
ATOM      5  C   UNL     1      47.546   6.262  13.214  0.00  0.00    +0.000 A 
ATOM      6  C   UNL     1      46.878   5.131  13.703  0.00  0.00    +0.000 A 
ATOM      7  C   UNL     1      45.729   4.696  13.008  0.00  0.00    +0.000 A 
ENDROOT
BRANCH   6   8
ATOM      8  C   UNL     1      47.342   4.438  14.917  0.00  0.00    +0.000 A 
ATOM      9  C   UNL     1      47.834   3.130  14.885  0.00  0.00    +0.000 A 
ATOM     10  N   UNL     1      48.247   2.430  15.968  0.00  0.00    +0.000 NA
ATOM     11  C   UNL     1      48.185   3.066  17.162  0.00  0.00    +0.000 A 
ATOM     12  C   UNL     1      47.734   4.367  17.326  0.00  0.00    +0.000 A 
ATOM     13  C   UNL     1      47.314   5.051  16.178  0.00  0.00    +0.000 A 
BRANCH  12  14
ATOM     14  C   UNL     1      47.690   5.067  18.632  0.00  0.00    +0.000 C 
ATOM     15  N   UNL     1      46.529   5.665  19.028  0.00  0.00    +0.000 N 
ATOM     16  O   UNL     1      48.680   5.113  19.355  0.00  0.00    +0.000 OA
ATOM     17  H   UNL     1      45.673   5.714  18.497  0.00  0.00    +0.000 HD
ATOM     18  H   UNL     1      46.551   6.144  19.920  0.00  0.00    +0.000 HD
ENDBRANCH  12  14
ENDBRANCH   6   8
BRANCH   1  19
ATOM     19  C   UNL     1      43.860   5.056  11.286  0.00  0.00    +0.000 C 
ATOM     20  C   UNL     1      42.605   5.166  12.150  0.00  0.00    +0.000 C 
ATOM     21  C   UNL     1      42.943   6.265  11.205  0.00  0.00    +0.000 C 
BRANCH  19  22
ATOM     22  N   UNL     1      43.821   3.894  10.392  0.00  0.00    +0.000 N 
ATOM     23  H   UNL     1      43.234   3.123  10.700  0.00  0.00    +0.000 HD
BRANCH  22  27
ATOM     24  C   UNL     1      46.600   2.508   7.522  0.00  0.00    +0.000 A 
ATOM     25  C   UNL     1      46.297   3.870   7.580  0.00  0.00    +0.000 A 
ATOM     26  C   UNL     1      45.376   4.353   8.520  0.00  0.00    +0.000 A 
ATOM     27  C   UNL     1      44.787   3.498   9.450  0.00  0.00    +0.000 A 
ATOM     28  C   UNL     1      45.088   2.129   9.369  0.00  0.00    +0.000 A 
ATOM     29  C   UNL     1      45.984   1.634   8.414  0.00  0.00    +0.000 A 
BRANCH  24  31
ATOM     30  N   UNL     1      48.270   1.612   5.753  0.00  0.00    +0.000 NA
ATOM     31  C   UNL     1      47.517   2.014   6.541  0.00  0.00    +0.000 C 
ENDBRANCH  24  31
ENDBRANCH  22  27
ENDBRANCH  19  22
ENDBRANCH   1  19
TORSDOF 6
ENDMDL
MODEL 3
REMARK VINA RESULT:    -8.300      1.284      2.165
REMARK INTER + INTRA:         -12.575
REMARK INTER:                 -11.165
REMARK INTRA:                  -1.411
REMARK UNBOUND:                -1.364
REMARK  Name = 
REMARK  6 active torsions:
REMARK  status: ('A' for Active; 'I' for Inactive)
REMARK    1  A    between atoms: C_2  and  C_3
REMARK    2  A    between atoms: C_6  and  N_7
REMARK    3  A    between atoms: N_7  and  C_8
REMARK    4  A    between atoms: C_8  and  C_9
REMARK    5  A    between atoms: C_14  and  C_15
REMARK    6  A    between atoms: C_19  and  C_20
REMARK                            x       y       z     vdW  Elec       q    Type
REMARK                         _______ _______ _______ _____ _____    ______ ____
ROOT
ATOM      1  C   UNL     1      45.060   5.130  12.142  0.00  0.00    +0.000 A 
ATOM      2  C   UNL     1      45.454   4.039  12.933  0.00  0.00    +0.000 A 
ATOM      3  C   UNL     1      46.703   4.010  13.529  0.00  0.00    +0.000 A 
ATOM      4  F   UNL     1      47.079   2.920  14.212  0.00  0.00    +0.000 F 
ATOM      5  C   UNL     1      47.586   5.069  13.392  0.00  0.00    +0.000 A 
ATOM      6  C   UNL     1      47.213   6.217  12.680  0.00  0.00    +0.000 A 
ATOM      7  C   UNL     1      45.937   6.229  12.077  0.00  0.00    +0.000 A 
ENDROOT
BRANCH   6   8
ATOM      8  C   UNL     1      48.132   7.360  12.541  0.00  0.00    +0.000 A 
ATOM      9  C   UNL     1      49.440   7.326  13.034  0.00  0.00    +0.000 A 
ATOM     10  N   UNL     1      50.321   8.352  12.963  0.00  0.00    +0.000 NA
ATOM     11  C   UNL     1      49.891   9.482  12.354  0.00  0.00    +0.000 A 
ATOM     12  C   UNL     1      48.625   9.636  11.809  0.00  0.00    +0.000 A 
ATOM     13  C   UNL     1      47.746   8.550  11.908  0.00  0.00    +0.000 A 
BRANCH  12  14
ATOM     14  C   UNL     1      48.167  10.867  11.122  0.00  0.00    +0.000 C 
ATOM     15  N   UNL     1      46.878  11.283  11.291  0.00  0.00    +0.000 N 
ATOM     16  O   UNL     1      48.929  11.510  10.409  0.00  0.00    +0.000 OA
ATOM     17  H   UNL     1      46.165  10.812  11.826  0.00  0.00    +0.000 HD
ATOM     18  H   UNL     1      46.606  12.120  10.791  0.00  0.00    +0.000 HD
ENDBRANCH  12  14
ENDBRANCH   6   8
BRANCH   1  19
ATOM     19  C   UNL     1      43.800   5.045  11.289  0.00  0.00    +0.000 C 
ATOM     20  C   UNL     1      42.458   5.504  11.856  0.00  0.00    +0.000 C 
ATOM     21  C   UNL     1      43.213   6.403  10.943  0.00  0.00    +0.000 C 
BRANCH  19  22
ATOM     22  N   UNL     1      43.676   3.830  10.476  0.00  0.00    +0.000 N 
ATOM     23  H   UNL     1      43.091   3.098  10.869  0.00  0.00    +0.000 HD
BRANCH  22  27
ATOM     24  C   UNL     1      46.503   2.570   7.595  0.00  0.00    +0.000 A 
ATOM     25  C   UNL     1      45.898   1.621   8.422  0.00  0.00    +0.000 A 
ATOM     26  C   UNL     1      44.960   2.014   9.388  0.00  0.00    +0.000 A 
ATOM     27  C   UNL     1      44.572   3.348   9.505  0.00  0.00    +0.000 A 
ATOM     28  C   UNL     1      45.201   4.293   8.680  0.00  0.00    +0.000 A 
ATOM     29  C   UNL     1      46.160   3.912   7.734  0.00  0.00    +0.000 A 
BRANCH  24  31
ATOM     30  N   UNL     1      48.281   1.851   5.851  0.00  0.00    +0.000 NA
ATOM     31  C   UNL     1      47.482   2.168   6.633  0.00  0.00    +0.000 C 
ENDBRANCH  24  31
ENDBRANCH  22  27
ENDBRANCH  19  22
ENDBRANCH   1  19
TORSDOF 6
ENDMDL
MODEL 4
REMARK VINA RESULT:    -8.274      1.790      2.378
REMARK INTER + INTRA:         -12.541
REMARK INTER:                 -11.304
REMARK INTRA:                  -1.237
REMARK UNBOUND:                -1.364
REMARK  Name = 
REMARK  6 active torsions:
REMARK  status: ('A' for Active; 'I' for Inactive)
REMARK    1  A    between atoms: C_2  and  C_3
REMARK    2  A    between atoms: C_6  and  N_7
REMARK    3  A    between atoms: N_7  and  C_8
REMARK    4  A    between atoms: C_8  and  C_9
REMARK    5  A    between atoms: C_14  and  C_15
REMARK    6  A    between atoms: C_19  and  C_20
REMARK                            x       y       z     vdW  Elec       q    Type
REMARK                         _______ _______ _______ _____ _____    ______ ____
ROOT
ATOM      1  C   UNL     1      44.925   5.239  12.238  0.00  0.00    +0.000 A 
ATOM      2  C   UNL     1      45.437   4.106  12.888  0.00  0.00    +0.000 A 
ATOM      3  C   UNL     1      46.656   4.153  13.541  0.00  0.00    +0.000 A 
ATOM      4  F   UNL     1      47.154   3.034  14.085  0.00  0.00    +0.000 F 
ATOM      5  C   UNL     1      47.390   5.327  13.603  0.00  0.00    +0.000 A 
ATOM      6  C   UNL     1      46.888   6.508  13.038  0.00  0.00    +0.000 A 
ATOM      7  C   UNL     1      45.644   6.441  12.374  0.00  0.00    +0.000 A 
ENDROOT
BRANCH   6   8
ATOM      8  C   UNL     1      47.646   7.769  13.111  0.00  0.00    +0.000 A 
ATOM      9  C   UNL     1      48.118   8.420  11.968  0.00  0.00    +0.000 A 
ATOM     10  N   UNL     1      48.845   9.563  11.971  0.00  0.00    +0.000 NA
ATOM     11  C   UNL     1      49.113  10.108  13.180  0.00  0.00    +0.000 A 
ATOM     12  C   UNL     1      48.688   9.572  14.386  0.00  0.00    +0.000 A 
ATOM     13  C   UNL     1      47.942   8.387  14.335  0.00  0.00    +0.000 A 
BRANCH  12  14
ATOM     14  C   UNL     1      48.964  10.186  15.706  0.00  0.00    +0.000 C 
ATOM     15  N   UNL     1      47.945  10.317  16.606  0.00  0.00    +0.000 N 
ATOM     16  O   UNL     1      50.090  10.574  15.997  0.00  0.00    +0.000 OA
ATOM     17  H   UNL     1      46.982  10.062  16.456  0.00  0.00    +0.000 HD
ATOM     18  H   UNL     1      48.178  10.756  17.488  0.00  0.00    +0.000 HD
ENDBRANCH  12  14
ENDBRANCH   6   8
BRANCH   1  19
ATOM     19  C   UNL     1      43.719   5.116  11.314  0.00  0.00    +0.000 C 
ATOM     20  C   UNL     1      42.322   5.461  11.826  0.00  0.00    +0.000 C 
ATOM     21  C   UNL     1      43.063   6.450  10.997  0.00  0.00    +0.000 C 
BRANCH  19  22
ATOM     22  N   UNL     1      43.717   3.936  10.442  0.00  0.00    +0.000 N 
ATOM     23  H   UNL     1      43.139   3.161  10.755  0.00  0.00    +0.000 HD
BRANCH  22  27
ATOM     24  C   UNL     1      46.563   2.558   7.634  0.00  0.00    +0.000 A 
ATOM     25  C   UNL     1      46.321   3.929   7.748  0.00  0.00    +0.000 A 
ATOM     26  C   UNL     1      45.379   4.410   8.669  0.00  0.00    +0.000 A 
ATOM     27  C   UNL     1      44.708   3.540   9.526  0.00  0.00    +0.000 A 
ATOM     28  C   UNL     1      44.948   2.163   9.388  0.00  0.00    +0.000 A 
ATOM     29  C   UNL     1      45.864   1.673   8.451  0.00  0.00    +0.000 A 
BRANCH  24  31
ATOM     30  N   UNL     1      48.261   1.662   5.892  0.00  0.00    +0.000 NA
ATOM     31  C   UNL     1      47.502   2.069   6.672  0.00  0.00    +0.000 C 
ENDBRANCH  24  31
ENDBRANCH  22  27
ENDBRANCH  19  22
ENDBRANCH   1  19
TORSDOF 6
ENDMDL
MODEL 5
REMARK VINA RESULT:    -7.635      2.807      3.544
REMARK INTER + INTRA:         -11.677
REMARK INTER:                 -11.089
REMARK INTRA:                  -0.588
REMARK UNBOUND:                -1.364
REMARK  Name = 
REMARK  6 active torsions:
REMARK  status: ('A' for Active; 'I' for Inactive)
REMARK    1  A    between atoms: C_2  and  C_3
REMARK    2  A    between atoms: C_6  and  N_7
REMARK    3  A    between atoms: N_7  and  C_8
REMARK    4  A    between atoms: C_8  and  C_9
REMARK    5  A    between atoms: C_14  and  C_15
REMARK    6  A    between atoms: C_19  and  C_20
REMARK                            x       y       z     vdW  Elec       q    Type
REMARK                         _______ _______ _______ _____ _____    ______ ____
ROOT
ATOM      1  C   UNL     1      44.828   6.220  11.693  0.00  0.00    +0.000 A 
ATOM      2  C   UNL     1      44.248   7.430  11.280  0.00  0.00    +0.000 A 
ATOM      3  C   UNL     1      44.861   8.640  11.553  0.00  0.00    +0.000 A 
ATOM      4  F   UNL     1      44.244   9.780  11.214  0.00  0.00    +0.000 F 
ATOM      5  C   UNL     1      46.080   8.692  12.211  0.00  0.00    +0.000 A 
ATOM      6  C   UNL     1      46.741   7.511  12.575  0.00  0.00    +0.000 A 
ATOM      7  C   UNL     1      46.101   6.286  12.291  0.00  0.00    +0.000 A 
ENDROOT
BRANCH   6   8
ATOM      8  C   UNL     1      48.046   7.549  13.258  0.00  0.00    +0.000 A 
ATOM      9  C   UNL     1      49.171   8.143  12.680  0.00  0.00    +0.000 A 
ATOM     10  N   UNL     1      50.402   8.184  13.244  0.00  0.00    +0.000 NA
ATOM     11  C   UNL     1      50.530   7.613  14.464  0.00  0.00    +0.000 A 
ATOM     12  C   UNL     1      49.489   7.009  15.152  0.00  0.00    +0.000 A 
ATOM     13  C   UNL     1      48.235   6.987  14.529  0.00  0.00    +0.000 A 
BRANCH  12  14
ATOM     14  C   UNL     1      49.629   6.406  16.499  0.00  0.00    +0.000 C 
ATOM     15  N   UNL     1      49.164   7.089  17.585  0.00  0.00    +0.000 N 
ATOM     16  O   UNL     1      50.155   5.308  16.645  0.00  0.00    +0.000 OA
ATOM     17  H   UNL     1      48.747   8.007  17.578  0.00  0.00    +0.000 HD
ATOM     18  H   UNL     1      49.295   6.645  18.486  0.00  0.00    +0.000 HD
ENDBRANCH  12  14
ENDBRANCH   6   8
BRANCH   1  19
ATOM     19  C   UNL     1      44.034   4.921  11.617  0.00  0.00    +0.000 C 
ATOM     20  C   UNL     1      44.334   3.782  12.590  0.00  0.00    +0.000 C 
ATOM     21  C   UNL     1      43.167   4.672  12.840  0.00  0.00    +0.000 C 
BRANCH  19  22
ATOM     22  N   UNL     1      43.756   4.437  10.261  0.00  0.00    +0.000 N 
ATOM     23  H   UNL     1      42.779   4.251  10.053  0.00  0.00    +0.000 HD
BRANCH  22  27
ATOM     24  C   UNL     1      46.552   2.601   7.673  0.00  0.00    +0.000 A 
ATOM     25  C   UNL     1      45.764   1.804   8.507  0.00  0.00    +0.000 A 
ATOM     26  C   UNL     1      44.833   2.390   9.377  0.00  0.00    +0.000 A 
ATOM     27  C   UNL     1      44.634   3.769   9.388  0.00  0.00    +0.000 A 
ATOM     28  C   UNL     1      45.445   4.559   8.558  0.00  0.00    +0.000 A 
ATOM     29  C   UNL     1      46.398   3.984   7.708  0.00  0.00    +0.000 A 
BRANCH  24  31
ATOM     30  N   UNL     1      48.308   1.521   6.101  0.00  0.00    +0.000 NA
ATOM     31  C   UNL     1      47.522   2.001   6.810  0.00  0.00    +0.000 C 
ENDBRANCH  24  31
ENDBRANCH  22  27
ENDBRANCH  19  22
ENDBRANCH   1  19
TORSDOF 6
ENDMDL
MODEL 6
REMARK VINA RESULT:    -6.888      3.990      8.426
REMARK INTER + INTRA:         -10.668
REMARK INTER:                  -9.318
REMARK INTRA:                  -1.349
REMARK UNBOUND:                -1.364
REMARK  Name = 
REMARK  6 active torsions:
REMARK  status: ('A' for Active; 'I' for Inactive)
REMARK    1  A    between atoms: C_2  and  C_3
REMARK    2  A    between atoms: C_6  and  N_7
REMARK    3  A    between atoms: N_7  and  C_8
REMARK    4  A    between atoms: C_8  and  C_9
REMARK    5  A    between atoms: C_14  and  C_15
REMARK    6  A    between atoms: C_19  and  C_20
REMARK                            x       y       z     vdW  Elec       q    Type
REMARK                         _______ _______ _______ _____ _____    ______ ____
ROOT
ATOM      1  C   UNL     1      47.811   7.869  12.602  0.00  0.00    +0.000 A 
ATOM      2  C   UNL     1      47.066   9.058  12.576  0.00  0.00    +0.000 A 
ATOM      3  C   UNL     1      45.709   9.038  12.301  0.00  0.00    +0.000 A 
ATOM      4  F   UNL     1      45.041  10.195  12.206  0.00  0.00    +0.000 F 
ATOM      5  C   UNL     1      45.042   7.844  12.080  0.00  0.00    +0.000 A 
ATOM      6  C   UNL     1      45.722   6.622  12.173  0.00  0.00    +0.000 A 
ATOM      7  C   UNL     1      47.105   6.661  12.451  0.00  0.00    +0.000 A 
ENDROOT
BRANCH   6   8
ATOM      8  C   UNL     1      45.024   5.343  11.959  0.00  0.00    +0.000 A 
ATOM      9  C   UNL     1      44.297   4.713  12.974  0.00  0.00    +0.000 A 
ATOM     10  N   UNL     1      43.659   3.526  12.847  0.00  0.00    +0.000 NA
ATOM     11  C   UNL     1      43.730   2.923  11.637  0.00  0.00    +0.000 A 
ATOM     12  C   UNL     1      44.403   3.451  10.546  0.00  0.00    +0.000 A 
ATOM     13  C   UNL     1      45.051   4.680  10.723  0.00  0.00    +0.000 A 
BRANCH  12  14
ATOM     14  C   UNL     1      44.458   2.799   9.216  0.00  0.00    +0.000 C 
ATOM     15  N   UNL     1      44.405   3.573   8.092  0.00  0.00    +0.000 N 
ATOM     16  O   UNL     1      44.551   1.581   9.115  0.00  0.00    +0.000 OA
ATOM     17  H   UNL     1      44.296   4.575   8.064  0.00  0.00    +0.000 HD
ATOM     18  H   UNL     1      44.430   3.083   7.206  0.00  0.00    +0.000 HD
ENDBRANCH  12  14
ENDBRANCH   6   8
BRANCH   1  19
ATOM     19  C   UNL     1      49.334   7.918  12.651  0.00  0.00    +0.000 C 
ATOM     20  C   UNL     1      50.150   7.664  11.384  0.00  0.00    +0.000 C 
ATOM     21  C   UNL     1      49.927   9.062  11.845  0.00  0.00    +0.000 C 
BRANCH  19  22
ATOM     22  N   UNL     1      49.941   7.305  13.837  0.00  0.00    +0.000 N 
ATOM     23  H   UNL     1      50.493   6.469  13.665  0.00  0.00    +0.000 HD
BRANCH  22  27
ATOM     24  C   UNL     1      48.548   7.816  17.797  0.00  0.00    +0.000 A 
ATOM     25  C   UNL     1      48.645   6.528  17.265  0.00  0.00    +0.000 A 
ATOM     26  C   UNL     1      49.100   6.333  15.953  0.00  0.00    +0.000 A 
ATOM     27  C   UNL     1      49.518   7.410  15.174  0.00  0.00    +0.000 A 
ATOM     28  C   UNL     1      49.398   8.700  15.715  0.00  0.00    +0.000 A 
ATOM     29  C   UNL     1      48.917   8.906  17.013  0.00  0.00    +0.000 A 
BRANCH  24  31
ATOM     30  N   UNL     1      47.642   8.169  20.200  0.00  0.00    +0.000 NA
ATOM     31  C   UNL     1      48.054   8.012  19.125  0.00  0.00    +0.000 C 
ENDBRANCH  24  31
ENDBRANCH  22  27
ENDBRANCH  19  22
ENDBRANCH   1  19
TORSDOF 6
ENDMDL
MODEL 7
REMARK VINA RESULT:    -6.700      5.284      8.315
REMARK INTER + INTRA:         -10.414
REMARK INTER:                  -9.396
REMARK INTRA:                  -1.018
REMARK UNBOUND:                -1.364
REMARK  Name = 
REMARK  6 active torsions:
REMARK  status: ('A' for Active; 'I' for Inactive)
REMARK    1  A    between atoms: C_2  and  C_3
REMARK    2  A    between atoms: C_6  and  N_7
REMARK    3  A    between atoms: N_7  and  C_8
REMARK    4  A    between atoms: C_8  and  C_9
REMARK    5  A    between atoms: C_14  and  C_15
REMARK    6  A    between atoms: C_19  and  C_20
REMARK                            x       y       z     vdW  Elec       q    Type
REMARK                         _______ _______ _______ _____ _____    ______ ____
ROOT
ATOM      1  C   UNL     1      48.340   5.666  15.999  0.00  0.00    +0.000 A 
ATOM      2  C   UNL     1      49.316   6.646  15.761  0.00  0.00    +0.000 A 
ATOM      3  C   UNL     1      49.448   7.228  14.513  0.00  0.00    +0.000 A 
ATOM      4  F   UNL     1      50.439   8.103  14.297  0.00  0.00    +0.000 F 
ATOM      5  C   UNL     1      48.600   6.886  13.471  0.00  0.00    +0.000 A 
ATOM      6  C   UNL     1      47.558   5.971  13.675  0.00  0.00    +0.000 A 
ATOM      7  C   UNL     1      47.439   5.386  14.954  0.00  0.00    +0.000 A 
ENDROOT
BRANCH   6   8
ATOM      8  C   UNL     1      46.636   5.612  12.584  0.00  0.00    +0.000 A 
ATOM      9  C   UNL     1      46.521   6.382  11.423  0.00  0.00    +0.000 A 
ATOM     10  N   UNL     1      45.673   6.120  10.400  0.00  0.00    +0.000 NA
ATOM     11  C   UNL     1      44.896   5.018  10.522  0.00  0.00    +0.000 A 
ATOM     12  C   UNL     1      44.927   4.163  11.613  0.00  0.00    +0.000 A 
ATOM     13  C   UNL     1      45.816   4.475  12.649  0.00  0.00    +0.000 A 
BRANCH  12  14
ATOM     14  C   UNL     1      44.091   2.945  11.731  0.00  0.00    +0.000 C 
ATOM     15  N   UNL     1      43.934   2.136  10.642  0.00  0.00    +0.000 N 
ATOM     16  O   UNL     1      43.543   2.658  12.790  0.00  0.00    +0.000 OA
ATOM     17  H   UNL     1      44.312   2.297   9.722  0.00  0.00    +0.000 HD
ATOM     18  H   UNL     1      43.342   1.324  10.766  0.00  0.00    +0.000 HD
ENDBRANCH  12  14
ENDBRANCH   6   8
BRANCH   1  19
ATOM     19  C   UNL     1      48.364   4.853  17.288  0.00  0.00    +0.000 C 
ATOM     20  C   UNL     1      47.249   5.017  18.319  0.00  0.00    +0.000 C 
ATOM     21  C   UNL     1      47.224   3.853  17.392  0.00  0.00    +0.000 C 
BRANCH  19  22
ATOM     22  N   UNL     1      49.684   4.710  17.912  0.00  0.00    +0.000 N 
ATOM     23  H   UNL     1      50.136   5.578  18.185  0.00  0.00    +0.000 HD
BRANCH  22  27
ATOM     24  C   UNL     1      52.507   1.569  17.706  0.00  0.00    +0.000 A 
ATOM     25  C   UNL     1      51.202   1.346  17.263  0.00  0.00    +0.000 A 
ATOM     26  C   UNL     1      50.246   2.371  17.325  0.00  0.00    +0.000 A 
ATOM     27  C   UNL     1      50.591   3.644  17.775  0.00  0.00    +0.000 A 
ATOM     28  C   UNL     1      51.903   3.849  18.233  0.00  0.00    +0.000 A 
ATOM     29  C   UNL     1      52.854   2.823  18.202  0.00  0.00    +0.000 A 
BRANCH  24  31
ATOM     30  N   UNL     1      54.258  -0.343  17.650  0.00  0.00    +0.000 NA
ATOM     31  C   UNL     1      53.471   0.512  17.670  0.00  0.00    +0.000 C 
ENDBRANCH  24  31
ENDBRANCH  22  27
ENDBRANCH  19  22
ENDBRANCH   1  19
TORSDOF 6
ENDMDL
MODEL 8
REMARK VINA RESULT:    -6.696      4.459      6.559
REMARK INTER + INTRA:         -10.409
REMARK INTER:                  -9.247
REMARK INTRA:                  -1.162
REMARK UNBOUND:                -1.364
REMARK  Name = 
REMARK  6 active torsions:
REMARK  status: ('A' for Active; 'I' for Inactive)
REMARK    1  A    between atoms: C_2  and  C_3
REMARK    2  A    between atoms: C_6  and  N_7
REMARK    3  A    between atoms: N_7  and  C_8
REMARK    4  A    between atoms: C_8  and  C_9
REMARK    5  A    between atoms: C_14  and  C_15
REMARK    6  A    between atoms: C_19  and  C_20
REMARK                            x       y       z     vdW  Elec       q    Type
REMARK                         _______ _______ _______ _____ _____    ______ ____
ROOT
ATOM      1  C   UNL     1      48.507   8.032  14.246  0.00  0.00    +0.000 A 
ATOM      2  C   UNL     1      48.502   9.276  14.895  0.00  0.00    +0.000 A 
ATOM      3  C   UNL     1      48.526   9.356  16.276  0.00  0.00    +0.000 A 
ATOM      4  F   UNL     1      48.442  10.556  16.867  0.00  0.00    +0.000 F 
ATOM      5  C   UNL     1      48.593   8.214  17.058  0.00  0.00    +0.000 A 
ATOM      6  C   UNL     1      48.680   6.949  16.460  0.00  0.00    +0.000 A 
ATOM      7  C   UNL     1      48.651   6.886  15.050  0.00  0.00    +0.000 A 
ENDROOT
BRANCH   6   8
ATOM      8  C   UNL     1      48.770   5.726  17.276  0.00  0.00    +0.000 A 
ATOM      9  C   UNL     1      48.349   5.688  18.609  0.00  0.00    +0.000 A 
ATOM     10  N   UNL     1      48.433   4.605  19.417  0.00  0.00    +0.000 NA
ATOM     11  C   UNL     1      48.953   3.480  18.874  0.00  0.00    +0.000 A 
ATOM     12  C   UNL     1      49.389   3.381  17.561  0.00  0.00    +0.000 A 
ATOM     13  C   UNL     1      49.287   4.527  16.763  0.00  0.00    +0.000 A 
BRANCH  12  14
ATOM     14  C   UNL     1      49.936   2.140  16.964  0.00  0.00    +0.000 C 
ATOM     15  N   UNL     1      50.883   1.433  17.647  0.00  0.00    +0.000 N 
ATOM     16  O   UNL     1      49.548   1.744  15.870  0.00  0.00    +0.000 OA
ATOM     17  H   UNL     1      51.292   1.687  18.533  0.00  0.00    +0.000 HD
ATOM     18  H   UNL     1      51.238   0.601  17.193  0.00  0.00    +0.000 HD
ENDBRANCH  12  14
ENDBRANCH   6   8
BRANCH   1  19
ATOM     19  C   UNL     1      48.224   7.943  12.751  0.00  0.00    +0.000 C 
ATOM     20  C   UNL     1      48.995   8.825  11.771  0.00  0.00    +0.000 C 
ATOM     21  C   UNL     1      49.394   7.402  11.947  0.00  0.00    +0.000 C 
BRANCH  19  22
ATOM     22  N   UNL     1      46.808   7.814  12.389  0.00  0.00    +0.000 N 
ATOM     23  H   UNL     1      46.211   8.585  12.675  0.00  0.00    +0.000 HD
BRANCH  22  27
ATOM     24  C   UNL     1      44.498   4.321  11.808  0.00  0.00    +0.000 A 
ATOM     25  C   UNL     1      44.987   5.011  10.697  0.00  0.00    +0.000 A 
ATOM     26  C   UNL     1      45.752   6.175  10.864  0.00  0.00    +0.000 A 
ATOM     27  C   UNL     1      46.087   6.633  12.136  0.00  0.00    +0.000 A 
ATOM     28  C   UNL     1      45.574   5.940  13.244  0.00  0.00    +0.000 A 
ATOM     29  C   UNL     1      44.784   4.795  13.086  0.00  0.00    +0.000 A 
BRANCH  24  31
ATOM     30  N   UNL     1      43.031   2.208  11.483  0.00  0.00    +0.000 NA
ATOM     31  C   UNL     1      43.692   3.152  11.633  0.00  0.00    +0.000 C 
ENDBRANCH  24  31
ENDBRANCH  22  27
ENDBRANCH  19  22
ENDBRANCH   1  19
TORSDOF 6
ENDMDL
MODEL 9
REMARK VINA RESULT:    -6.322      3.245      7.386
REMARK INTER + INTRA:          -9.903
REMARK INTER:                  -8.776
REMARK INTRA:                  -1.126
REMARK UNBOUND:                -1.364
REMARK  Name = 
REMARK  6 active torsions:
REMARK  status: ('A' for Active; 'I' for Inactive)
REMARK    1  A    between atoms: C_2  and  C_3
REMARK    2  A    between atoms: C_6  and  N_7
REMARK    3  A    between atoms: N_7  and  C_8
REMARK    4  A    between atoms: C_8  and  C_9
REMARK    5  A    between atoms: C_14  and  C_15
REMARK    6  A    between atoms: C_19  and  C_20
REMARK                            x       y       z     vdW  Elec       q    Type
REMARK                         _______ _______ _______ _____ _____    ______ ____
ROOT
ATOM      1  C   UNL     1      47.277   8.046  13.237  0.00  0.00    +0.000 A 
ATOM      2  C   UNL     1      46.602   9.172  12.743  0.00  0.00    +0.000 A 
ATOM      3  C   UNL     1      45.450   9.036  11.988  0.00  0.00    +0.000 A 
ATOM      4  F   UNL     1      44.874  10.126  11.466  0.00  0.00    +0.000 F 
ATOM      5  C   UNL     1      44.911   7.786  11.727  0.00  0.00    +0.000 A 
ATOM      6  C   UNL     1      45.500   6.632  12.262  0.00  0.00    +0.000 A 
ATOM      7  C   UNL     1      46.675   6.791  13.028  0.00  0.00    +0.000 A 
ENDROOT
BRANCH   6   8
ATOM      8  C   UNL     1      44.929   5.298  12.009  0.00  0.00    +0.000 A 
ATOM      9  C   UNL     1      44.294   4.559  13.012  0.00  0.00    +0.000 A 
ATOM     10  N   UNL     1      43.776   3.318  12.849  0.00  0.00    +0.000 NA
ATOM     11  C   UNL     1      43.878   2.775  11.613  0.00  0.00    +0.000 A 
ATOM     12  C   UNL     1      44.466   3.411  10.531  0.00  0.00    +0.000 A 
ATOM     13  C   UNL     1      44.992   4.691  10.746  0.00  0.00    +0.000 A 
BRANCH  12  14
ATOM     14  C   UNL     1      44.554   2.821   9.174  0.00  0.00    +0.000 C 
ATOM     15  N   UNL     1      44.284   3.605   8.089  0.00  0.00    +0.000 N 
ATOM     16  O   UNL     1      44.864   1.645   9.018  0.00  0.00    +0.000 OA
ATOM     17  H   UNL     1      43.990   4.569   8.109  0.00  0.00    +0.000 HD
ATOM     18  H   UNL     1      44.342   3.155   7.184  0.00  0.00    +0.000 HD
ENDBRANCH  12  14
ENDBRANCH   6   8
BRANCH   1  19
ATOM     19  C   UNL     1      48.668   8.187  13.843  0.00  0.00    +0.000 C 
ATOM     20  C   UNL     1      48.830   8.418  15.345  0.00  0.00    +0.000 C 
ATOM     21  C   UNL     1      49.033   7.053  14.788  0.00  0.00    +0.000 C 
BRANCH  19  22
ATOM     22  N   UNL     1      49.618   8.977  13.052  0.00  0.00    +0.000 N 
ATOM     23  H   UNL     1      49.264   9.860  12.696  0.00  0.00    +0.000 HD
BRANCH  22  27
ATOM     24  C   UNL     1      52.872   7.625  10.716  0.00  0.00    +0.000 A 
ATOM     25  C   UNL     1      53.119   8.404  11.848  0.00  0.00    +0.000 A 
ATOM     26  C   UNL     1      52.056   8.868  12.637  0.00  0.00    +0.000 A 
ATOM     27  C   UNL     1      50.741   8.516  12.342  0.00  0.00    +0.000 A 
ATOM     28  C   UNL     1      50.506   7.747  11.190  0.00  0.00    +0.000 A 
ATOM     29  C   UNL     1      51.559   7.305  10.381  0.00  0.00    +0.000 A 
BRANCH  24  31
ATOM     30  N   UNL     1      54.834   6.808   9.230  0.00  0.00    +0.000 NA
ATOM     31  C   UNL     1      53.958   7.179   9.897  0.00  0.00    +0.000 C 
ENDBRANCH  24  31
ENDBRANCH  22  27
ENDBRANCH  19  22
ENDBRANCH   1  19
TORSDOF 6
ENDMDL
