MODEL 1
REMARK VINA RESULT:    -8.770      0.000      0.000
REMARK INTER + INTRA:         -12.658
REMARK INTER:                 -11.846
REMARK INTRA:                  -0.812
REMARK UNBOUND:                -0.812
REMARK  Name = 
REMARK  7 active torsions:
REMARK  status: ('A' for Active; 'I' for Inactive)
REMARK    1  A    between atoms: C_1  and  C_2
REMARK    2  A    between atoms: C_2  and  C_3
REMARK    3  A    between atoms: C_2  and  C_17
REMARK    4  A    between atoms: C_3  and  N_4
REMARK    5  A    between atoms: C_5  and  C_7
REMARK    6  A    between atoms: C_20  and  C_21
REMARK    7  A    between atoms: C_21  and  N_22
REMARK                            x       y       z     vdW  Elec       q    Type
REMARK                         _______ _______ _______ _____ _____    ______ ____
ROOT
ATOM      1  C   UNL     1      48.377   8.127  14.030  0.00  0.00    +0.000 C 
ATOM      2  C   UNL     1      48.329   6.605  14.273  0.00  0.00    +0.000 C 
ENDROOT
BRANCH   2   3
ATOM      3  C   UNL     1      47.260   5.892  13.424  0.00  0.00    +0.000 A 
ATOM      4  C   UNL     1      46.644   6.525  12.331  0.00  0.00    +0.000 A 
ATOM      5  C   UNL     1      45.697   5.865  11.540  0.00  0.00    +0.000 A 
ATOM      6  C   UNL     1      45.338   4.542  11.807  0.00  0.00    +0.000 A 
ATOM      7  C   UNL     1      45.970   3.885  12.865  0.00  0.00    +0.000 A 
ATOM      8  C   UNL     1      46.916   4.550  13.655  0.00  0.00    +0.000 A 
BRANCH   6   9
ATOM      9  C   UNL     1      44.337   3.820  10.946  0.00  0.00    +0.000 C 
BRANCH   9  10
ATOM     10  N   UNL     1      44.996   3.016   9.943  0.00  0.00    +0.000 N 
ATOM     11  C   UNL     1      45.306   3.576   8.734  0.00  0.00    +0.000 C 
ATOM     12  O   UNL     1      44.966   4.718   8.433  0.00  0.00    +0.000 OA
ATOM     13  N   UNL     1      46.024   2.774   7.884  0.00  0.00    +0.000 N 
ATOM     14  C   UNL     1      46.353   1.367   8.025  0.00  0.00    +0.000 C 
ATOM     15  C   UNL     1      47.558   1.204   7.116  0.00  0.00    +0.000 C 
ATOM     16  C   UNL     1      47.250   2.143   5.953  0.00  0.00    +0.000 C 
ATOM     17  C   UNL     1      46.422   3.263   6.575  0.00  0.00    +0.000 C 
ATOM     18  H   UNL     1      45.654   2.340  10.293  0.00  0.00    +0.000 HD
ENDBRANCH   9  10
ENDBRANCH   6   9
ENDBRANCH   2   3
BRANCH   2  19
ATOM     19  C   UNL     1      48.175   6.345  15.796  0.00  0.00    +0.000 C 
BRANCH  19  20
ATOM     20  N   UNL     1      49.349   5.761  16.418  0.00  0.00    +0.000 N 
ATOM     21  C   UNL     1      49.269   4.820  17.413  0.00  0.00    +0.000 C 
ATOM     22  O   UNL     1      48.194   4.386  17.818  0.00  0.00    +0.000 OA
ATOM     23  H   UNL     1      50.241   6.200  16.216  0.00  0.00    +0.000 HD
BRANCH  21  24
ATOM     24  C   UNL     1      50.546   4.305  17.927  0.00  0.00    +0.000 A 
ATOM     25  C   UNL     1      51.342   5.114  18.726  0.00  0.00    +0.000 A 
ATOM     26  S   UNL     1      52.751   4.339  19.295  0.00  0.00    +0.000 S 
ATOM     27  C   UNL     1      52.374   2.913  18.449  0.00  0.00    +0.000 A 
ATOM     28  N   UNL     1      53.200   1.830  18.499  0.00  0.00    +0.000 NA
ATOM     29  C   UNL     1      52.817   0.833  17.772  0.00  0.00    +0.000 A 
ATOM     30  N   UNL     1      51.684   0.820  17.000  0.00  0.00    +0.000 N 
ATOM     31  C   UNL     1      50.795   1.868  16.961  0.00  0.00    +0.000 A 
ATOM     32  O   UNL     1      49.752   1.791  16.318  0.00  0.00    +0.000 OA
ATOM     33  C   UNL     1      51.188   3.023  17.746  0.00  0.00    +0.000 A 
ATOM     34  H   UNL     1      51.438   0.004  16.460  0.00  0.00    +0.000 HD
ENDBRANCH  21  24
ENDBRANCH  19  20
ENDBRANCH   2  19
TORSDOF 6
ENDMDL
MODEL 2
REMARK VINA RESULT:    -7.654      3.629      4.479
REMARK INTER + INTRA:         -11.151
REMARK INTER:                 -10.452
REMARK INTRA:                  -0.699
REMARK UNBOUND:                -0.812
REMARK  Name = 
REMARK  7 active torsions:
REMARK  status: ('A' for Active; 'I' for Inactive)
REMARK    1  A    between atoms: C_1  and  C_2
REMARK    2  A    between atoms: C_2  and  C_3
REMARK    3  A    between atoms: C_2  and  C_17
REMARK    4  A    between atoms: C_3  and  N_4
REMARK    5  A    between atoms: C_5  and  C_7
REMARK    6  A    between atoms: C_20  and  C_21
REMARK    7  A    between atoms: C_21  and  N_22
REMARK                            x       y       z     vdW  Elec       q    Type
REMARK                         _______ _______ _______ _____ _____    ______ ____
ROOT
ATOM      1  C   UNL     1      49.528   7.727  12.762  0.00  0.00    +0.000 C 
ATOM      2  C   UNL     1      48.252   7.467  13.588  0.00  0.00    +0.000 C 
ENDROOT
BRANCH   2   3
ATOM      3  C   UNL     1      47.202   6.635  12.829  0.00  0.00    +0.000 A 
ATOM      4  C   UNL     1      46.878   5.324  13.217  0.00  0.00    +0.000 A 
ATOM      5  C   UNL     1      45.899   4.582  12.547  0.00  0.00    +0.000 A 
ATOM      6  C   UNL     1      45.200   5.127  11.468  0.00  0.00    +0.000 A 
ATOM      7  C   UNL     1      45.481   6.443  11.094  0.00  0.00    +0.000 A 
ATOM      8  C   UNL     1      46.463   7.182  11.767  0.00  0.00    +0.000 A 
BRANCH   6   9
ATOM      9  C   UNL     1      44.131   4.340  10.758  0.00  0.00    +0.000 C 
BRANCH   9  10
ATOM     10  N   UNL     1      44.710   3.334   9.899  0.00  0.00    +0.000 N 
ATOM     11  C   UNL     1      45.322   3.718   8.737  0.00  0.00    +0.000 C 
ATOM     12  O   UNL     1      45.323   4.884   8.350  0.00  0.00    +0.000 OA
ATOM     13  N   UNL     1      45.935   2.709   8.038  0.00  0.00    +0.000 N 
ATOM     14  C   UNL     1      45.881   1.278   8.274  0.00  0.00    +0.000 C 
ATOM     15  C   UNL     1      47.127   0.767   7.572  0.00  0.00    +0.000 C 
ATOM     16  C   UNL     1      47.235   1.670   6.347  0.00  0.00    +0.000 C 
ATOM     17  C   UNL     1      46.629   2.996   6.794  0.00  0.00    +0.000 C 
ATOM     18  H   UNL     1      45.122   2.546  10.370  0.00  0.00    +0.000 HD
ENDBRANCH   9  10
ENDBRANCH   6   9
ENDBRANCH   2   3
BRANCH   2  19
ATOM     19  C   UNL     1      47.703   8.826  14.103  0.00  0.00    +0.000 C 
BRANCH  19  20
ATOM     20  N   UNL     1      47.490   8.872  15.537  0.00  0.00    +0.000 N 
ATOM     21  C   UNL     1      48.393   9.437  16.402  0.00  0.00    +0.000 C 
ATOM     22  O   UNL     1      49.426   9.972  16.011  0.00  0.00    +0.000 OA
ATOM     23  H   UNL     1      46.728   8.312  15.905  0.00  0.00    +0.000 HD
BRANCH  21  24
ATOM     24  C   UNL     1      48.025   9.428  17.825  0.00  0.00    +0.000 A 
ATOM     25  C   UNL     1      47.737  10.624  18.467  0.00  0.00    +0.000 A 
ATOM     26  S   UNL     1      47.260  10.430  20.094  0.00  0.00    +0.000 S 
ATOM     27  C   UNL     1      47.474   8.745  20.012  0.00  0.00    +0.000 A 
ATOM     28  N   UNL     1      47.242   7.955  21.098  0.00  0.00    +0.000 NA
ATOM     29  C   UNL     1      47.490   6.701  20.909  0.00  0.00    +0.000 A 
ATOM     30  N   UNL     1      47.949   6.164  19.734  0.00  0.00    +0.000 N 
ATOM     31  C   UNL     1      48.145   6.914  18.597  0.00  0.00    +0.000 A 
ATOM     32  O   UNL     1      48.482   6.387  17.541  0.00  0.00    +0.000 OA
ATOM     33  C   UNL     1      47.899   8.334  18.760  0.00  0.00    +0.000 A 
ATOM     34  H   UNL     1      48.115   5.174  19.650  0.00  0.00    +0.000 HD
ENDBRANCH  21  24
ENDBRANCH  19  20
ENDBRANCH   2  19
TORSDOF 6
ENDMDL
MODEL 3
REMARK VINA RESULT:    -7.549      2.746      3.259
REMARK INTER + INTRA:         -11.009
REMARK INTER:                  -9.711
REMARK INTRA:                  -1.298
REMARK UNBOUND:                -0.812
REMARK  Name = 
REMARK  7 active torsions:
REMARK  status: ('A' for Active; 'I' for Inactive)
REMARK    1  A    between atoms: C_1  and  C_2
REMARK    2  A    between atoms: C_2  and  C_3
REMARK    3  A    between atoms: C_2  and  C_17
REMARK    4  A    between atoms: C_3  and  N_4
REMARK    5  A    between atoms: C_5  and  C_7
REMARK    6  A    between atoms: C_20  and  C_21
REMARK    7  A    between atoms: C_21  and  N_22
REMARK                            x       y       z     vdW  Elec       q    Type
REMARK                         _______ _______ _______ _____ _____    ______ ____
ROOT
ATOM      1  C   UNL     1      49.111  10.519  13.223  0.00  0.00    +0.000 C 
ATOM      2  C   UNL     1      48.726   9.179  13.882  0.00  0.00    +0.000 C 
ENDROOT
BRANCH   2   3
ATOM      3  C   UNL     1      47.703   8.375  13.060  0.00  0.00    +0.000 A 
ATOM      4  C   UNL     1      48.103   7.374  12.159  0.00  0.00    +0.000 A 
ATOM      5  C   UNL     1      47.171   6.621  11.437  0.00  0.00    +0.000 A 
ATOM      6  C   UNL     1      45.800   6.835  11.597  0.00  0.00    +0.000 A 
ATOM      7  C   UNL     1      45.383   7.799  12.517  0.00  0.00    +0.000 A 
ATOM      8  C   UNL     1      46.320   8.551  13.237  0.00  0.00    +0.000 A 
BRANCH   6   9
ATOM      9  C   UNL     1      44.793   6.013  10.839  0.00  0.00    +0.000 C 
BRANCH   9  10
ATOM     10  N   UNL     1      45.413   5.317   9.736  0.00  0.00    +0.000 N 
ATOM     11  C   UNL     1      45.376   3.950   9.702  0.00  0.00    +0.000 C 
ATOM     12  O   UNL     1      44.910   3.283  10.622  0.00  0.00    +0.000 OA
ATOM     13  N   UNL     1      45.896   3.378   8.568  0.00  0.00    +0.000 N 
ATOM     14  C   UNL     1      46.622   4.012   7.483  0.00  0.00    +0.000 C 
ATOM     15  C   UNL     1      46.446   3.034   6.335  0.00  0.00    +0.000 C 
ATOM     16  C   UNL     1      46.478   1.674   7.024  0.00  0.00    +0.000 C 
ATOM     17  C   UNL     1      45.901   1.934   8.412  0.00  0.00    +0.000 C 
ATOM     18  H   UNL     1      45.354   5.778   8.843  0.00  0.00    +0.000 HD
ENDBRANCH   9  10
ENDBRANCH   6   9
ENDBRANCH   2   3
BRANCH   2  19
ATOM     19  C   UNL     1      48.263   9.453  15.339  0.00  0.00    +0.000 C 
BRANCH  19  20
ATOM     20  N   UNL     1      48.240   8.273  16.183  0.00  0.00    +0.000 N 
ATOM     21  C   UNL     1      49.360   7.788  16.811  0.00  0.00    +0.000 C 
ATOM     22  O   UNL     1      50.450   8.345  16.725  0.00  0.00    +0.000 OA
ATOM     23  H   UNL     1      47.398   7.707  16.156  0.00  0.00    +0.000 HD
BRANCH  21  24
ATOM     24  C   UNL     1      49.172   6.597  17.651  0.00  0.00    +0.000 A 
ATOM     25  C   UNL     1      49.640   6.598  18.958  0.00  0.00    +0.000 A 
ATOM     26  S   UNL     1      49.277   5.168  19.815  0.00  0.00    +0.000 S 
ATOM     27  C   UNL     1      48.528   4.477  18.454  0.00  0.00    +0.000 A 
ATOM     28  N   UNL     1      47.999   3.222  18.507  0.00  0.00    +0.000 NA
ATOM     29  C   UNL     1      47.505   2.804  17.388  0.00  0.00    +0.000 A 
ATOM     30  N   UNL     1      47.492   3.525  16.222  0.00  0.00    +0.000 N 
ATOM     31  C   UNL     1      47.966   4.813  16.136  0.00  0.00    +0.000 A 
ATOM     32  O   UNL     1      47.868   5.456  15.094  0.00  0.00    +0.000 OA
ATOM     33  C   UNL     1      48.550   5.326  17.361  0.00  0.00    +0.000 A 
ATOM     34  H   UNL     1      47.083   3.142  15.384  0.00  0.00    +0.000 HD
ENDBRANCH  21  24
ENDBRANCH  19  20
ENDBRANCH   2  19
TORSDOF 6
ENDMDL
MODEL 4
REMARK VINA RESULT:    -7.330      2.133      2.795
REMARK INTER + INTRA:         -10.713
REMARK INTER:                  -9.787
REMARK INTRA:                  -0.926
REMARK UNBOUND:                -0.812
REMARK  Name = 
REMARK  7 active torsions:
REMARK  status: ('A' for Active; 'I' for Inactive)
REMARK    1  A    between atoms: C_1  and  C_2
REMARK    2  A    between atoms: C_2  and  C_3
REMARK    3  A    between atoms: C_2  and  C_17
REMARK    4  A    between atoms: C_3  and  N_4
REMARK    5  A    between atoms: C_5  and  C_7
REMARK    6  A    between atoms: C_20  and  C_21
REMARK    7  A    between atoms: C_21  and  N_22
REMARK                            x       y       z     vdW  Elec       q    Type
REMARK                         _______ _______ _______ _____ _____    ______ ____
ROOT
ATOM      1  C   UNL     1      48.285  10.585  13.595  0.00  0.00    +0.000 C 
ATOM      2  C   UNL     1      48.429   9.066  13.816  0.00  0.00    +0.000 C 
ENDROOT
BRANCH   2   3
ATOM      3  C   UNL     1      47.458   8.236  12.957  0.00  0.00    +0.000 A 
ATOM      4  C   UNL     1      47.908   7.187  12.138  0.00  0.00    +0.000 A 
ATOM      5  C   UNL     1      47.021   6.412  11.384  0.00  0.00    +0.000 A 
ATOM      6  C   UNL     1      45.646   6.652  11.428  0.00  0.00    +0.000 A 
ATOM      7  C   UNL     1      45.176   7.664  12.268  0.00  0.00    +0.000 A 
ATOM      8  C   UNL     1      46.069   8.438  13.020  0.00  0.00    +0.000 A 
BRANCH   6   9
ATOM      9  C   UNL     1      44.684   5.807  10.636  0.00  0.00    +0.000 C 
BRANCH   9  10
ATOM     10  N   UNL     1      45.357   5.134   9.549  0.00  0.00    +0.000 N 
ATOM     11  C   UNL     1      45.403   3.767   9.536  0.00  0.00    +0.000 C 
ATOM     12  O   UNL     1      44.968   3.086  10.461  0.00  0.00    +0.000 OA
ATOM     13  N   UNL     1      45.968   3.212   8.415  0.00  0.00    +0.000 N 
ATOM     14  C   UNL     1      46.666   3.872   7.328  0.00  0.00    +0.000 C 
ATOM     15  C   UNL     1      46.561   2.869   6.193  0.00  0.00    +0.000 C 
ATOM     16  C   UNL     1      46.668   1.523   6.902  0.00  0.00    +0.000 C 
ATOM     17  C   UNL     1      46.062   1.768   8.281  0.00  0.00    +0.000 C 
ATOM     18  H   UNL     1      45.280   5.577   8.650  0.00  0.00    +0.000 HD
ENDBRANCH   9  10
ENDBRANCH   6   9
ENDBRANCH   2   3
BRANCH   2  19
ATOM     19  C   UNL     1      48.312   8.768  15.336  0.00  0.00    +0.000 C 
BRANCH  19  20
ATOM     20  N   UNL     1      48.399   7.360  15.672  0.00  0.00    +0.000 N 
ATOM     21  C   UNL     1      48.648   6.915  16.946  0.00  0.00    +0.000 C 
ATOM     22  O   UNL     1      48.776   7.685  17.893  0.00  0.00    +0.000 OA
ATOM     23  H   UNL     1      48.447   6.706  14.897  0.00  0.00    +0.000 HD
BRANCH  21  24
ATOM     24  C   UNL     1      48.684   5.458  17.132  0.00  0.00    +0.000 A 
ATOM     25  C   UNL     1      47.496   4.741  17.180  0.00  0.00    +0.000 A 
ATOM     26  S   UNL     1      47.719   3.057  17.328  0.00  0.00    +0.000 S 
ATOM     27  C   UNL     1      49.410   3.230  17.388  0.00  0.00    +0.000 A 
ATOM     28  N   UNL     1      50.221   2.144  17.527  0.00  0.00    +0.000 NA
ATOM     29  C   UNL     1      51.480   2.425  17.606  0.00  0.00    +0.000 A 
ATOM     30  N   UNL     1      52.001   3.693  17.561  0.00  0.00    +0.000 N 
ATOM     31  C   UNL     1      51.225   4.813  17.369  0.00  0.00    +0.000 A 
ATOM     32  O   UNL     1      51.735   5.924  17.256  0.00  0.00    +0.000 OA
ATOM     33  C   UNL     1      49.800   4.555  17.292  0.00  0.00    +0.000 A 
ATOM     34  H   UNL     1      52.996   3.843  17.621  0.00  0.00    +0.000 HD
ENDBRANCH  21  24
ENDBRANCH  19  20
ENDBRANCH   2  19
TORSDOF 6
ENDMDL
MODEL 5
REMARK VINA RESULT:    -7.220      1.834      2.349
REMARK INTER + INTRA:         -10.564
REMARK INTER:                  -9.528
REMARK INTRA:                  -1.037
REMARK UNBOUND:                -0.812
REMARK  Name = 
REMARK  7 active torsions:
REMARK  status: ('A' for Active; 'I' for Inactive)
REMARK    1  A    between atoms: C_1  and  C_2
REMARK    2  A    between atoms: C_2  and  C_3
REMARK    3  A    between atoms: C_2  and  C_17
REMARK    4  A    between atoms: C_3  and  N_4
REMARK    5  A    between atoms: C_5  and  C_7
REMARK    6  A    between atoms: C_20  and  C_21
REMARK    7  A    between atoms: C_21  and  N_22
REMARK                            x       y       z     vdW  Elec       q    Type
REMARK                         _______ _______ _______ _____ _____    ______ ____
ROOT
ATOM      1  C   UNL     1      47.704   3.677  15.781  0.00  0.00    +0.000 C 
ATOM      2  C   UNL     1      47.082   4.991  15.269  0.00  0.00    +0.000 C 
ENDROOT
BRANCH   2   3
ATOM      3  C   UNL     1      46.246   4.805  13.990  0.00  0.00    +0.000 A 
ATOM      4  C   UNL     1      45.674   5.897  13.316  0.00  0.00    +0.000 A 
ATOM      5  C   UNL     1      44.943   5.729  12.135  0.00  0.00    +0.000 A 
ATOM      6  C   UNL     1      44.764   4.461  11.577  0.00  0.00    +0.000 A 
ATOM      7  C   UNL     1      45.359   3.369  12.212  0.00  0.00    +0.000 A 
ATOM      8  C   UNL     1      46.089   3.541  13.395  0.00  0.00    +0.000 A 
BRANCH   6   9
ATOM      9  C   UNL     1      43.998   4.278  10.295  0.00  0.00    +0.000 C 
BRANCH   9  10
ATOM     10  N   UNL     1      44.683   3.371   9.404  0.00  0.00    +0.000 N 
ATOM     11  C   UNL     1      45.599   3.869   8.518  0.00  0.00    +0.000 C 
ATOM     12  O   UNL     1      45.800   5.075   8.390  0.00  0.00    +0.000 OA
ATOM     13  N   UNL     1      46.277   2.928   7.786  0.00  0.00    +0.000 N 
ATOM     14  C   UNL     1      46.041   1.498   7.704  0.00  0.00    +0.000 C 
ATOM     15  C   UNL     1      47.373   0.957   7.218  0.00  0.00    +0.000 C 
ATOM     16  C   UNL     1      47.865   2.040   6.263  0.00  0.00    +0.000 C 
ATOM     17  C   UNL     1      47.284   3.335   6.821  0.00  0.00    +0.000 C 
ATOM     18  H   UNL     1      44.892   2.464   9.784  0.00  0.00    +0.000 HD
ENDBRANCH   9  10
ENDBRANCH   6   9
ENDBRANCH   2   3
BRANCH   2  19
ATOM     19  C   UNL     1      48.206   6.052  15.118  0.00  0.00    +0.000 C 
BRANCH  19  20
ATOM     20  N   UNL     1      49.106   6.125  16.253  0.00  0.00    +0.000 N 
ATOM     21  C   UNL     1      50.351   6.699  16.178  0.00  0.00    +0.000 C 
ATOM     22  O   UNL     1      50.768   7.221  15.147  0.00  0.00    +0.000 OA
ATOM     23  H   UNL     1      48.858   5.577  17.071  0.00  0.00    +0.000 HD
BRANCH  21  24
ATOM     24  C   UNL     1      51.136   6.717  17.419  0.00  0.00    +0.000 A 
ATOM     25  C   UNL     1      51.520   7.932  17.971  0.00  0.00    +0.000 A 
ATOM     26  S   UNL     1      52.363   7.777  19.446  0.00  0.00    +0.000 S 
ATOM     27  C   UNL     1      52.291   6.079  19.371  0.00  0.00    +0.000 A 
ATOM     28  N   UNL     1      52.853   5.311  20.347  0.00  0.00    +0.000 NA
ATOM     29  C   UNL     1      52.767   4.038  20.139  0.00  0.00    +0.000 A 
ATOM     30  N   UNL     1      52.172   3.464  19.045  0.00  0.00    +0.000 N 
ATOM     31  C   UNL     1      51.547   4.198  18.064  0.00  0.00    +0.000 A 
ATOM     32  O   UNL     1      50.957   3.647  17.139  0.00  0.00    +0.000 OA
ATOM     33  C   UNL     1      51.630   5.636  18.239  0.00  0.00    +0.000 A 
ATOM     34  H   UNL     1      52.132   2.462  18.948  0.00  0.00    +0.000 HD
ENDBRANCH  21  24
ENDBRANCH  19  20
ENDBRANCH   2  19
TORSDOF 6
ENDMDL
MODEL 6
REMARK VINA RESULT:    -7.084      4.137      6.156
REMARK INTER + INTRA:         -10.381
REMARK INTER:                  -8.805
REMARK INTRA:                  -1.576
REMARK UNBOUND:                -0.812
REMARK  Name = 
REMARK  7 active torsions:
REMARK  status: ('A' for Active; 'I' for Inactive)
REMARK    1  A    between atoms: C_1  and  C_2
REMARK    2  A    between atoms: C_2  and  C_3
REMARK    3  A    between atoms: C_2  and  C_17
REMARK    4  A    between atoms: C_3  and  N_4
REMARK    5  A    between atoms: C_5  and  C_7
REMARK    6  A    between atoms: C_20  and  C_21
REMARK    7  A    between atoms: C_21  and  N_22
REMARK                            x       y       z     vdW  Elec       q    Type
REMARK                         _______ _______ _______ _____ _____    ______ ____
ROOT
ATOM      1  C   UNL     1      43.884   5.935  11.587  0.00  0.00    +0.000 C 
ATOM      2  C   UNL     1      44.813   6.140  12.800  0.00  0.00    +0.000 C 
ENDROOT
BRANCH   2   3
ATOM      3  C   UNL     1      45.981   7.099  12.511  0.00  0.00    +0.000 A 
ATOM      4  C   UNL     1      45.995   8.414  13.005  0.00  0.00    +0.000 A 
ATOM      5  C   UNL     1      47.073   9.275  12.769  0.00  0.00    +0.000 A 
ATOM      6  C   UNL     1      48.183   8.848  12.037  0.00  0.00    +0.000 A 
ATOM      7  C   UNL     1      48.203   7.532  11.572  0.00  0.00    +0.000 A 
ATOM      8  C   UNL     1      47.122   6.674  11.809  0.00  0.00    +0.000 A 
BRANCH   6   9
ATOM      9  C   UNL     1      49.354   9.763  11.799  0.00  0.00    +0.000 C 
BRANCH   9  10
ATOM     10  N   UNL     1      50.445   9.057  11.167  0.00  0.00    +0.000 N 
ATOM     11  C   UNL     1      51.608   8.866  11.861  0.00  0.00    +0.000 C 
ATOM     12  O   UNL     1      51.795   9.348  12.976  0.00  0.00    +0.000 OA
ATOM     13  N   UNL     1      52.549   8.096  11.225  0.00  0.00    +0.000 N 
ATOM     14  C   UNL     1      52.546   7.601   9.861  0.00  0.00    +0.000 C 
ATOM     15  C   UNL     1      53.504   6.425   9.921  0.00  0.00    +0.000 C 
ATOM     16  C   UNL     1      54.567   6.888  10.912  0.00  0.00    +0.000 C 
ATOM     17  C   UNL     1      53.821   7.813  11.868  0.00  0.00    +0.000 C 
ATOM     18  H   UNL     1      50.179   8.312  10.547  0.00  0.00    +0.000 HD
ENDBRANCH   9  10
ENDBRANCH   6   9
ENDBRANCH   2   3
BRANCH   2  19
ATOM     19  C   UNL     1      45.275   4.749  13.317  0.00  0.00    +0.000 C 
BRANCH  19  20
ATOM     20  N   UNL     1      45.985   4.794  14.581  0.00  0.00    +0.000 N 
ATOM     21  C   UNL     1      47.026   3.950  14.877  0.00  0.00    +0.000 C 
ATOM     22  O   UNL     1      47.446   3.123  14.072  0.00  0.00    +0.000 OA
ATOM     23  H   UNL     1      45.573   5.356  15.318  0.00  0.00    +0.000 HD
BRANCH  21  24
ATOM     24  C   UNL     1      47.660   4.133  16.189  0.00  0.00    +0.000 A 
ATOM     25  C   UNL     1      47.533   3.146  17.157  0.00  0.00    +0.000 A 
ATOM     26  S   UNL     1      48.388   3.484  18.594  0.00  0.00    +0.000 S 
ATOM     27  C   UNL     1      48.915   4.985  17.993  0.00  0.00    +0.000 A 
ATOM     28  N   UNL     1      49.696   5.808  18.748  0.00  0.00    +0.000 NA
ATOM     29  C   UNL     1      49.982   6.936  18.187  0.00  0.00    +0.000 A 
ATOM     30  N   UNL     1      49.558   7.317  16.940  0.00  0.00    +0.000 N 
ATOM     31  C   UNL     1      48.814   6.498  16.122  0.00  0.00    +0.000 A 
ATOM     32  O   UNL     1      48.518   6.843  14.981  0.00  0.00    +0.000 OA
ATOM     33  C   UNL     1      48.449   5.225  16.712  0.00  0.00    +0.000 A 
ATOM     34  H   UNL     1      49.824   8.210  16.556  0.00  0.00    +0.000 HD
ENDBRANCH  21  24
ENDBRANCH  19  20
ENDBRANCH   2  19
TORSDOF 6
ENDMDL
MODEL 7
REMARK VINA RESULT:    -6.918      3.694      7.034
REMARK INTER + INTRA:         -10.157
REMARK INTER:                  -8.651
REMARK INTRA:                  -1.506
REMARK UNBOUND:                -0.812
REMARK  Name = 
REMARK  7 active torsions:
REMARK  status: ('A' for Active; 'I' for Inactive)
REMARK    1  A    between atoms: C_1  and  C_2
REMARK    2  A    between atoms: C_2  and  C_3
REMARK    3  A    between atoms: C_2  and  C_17
REMARK    4  A    between atoms: C_3  and  N_4
REMARK    5  A    between atoms: C_5  and  C_7
REMARK    6  A    between atoms: C_20  and  C_21
REMARK    7  A    between atoms: C_21  and  N_22
REMARK                            x       y       z     vdW  Elec       q    Type
REMARK                         _______ _______ _______ _____ _____    ______ ____
ROOT
ATOM      1  C   UNL     1      45.085   4.857  10.745  0.00  0.00    +0.000 C 
ATOM      2  C   UNL     1      44.995   5.665  12.055  0.00  0.00    +0.000 C 
ENDROOT
BRANCH   2   3
ATOM      3  C   UNL     1      45.997   6.832  12.115  0.00  0.00    +0.000 A 
ATOM      4  C   UNL     1      47.340   6.671  11.736  0.00  0.00    +0.000 A 
ATOM      5  C   UNL     1      48.242   7.741  11.758  0.00  0.00    +0.000 A 
ATOM      6  C   UNL     1      47.830   9.016  12.153  0.00  0.00    +0.000 A 
ATOM      7  C   UNL     1      46.489   9.203  12.495  0.00  0.00    +0.000 A 
ATOM      8  C   UNL     1      45.590   8.128  12.472  0.00  0.00    +0.000 A 
BRANCH   6   9
ATOM      9  C   UNL     1      48.790  10.175  12.158  0.00  0.00    +0.000 C 
BRANCH   9  10
ATOM     10  N   UNL     1      49.903   9.924  13.044  0.00  0.00    +0.000 N 
ATOM     11  C   UNL     1      49.849  10.383  14.332  0.00  0.00    +0.000 C 
ATOM     12  O   UNL     1      48.923  11.078  14.743  0.00  0.00    +0.000 OA
ATOM     13  N   UNL     1      50.900  10.009  15.131  0.00  0.00    +0.000 N 
ATOM     14  C   UNL     1      52.132   9.340  14.756  0.00  0.00    +0.000 C 
ATOM     15  C   UNL     1      52.605   8.733  16.065  0.00  0.00    +0.000 C 
ATOM     16  C   UNL     1      52.199   9.774  17.103  0.00  0.00    +0.000 C 
ATOM     17  C   UNL     1      50.947  10.425  16.522  0.00  0.00    +0.000 C 
ATOM     18  H   UNL     1      50.373   9.045  12.913  0.00  0.00    +0.000 HD
ENDBRANCH   9  10
ENDBRANCH   6   9
ENDBRANCH   2   3
BRANCH   2  19
ATOM     19  C   UNL     1      45.120   4.687  13.256  0.00  0.00    +0.000 C 
BRANCH  19  20
ATOM     20  N   UNL     1      46.005   5.151  14.307  0.00  0.00    +0.000 N 
ATOM     21  C   UNL     1      47.084   4.425  14.743  0.00  0.00    +0.000 C 
ATOM     22  O   UNL     1      47.390   3.346  14.243  0.00  0.00    +0.000 OA
ATOM     23  H   UNL     1      45.699   5.959  14.840  0.00  0.00    +0.000 HD
BRANCH  21  24
ATOM     24  C   UNL     1      47.900   5.039  15.799  0.00  0.00    +0.000 A 
ATOM     25  C   UNL     1      48.576   6.225  15.543  0.00  0.00    +0.000 A 
ATOM     26  S   UNL     1      49.416   6.838  16.895  0.00  0.00    +0.000 S 
ATOM     27  C   UNL     1      48.950   5.513  17.855  0.00  0.00    +0.000 A 
ATOM     28  N   UNL     1      49.355   5.411  19.152  0.00  0.00    +0.000 NA
ATOM     29  C   UNL     1      48.969   4.331  19.748  0.00  0.00    +0.000 A 
ATOM     30  N   UNL     1      48.215   3.345  19.165  0.00  0.00    +0.000 N 
ATOM     31  C   UNL     1      47.740   3.431  17.877  0.00  0.00    +0.000 A 
ATOM     32  O   UNL     1      47.004   2.564  17.415  0.00  0.00    +0.000 OA
ATOM     33  C   UNL     1      48.162   4.617  17.155  0.00  0.00    +0.000 A 
ATOM     34  H   UNL     1      47.941   2.529  19.690  0.00  0.00    +0.000 HD
ENDBRANCH  21  24
ENDBRANCH  19  20
ENDBRANCH   2  19
TORSDOF 6
ENDMDL
MODEL 8
REMARK VINA RESULT:    -6.780      3.161      3.832
REMARK INTER + INTRA:          -9.971
REMARK INTER:                  -8.969
REMARK INTRA:                  -1.001
REMARK UNBOUND:                -0.812
REMARK  Name = 
REMARK  7 active torsions:
REMARK  status: ('A' for Active; 'I' for Inactive)
REMARK    1  A    between atoms: C_1  and  C_2
REMARK    2  A    between atoms: C_2  and  C_3
REMARK    3  A    between atoms: C_2  and  C_17
REMARK    4  A    between atoms: C_3  and  N_4
REMARK    5  A    between atoms: C_5  and  C_7
REMARK    6  A    between atoms: C_20  and  C_21
REMARK    7  A    between atoms: C_21  and  N_22
REMARK                            x       y       z     vdW  Elec       q    Type
REMARK                         _______ _______ _______ _____ _____    ______ ____
ROOT
ATOM      1  C   UNL     1      48.284   5.521  15.763  0.00  0.00    +0.000 C 
ATOM      2  C   UNL     1      47.693   6.328  14.589  0.00  0.00    +0.000 C 
ENDROOT
BRANCH   2   3
ATOM      3  C   UNL     1      46.793   5.483  13.669  0.00  0.00    +0.000 A 
ATOM      4  C   UNL     1      46.837   4.079  13.681  0.00  0.00    +0.000 A 
ATOM      5  C   UNL     1      45.994   3.312  12.869  0.00  0.00    +0.000 A 
ATOM      6  C   UNL     1      45.069   3.923  12.020  0.00  0.00    +0.000 A 
ATOM      7  C   UNL     1      44.984   5.317  12.024  0.00  0.00    +0.000 A 
ATOM      8  C   UNL     1      45.831   6.080  12.838  0.00  0.00    +0.000 A 
BRANCH   6   9
ATOM      9  C   UNL     1      44.145   3.102  11.160  0.00  0.00    +0.000 C 
BRANCH   9  10
ATOM     10  N   UNL     1      44.862   2.484  10.069  0.00  0.00    +0.000 N 
ATOM     11  C   UNL     1      45.087   3.201   8.925  0.00  0.00    +0.000 C 
ATOM     12  O   UNL     1      44.626   4.326   8.755  0.00  0.00    +0.000 OA
ATOM     13  N   UNL     1      45.865   2.573   7.985  0.00  0.00    +0.000 N 
ATOM     14  C   UNL     1      46.339   1.202   7.968  0.00  0.00    +0.000 C 
ATOM     15  C   UNL     1      47.534   1.264   7.033  0.00  0.00    +0.000 C 
ATOM     16  C   UNL     1      47.108   2.286   5.985  0.00  0.00    +0.000 C 
ATOM     17  C   UNL     1      46.183   3.240   6.734  0.00  0.00    +0.000 C 
ATOM     18  H   UNL     1      45.593   1.846  10.335  0.00  0.00    +0.000 HD
ENDBRANCH   9  10
ENDBRANCH   6   9
ENDBRANCH   2   3
BRANCH   2  19
ATOM     19  C   UNL     1      48.853   7.033  13.834  0.00  0.00    +0.000 C 
BRANCH  19  20
ATOM     20  N   UNL     1      50.089   7.111  14.589  0.00  0.00    +0.000 N 
ATOM     21  C   UNL     1      50.792   8.280  14.742  0.00  0.00    +0.000 C 
ATOM     22  O   UNL     1      50.398   9.345  14.277  0.00  0.00    +0.000 OA
ATOM     23  H   UNL     1      50.519   6.231  14.857  0.00  0.00    +0.000 HD
BRANCH  21  24
ATOM     24  C   UNL     1      52.014   8.203  15.554  0.00  0.00    +0.000 A 
ATOM     25  C   UNL     1      53.253   8.362  14.948  0.00  0.00    +0.000 A 
ATOM     26  S   UNL     1      54.561   8.317  16.043  0.00  0.00    +0.000 S 
ATOM     27  C   UNL     1      53.521   8.031  17.358  0.00  0.00    +0.000 A 
ATOM     28  N   UNL     1      54.013   7.875  18.619  0.00  0.00    +0.000 NA
ATOM     29  C   UNL     1      53.118   7.616  19.514  0.00  0.00    +0.000 A 
ATOM     30  N   UNL     1      51.775   7.497  19.262  0.00  0.00    +0.000 N 
ATOM     31  C   UNL     1      51.228   7.698  18.016  0.00  0.00    +0.000 A 
ATOM     32  O   UNL     1      50.013   7.660  17.843  0.00  0.00    +0.000 OA
ATOM     33  C   UNL     1      52.194   7.974  16.969  0.00  0.00    +0.000 A 
ATOM     34  H   UNL     1      51.127   7.300  20.008  0.00  0.00    +0.000 HD
ENDBRANCH  21  24
ENDBRANCH  19  20
ENDBRANCH   2  19
TORSDOF 6
ENDMDL
MODEL 9
REMARK VINA RESULT:    -6.720      5.029      7.895
REMARK INTER + INTRA:          -9.889
REMARK INTER:                  -8.642
REMARK INTRA:                  -1.247
REMARK UNBOUND:                -0.812
REMARK  Name = 
REMARK  7 active torsions:
REMARK  status: ('A' for Active; 'I' for Inactive)
REMARK    1  A    between atoms: C_1  and  C_2
REMARK    2  A    between atoms: C_2  and  C_3
REMARK    3  A    between atoms: C_2  and  C_17
REMARK    4  A    between atoms: C_3  and  N_4
REMARK    5  A    between atoms: C_5  and  C_7
REMARK    6  A    between atoms: C_20  and  C_21
REMARK    7  A    between atoms: C_21  and  N_22
REMARK                            x       y       z     vdW  Elec       q    Type
REMARK                         _______ _______ _______ _____ _____    ______ ____
ROOT
ATOM      1  C   UNL     1      48.369   8.996  15.864  0.00  0.00    +0.000 C 
ATOM      2  C   UNL     1      49.541   8.002  15.993  0.00  0.00    +0.000 C 
ENDROOT
BRANCH   2   3
ATOM      3  C   UNL     1      50.705   8.313  15.035  0.00  0.00    +0.000 A 
ATOM      4  C   UNL     1      51.990   7.783  15.238  0.00  0.00    +0.000 A 
ATOM      5  C   UNL     1      53.038   8.039  14.348  0.00  0.00    +0.000 A 
ATOM      6  C   UNL     1      52.837   8.828  13.213  0.00  0.00    +0.000 A 
ATOM      7  C   UNL     1      51.556   9.329  12.973  0.00  0.00    +0.000 A 
ATOM      8  C   UNL     1      50.510   9.072  13.868  0.00  0.00    +0.000 A 
BRANCH   6   9
ATOM      9  C   UNL     1      53.956   9.088  12.240  0.00  0.00    +0.000 C 
BRANCH   9  10
ATOM     10  N   UNL     1      53.651   8.541  10.939  0.00  0.00    +0.000 N 
ATOM     11  C   UNL     1      54.114   7.296  10.612  0.00  0.00    +0.000 C 
ATOM     12  O   UNL     1      54.856   6.656  11.353  0.00  0.00    +0.000 OA
ATOM     13  N   UNL     1      53.689   6.813   9.400  0.00  0.00    +0.000 N 
ATOM     14  C   UNL     1      52.958   7.504   8.353  0.00  0.00    +0.000 C 
ATOM     15  C   UNL     1      52.330   6.368   7.566  0.00  0.00    +0.000 C 
ATOM     16  C   UNL     1      53.393   5.275   7.618  0.00  0.00    +0.000 C 
ATOM     17  C   UNL     1      54.106   5.496   8.948  0.00  0.00    +0.000 C 
ATOM     18  H   UNL     1      52.749   8.783  10.566  0.00  0.00    +0.000 HD
ENDBRANCH   9  10
ENDBRANCH   6   9
ENDBRANCH   2   3
BRANCH   2  19
ATOM     19  C   UNL     1      48.990   6.557  15.842  0.00  0.00    +0.000 C 
BRANCH  19  20
ATOM     20  N   UNL     1      47.824   6.456  14.985  0.00  0.00    +0.000 N 
ATOM     21  C   UNL     1      47.914   6.222  13.636  0.00  0.00    +0.000 C 
ATOM     22  O   UNL     1      48.991   6.048  13.073  0.00  0.00    +0.000 OA
ATOM     23  H   UNL     1      46.936   6.741  15.384  0.00  0.00    +0.000 HD
BRANCH  21  24
ATOM     24  C   UNL     1      46.643   6.122  12.906  0.00  0.00    +0.000 A 
ATOM     25  C   UNL     1      46.065   7.267  12.373  0.00  0.00    +0.000 A 
ATOM     26  S   UNL     1      44.633   6.965  11.497  0.00  0.00    +0.000 S 
ATOM     27  C   UNL     1      44.706   5.302  11.843  0.00  0.00    +0.000 A 
ATOM     28  N   UNL     1      43.746   4.448  11.388  0.00  0.00    +0.000 NA
ATOM     29  C   UNL     1      43.900   3.222  11.765  0.00  0.00    +0.000 A 
ATOM     30  N   UNL     1      44.926   2.771  12.555  0.00  0.00    +0.000 N 
ATOM     31  C   UNL     1      45.945   3.585  12.992  0.00  0.00    +0.000 A 
ATOM     32  O   UNL     1      46.888   3.131  13.634  0.00  0.00    +0.000 OA
ATOM     33  C   UNL     1      45.810   4.979  12.613  0.00  0.00    +0.000 A 
ATOM     34  H   UNL     1      44.992   1.797  12.807  0.00  0.00    +0.000 HD
ENDBRANCH  21  24
ENDBRANCH  19  20
ENDBRANCH   2  19
TORSDOF 6
ENDMDL
