MODEL 1
REMARK VINA RESULT:    -8.721      0.000      0.000
REMARK INTER + INTRA:         -14.324
REMARK INTER:                 -13.054
REMARK INTRA:                  -1.270
REMARK UNBOUND:                -1.270
REMARK  Name = 
REMARK  9 active torsions:
REMARK  status: ('A' for Active; 'I' for Inactive)
REMARK    1  A    between atoms: C_2  and  C_22
REMARK    2  A    between atoms: N_3  and  C_4
REMARK    3  A    between atoms: C_4  and  C_5
REMARK    4  A    between atoms: C_8  and  C_9
REMARK    5  A    between atoms: C_9  and  C_10
REMARK    6  A    between atoms: C_10  and  C_11
REMARK    7  A    between atoms: C_10  and  C_13
REMARK    8  A    between atoms: C_11  and  O_12
REMARK    9  A    between atoms: C_13  and  C_14
REMARK                            x       y       z     vdW  Elec       q    Type
REMARK                         _______ _______ _______ _____ _____    ______ ____
ROOT
ATOM      1  C   UNL     1      46.194   7.246  12.416  0.00  0.00    +0.000 A 
ATOM      2  C   UNL     1      46.772   6.713  11.257  0.00  0.00    +0.000 A 
ATOM      3  C   UNL     1      46.049   5.853  10.431  0.00  0.00    +0.000 A 
ATOM      4  C   UNL     1      44.742   5.477  10.765  0.00  0.00    +0.000 A 
ATOM      5  C   UNL     1      44.133   6.079  11.875  0.00  0.00    +0.000 A 
ATOM      6  C   UNL     1      44.849   6.967  12.686  0.00  0.00    +0.000 A 
ENDROOT
BRANCH   1   7
ATOM      7  C   UNL     1      47.022   8.113  13.328  0.00  0.00    +0.000 C 
BRANCH   7  10
ATOM      8  O   UNL     1      49.517   6.869  13.653  0.00  0.00    +0.000 OA
ATOM      9  C   UNL     1      48.720   6.870  14.584  0.00  0.00    +0.000 C 
ATOM     10  N   UNL     1      47.460   7.397  14.487  0.00  0.00    +0.000 N 
ATOM     11  H   UNL     1      46.926   7.567  15.335  0.00  0.00    +0.000 HD
BRANCH   9  12
ATOM     12  C   UNL     1      49.051   6.258  15.867  0.00  0.00    +0.000 A 
ATOM     13  C   UNL     1      50.044   6.805  16.673  0.00  0.00    +0.000 A 
ATOM     14  S   UNL     1      50.255   5.974  18.147  0.00  0.00    +0.000 S 
ATOM     15  C   UNL     1      49.011   4.875  17.771  0.00  0.00    +0.000 A 
ATOM     16  N   UNL     1      48.642   3.901  18.644  0.00  0.00    +0.000 NA
ATOM     17  C   UNL     1      47.659   3.168  18.238  0.00  0.00    +0.000 A 
ATOM     18  N   UNL     1      47.028   3.300  17.027  0.00  0.00    +0.000 N 
ATOM     19  C   UNL     1      47.426   4.208  16.080  0.00  0.00    +0.000 A 
ATOM     20  O   UNL     1      46.951   4.186  14.951  0.00  0.00    +0.000 OA
ATOM     21  C   UNL     1      48.476   5.107  16.516  0.00  0.00    +0.000 A 
ATOM     22  H   UNL     1      46.298   2.659  16.750  0.00  0.00    +0.000 HD
ENDBRANCH   9  12
ENDBRANCH   7  10
ENDBRANCH   1   7
BRANCH   4  23
ATOM     23  C   UNL     1      44.019   4.419   9.957  0.00  0.00    +0.000 C 
BRANCH  23  24
ATOM     24  C   UNL     1      44.326   2.969  10.418  0.00  0.00    +0.000 C 
BRANCH  24  25
ATOM     25  C   UNL     1      43.365   2.486  11.518  0.00  0.00    +0.000 C 
BRANCH  25  26
ATOM     26  O   UNL     1      43.981   2.510  12.800  0.00  0.00    +0.000 OA
ATOM     27  H   UNL     1      44.931   2.660  12.655  0.00  0.00    +0.000 HD
ENDBRANCH  25  26
ENDBRANCH  24  25
BRANCH  24  28
ATOM     28  C   UNL     1      44.297   1.972   9.231  0.00  0.00    +0.000 C 
BRANCH  28  29
ATOM     29  C   UNL     1      45.476   2.135   8.300  0.00  0.00    +0.000 A 
ATOM     30  C   UNL     1      45.746   3.363   7.700  0.00  0.00    +0.000 A 
ATOM     31  C   UNL     1      46.916   3.505   6.958  0.00  0.00    +0.000 A 
ATOM     32  C   UNL     1      47.763   2.416   6.804  0.00  0.00    +0.000 A 
ATOM     33  C   UNL     1      47.393   1.216   7.385  0.00  0.00    +0.000 A 
ATOM     34  N   UNL     1      46.276   1.054   8.128  0.00  0.00    +0.000 NA
ENDBRANCH  28  29
ENDBRANCH  24  28
ENDBRANCH  23  24
ENDBRANCH   4  23
TORSDOF 9
ENDMDL
MODEL 2
REMARK VINA RESULT:    -8.030      1.450      1.860
REMARK INTER + INTRA:         -13.289
REMARK INTER:                 -11.656
REMARK INTRA:                  -1.634
REMARK UNBOUND:                -1.270
REMARK  Name = 
REMARK  9 active torsions:
REMARK  status: ('A' for Active; 'I' for Inactive)
REMARK    1  A    between atoms: C_2  and  C_22
REMARK    2  A    between atoms: N_3  and  C_4
REMARK    3  A    between atoms: C_4  and  C_5
REMARK    4  A    between atoms: C_8  and  C_9
REMARK    5  A    between atoms: C_9  and  C_10
REMARK    6  A    between atoms: C_10  and  C_11
REMARK    7  A    between atoms: C_10  and  C_13
REMARK    8  A    between atoms: C_11  and  O_12
REMARK    9  A    between atoms: C_13  and  C_14
REMARK                            x       y       z     vdW  Elec       q    Type
REMARK                         _______ _______ _______ _____ _____    ______ ____
ROOT
ATOM      1  C   UNL     1      47.664   8.016  13.062  0.00  0.00    +0.000 A 
ATOM      2  C   UNL     1      47.851   6.919  12.214  0.00  0.00    +0.000 A 
ATOM      3  C   UNL     1      46.764   6.307  11.590  0.00  0.00    +0.000 A 
ATOM      4  C   UNL     1      45.460   6.758  11.829  0.00  0.00    +0.000 A 
ATOM      5  C   UNL     1      45.280   7.910  12.606  0.00  0.00    +0.000 A 
ATOM      6  C   UNL     1      46.374   8.543  13.206  0.00  0.00    +0.000 A 
ENDROOT
BRANCH   1   7
ATOM      7  C   UNL     1      48.847   8.610  13.781  0.00  0.00    +0.000 C 
BRANCH   7  10
ATOM      8  O   UNL     1      47.959   9.183  16.380  0.00  0.00    +0.000 OA
ATOM      9  C   UNL     1      48.649   8.188  16.187  0.00  0.00    +0.000 C 
ATOM     10  N   UNL     1      49.175   7.873  14.962  0.00  0.00    +0.000 N 
ATOM     11  H   UNL     1      49.550   6.941  14.809  0.00  0.00    +0.000 HD
BRANCH   9  12
ATOM     12  C   UNL     1      48.998   7.283  17.277  0.00  0.00    +0.000 A 
ATOM     13  C   UNL     1      49.634   7.764  18.415  0.00  0.00    +0.000 A 
ATOM     14  S   UNL     1      49.919   6.563  19.592  0.00  0.00    +0.000 S 
ATOM     15  C   UNL     1      49.179   5.369  18.632  0.00  0.00    +0.000 A 
ATOM     16  N   UNL     1      49.049   4.088  19.074  0.00  0.00    +0.000 NA
ATOM     17  C   UNL     1      48.433   3.305  18.254  0.00  0.00    +0.000 A 
ATOM     18  N   UNL     1      47.957   3.672  17.021  0.00  0.00    +0.000 N 
ATOM     19  C   UNL     1      48.145   4.926  16.499  0.00  0.00    +0.000 A 
ATOM     20  O   UNL     1      47.856   5.170  15.333  0.00  0.00    +0.000 OA
ATOM     21  C   UNL     1      48.765   5.867  17.410  0.00  0.00    +0.000 A 
ATOM     22  H   UNL     1      47.529   2.994  16.407  0.00  0.00    +0.000 HD
ENDBRANCH   9  12
ENDBRANCH   7  10
ENDBRANCH   1   7
BRANCH   4  23
ATOM     23  C   UNL     1      44.272   5.993  11.281  0.00  0.00    +0.000 C 
BRANCH  23  24
ATOM     24  C   UNL     1      44.572   4.493  11.011  0.00  0.00    +0.000 C 
BRANCH  24  25
ATOM     25  C   UNL     1      43.955   3.570  12.075  0.00  0.00    +0.000 C 
BRANCH  25  26
ATOM     26  O   UNL     1      44.886   2.593  12.524  0.00  0.00    +0.000 OA
ATOM     27  H   UNL     1      44.414   1.742  12.548  0.00  0.00    +0.000 HD
ENDBRANCH  25  26
ENDBRANCH  24  25
BRANCH  24  28
ATOM     28  C   UNL     1      44.089   4.058   9.603  0.00  0.00    +0.000 C 
BRANCH  28  29
ATOM     29  C   UNL     1      45.182   3.417   8.781  0.00  0.00    +0.000 A 
ATOM     30  C   UNL     1      45.440   2.052   8.879  0.00  0.00    +0.000 A 
ATOM     31  C   UNL     1      46.363   1.478   8.007  0.00  0.00    +0.000 A 
ATOM     32  C   UNL     1      47.027   2.283   7.091  0.00  0.00    +0.000 A 
ATOM     33  C   UNL     1      46.755   3.640   7.098  0.00  0.00    +0.000 A 
ATOM     34  N   UNL     1      45.849   4.220   7.916  0.00  0.00    +0.000 NA
ENDBRANCH  28  29
ENDBRANCH  24  28
ENDBRANCH  23  24
ENDBRANCH   4  23
TORSDOF 9
ENDMDL
MODEL 3
REMARK VINA RESULT:    -7.865      2.601      3.278
REMARK INTER + INTRA:         -13.043
REMARK INTER:                 -11.960
REMARK INTRA:                  -1.083
REMARK UNBOUND:                -1.270
REMARK  Name = 
REMARK  9 active torsions:
REMARK  status: ('A' for Active; 'I' for Inactive)
REMARK    1  A    between atoms: C_2  and  C_22
REMARK    2  A    between atoms: N_3  and  C_4
REMARK    3  A    between atoms: C_4  and  C_5
REMARK    4  A    between atoms: C_8  and  C_9
REMARK    5  A    between atoms: C_9  and  C_10
REMARK    6  A    between atoms: C_10  and  C_11
REMARK    7  A    between atoms: C_10  and  C_13
REMARK    8  A    between atoms: C_11  and  O_12
REMARK    9  A    between atoms: C_13  and  C_14
REMARK                            x       y       z     vdW  Elec       q    Type
REMARK                         _______ _______ _______ _____ _____    ______ ____
ROOT
ATOM      1  C   UNL     1      47.908   6.488  13.493  0.00  0.00    +0.000 A 
ATOM      2  C   UNL     1      47.076   5.424  13.860  0.00  0.00    +0.000 A 
ATOM      3  C   UNL     1      46.073   4.975  13.001  0.00  0.00    +0.000 A 
ATOM      4  C   UNL     1      45.854   5.606  11.771  0.00  0.00    +0.000 A 
ATOM      5  C   UNL     1      46.742   6.612  11.365  0.00  0.00    +0.000 A 
ATOM      6  C   UNL     1      47.769   7.041  12.213  0.00  0.00    +0.000 A 
ENDROOT
BRANCH   1   7
ATOM      7  C   UNL     1      48.934   7.000  14.469  0.00  0.00    +0.000 C 
BRANCH   7  10
ATOM      8  O   UNL     1      49.962   5.605  16.677  0.00  0.00    +0.000 OA
ATOM      9  C   UNL     1      49.022   6.376  16.837  0.00  0.00    +0.000 C 
ATOM     10  N   UNL     1      48.422   7.044  15.804  0.00  0.00    +0.000 N 
ATOM     11  H   UNL     1      47.802   7.823  16.011  0.00  0.00    +0.000 HD
BRANCH   9  12
ATOM     12  C   UNL     1      48.442   6.600  18.158  0.00  0.00    +0.000 A 
ATOM     13  C   UNL     1      48.235   5.535  19.026  0.00  0.00    +0.000 A 
ATOM     14  S   UNL     1      47.589   6.005  20.534  0.00  0.00    +0.000 S 
ATOM     15  C   UNL     1      47.591   7.646  20.086  0.00  0.00    +0.000 A 
ATOM     16  N   UNL     1      47.186   8.614  20.951  0.00  0.00    +0.000 NA
ATOM     17  C   UNL     1      47.279   9.815  20.486  0.00  0.00    +0.000 A 
ATOM     18  N   UNL     1      47.713  10.138  19.225  0.00  0.00    +0.000 N 
ATOM     19  C   UNL     1      48.044   9.192  18.290  0.00  0.00    +0.000 A 
ATOM     20  O   UNL     1      48.264   9.508  17.128  0.00  0.00    +0.000 OA
ATOM     21  C   UNL     1      48.030   7.829  18.787  0.00  0.00    +0.000 A 
ATOM     22  H   UNL     1      47.712  11.097  18.906  0.00  0.00    +0.000 HD
ENDBRANCH   9  12
ENDBRANCH   7  10
ENDBRANCH   1   7
BRANCH   4  23
ATOM     23  C   UNL     1      44.663   5.225  10.915  0.00  0.00    +0.000 C 
BRANCH  23  24
ATOM     24  C   UNL     1      44.752   3.786  10.336  0.00  0.00    +0.000 C 
BRANCH  24  25
ATOM     25  C   UNL     1      43.772   2.817  11.020  0.00  0.00    +0.000 C 
BRANCH  25  26
ATOM     26  O   UNL     1      42.631   3.498  11.527  0.00  0.00    +0.000 OA
ATOM     27  H   UNL     1      41.852   3.105  11.097  0.00  0.00    +0.000 HD
ENDBRANCH  25  26
ENDBRANCH  24  25
BRANCH  24  28
ATOM     28  C   UNL     1      44.513   3.770   8.804  0.00  0.00    +0.000 C 
BRANCH  28  29
ATOM     29  C   UNL     1      45.549   2.963   8.058  0.00  0.00    +0.000 A 
ATOM     30  C   UNL     1      46.335   3.551   7.069  0.00  0.00    +0.000 A 
ATOM     31  C   UNL     1      47.367   2.809   6.501  0.00  0.00    +0.000 A 
ATOM     32  C   UNL     1      47.565   1.495   6.905  0.00  0.00    +0.000 A 
ATOM     33  C   UNL     1      46.704   0.968   7.851  0.00  0.00    +0.000 A 
ATOM     34  N   UNL     1      45.708   1.671   8.435  0.00  0.00    +0.000 NA
ENDBRANCH  28  29
ENDBRANCH  24  28
ENDBRANCH  23  24
ENDBRANCH   4  23
TORSDOF 9
ENDMDL
MODEL 4
REMARK VINA RESULT:    -7.547      1.885      2.274
REMARK INTER + INTRA:         -12.567
REMARK INTER:                 -11.332
REMARK INTRA:                  -1.234
REMARK UNBOUND:                -1.270
REMARK  Name = 
REMARK  9 active torsions:
REMARK  status: ('A' for Active; 'I' for Inactive)
REMARK    1  A    between atoms: C_2  and  C_22
REMARK    2  A    between atoms: N_3  and  C_4
REMARK    3  A    between atoms: C_4  and  C_5
REMARK    4  A    between atoms: C_8  and  C_9
REMARK    5  A    between atoms: C_9  and  C_10
REMARK    6  A    between atoms: C_10  and  C_11
REMARK    7  A    between atoms: C_10  and  C_13
REMARK    8  A    between atoms: C_11  and  O_12
REMARK    9  A    between atoms: C_13  and  C_14
REMARK                            x       y       z     vdW  Elec       q    Type
REMARK                         _______ _______ _______ _____ _____    ______ ____
ROOT
ATOM      1  C   UNL     1      47.920   6.702  13.504  0.00  0.00    +0.000 A 
ATOM      2  C   UNL     1      47.098   7.594  12.806  0.00  0.00    +0.000 A 
ATOM      3  C   UNL     1      45.948   7.145  12.157  0.00  0.00    +0.000 A 
ATOM      4  C   UNL     1      45.615   5.785  12.160  0.00  0.00    +0.000 A 
ATOM      5  C   UNL     1      46.388   4.907  12.932  0.00  0.00    +0.000 A 
ATOM      6  C   UNL     1      47.523   5.364  13.610  0.00  0.00    +0.000 A 
ENDROOT
BRANCH   1   7
ATOM      7  C   UNL     1      49.194   7.203  14.133  0.00  0.00    +0.000 C 
BRANCH   7  10
ATOM      8  O   UNL     1      51.069   6.217  15.973  0.00  0.00    +0.000 OA
ATOM      9  C   UNL     1      50.083   6.819  16.384  0.00  0.00    +0.000 C 
ATOM     10  N   UNL     1      49.090   7.274  15.558  0.00  0.00    +0.000 N 
ATOM     11  H   UNL     1      48.416   7.945  15.916  0.00  0.00    +0.000 HD
BRANCH   9  12
ATOM     12  C   UNL     1      49.876   7.053  17.810  0.00  0.00    +0.000 A 
ATOM     13  C   UNL     1      50.723   7.902  18.514  0.00  0.00    +0.000 A 
ATOM     14  S   UNL     1      50.293   8.079  20.155  0.00  0.00    +0.000 S 
ATOM     15  C   UNL     1      48.950   7.052  19.972  0.00  0.00    +0.000 A 
ATOM     16  N   UNL     1      48.107   6.799  21.010  0.00  0.00    +0.000 NA
ATOM     17  C   UNL     1      47.112   6.034  20.712  0.00  0.00    +0.000 A 
ATOM     18  N   UNL     1      46.892   5.473  19.480  0.00  0.00    +0.000 N 
ATOM     19  C   UNL     1      47.762   5.627  18.431  0.00  0.00    +0.000 A 
ATOM     20  O   UNL     1      47.623   4.979  17.400  0.00  0.00    +0.000 OA
ATOM     21  C   UNL     1      48.858   6.540  18.690  0.00  0.00    +0.000 A 
ATOM     22  H   UNL     1      46.120   4.841  19.328  0.00  0.00    +0.000 HD
ENDBRANCH   9  12
ENDBRANCH   7  10
ENDBRANCH   1   7
BRANCH   4  23
ATOM     23  C   UNL     1      44.460   5.277  11.321  0.00  0.00    +0.000 C 
BRANCH  23  24
ATOM     24  C   UNL     1      44.470   3.737  11.120  0.00  0.00    +0.000 C 
BRANCH  24  25
ATOM     25  C   UNL     1      43.662   2.999  12.201  0.00  0.00    +0.000 C 
BRANCH  25  26
ATOM     26  O   UNL     1      43.084   1.801  11.695  0.00  0.00    +0.000 OA
ATOM     27  H   UNL     1      42.447   1.491  12.361  0.00  0.00    +0.000 HD
ENDBRANCH  25  26
ENDBRANCH  24  25
BRANCH  24  28
ATOM     28  C   UNL     1      43.944   3.339   9.717  0.00  0.00    +0.000 C 
BRANCH  28  29
ATOM     29  C   UNL     1      45.053   2.983   8.755  0.00  0.00    +0.000 A 
ATOM     30  C   UNL     1      45.662   3.963   7.974  0.00  0.00    +0.000 A 
ATOM     31  C   UNL     1      46.767   3.616   7.201  0.00  0.00    +0.000 A 
ATOM     32  C   UNL     1      47.212   2.300   7.199  0.00  0.00    +0.000 A 
ATOM     33  C   UNL     1      46.515   1.376   7.957  0.00  0.00    +0.000 A 
ATOM     34  N   UNL     1      45.454   1.688   8.733  0.00  0.00    +0.000 NA
ENDBRANCH  28  29
ENDBRANCH  24  28
ENDBRANCH  23  24
ENDBRANCH   4  23
TORSDOF 9
ENDMDL
MODEL 5
REMARK VINA RESULT:    -7.220      2.510      3.218
REMARK INTER + INTRA:         -12.077
REMARK INTER:                 -10.938
REMARK INTRA:                  -1.140
REMARK UNBOUND:                -1.270
REMARK  Name = 
REMARK  9 active torsions:
REMARK  status: ('A' for Active; 'I' for Inactive)
REMARK    1  A    between atoms: C_2  and  C_22
REMARK    2  A    between atoms: N_3  and  C_4
REMARK    3  A    between atoms: C_4  and  C_5
REMARK    4  A    between atoms: C_8  and  C_9
REMARK    5  A    between atoms: C_9  and  C_10
REMARK    6  A    between atoms: C_10  and  C_11
REMARK    7  A    between atoms: C_10  and  C_13
REMARK    8  A    between atoms: C_11  and  O_12
REMARK    9  A    between atoms: C_13  and  C_14
REMARK                            x       y       z     vdW  Elec       q    Type
REMARK                         _______ _______ _______ _____ _____    ______ ____
ROOT
ATOM      1  C   UNL     1      48.111   6.940  14.710  0.00  0.00    +0.000 A 
ATOM      2  C   UNL     1      47.807   5.607  14.413  0.00  0.00    +0.000 A 
ATOM      3  C   UNL     1      47.165   5.271  13.222  0.00  0.00    +0.000 A 
ATOM      4  C   UNL     1      46.779   6.267  12.317  0.00  0.00    +0.000 A 
ATOM      5  C   UNL     1      47.161   7.591  12.572  0.00  0.00    +0.000 A 
ATOM      6  C   UNL     1      47.835   7.923  13.752  0.00  0.00    +0.000 A 
ENDROOT
BRANCH   1   7
ATOM      7  C   UNL     1      48.739   7.281  16.037  0.00  0.00    +0.000 C 
BRANCH   7  10
ATOM      8  O   UNL     1      49.745   6.740  18.600  0.00  0.00    +0.000 OA
ATOM      9  C   UNL     1      50.225   6.162  17.631  0.00  0.00    +0.000 C 
ATOM     10  N   UNL     1      49.836   6.416  16.343  0.00  0.00    +0.000 N 
ATOM     11  H   UNL     1      50.103   5.768  15.608  0.00  0.00    +0.000 HD
BRANCH   9  12
ATOM     12  C   UNL     1      51.294   5.181  17.787  0.00  0.00    +0.000 A 
ATOM     13  C   UNL     1      52.555   5.575  18.218  0.00  0.00    +0.000 A 
ATOM     14  S   UNL     1      53.654   4.280  18.378  0.00  0.00    +0.000 S 
ATOM     15  C   UNL     1      52.475   3.149  17.904  0.00  0.00    +0.000 A 
ATOM     16  N   UNL     1      52.750   1.817  17.864  0.00  0.00    +0.000 NA
ATOM     17  C   UNL     1      51.747   1.078  17.524  0.00  0.00    +0.000 A 
ATOM     18  N   UNL     1      50.501   1.547  17.194  0.00  0.00    +0.000 N 
ATOM     19  C   UNL     1      50.204   2.884  17.133  0.00  0.00    +0.000 A 
ATOM     20  O   UNL     1      49.136   3.270  16.675  0.00  0.00    +0.000 OA
ATOM     21  C   UNL     1      51.274   3.755  17.580  0.00  0.00    +0.000 A 
ATOM     22  H   UNL     1      49.774   0.916  16.886  0.00  0.00    +0.000 HD
ENDBRANCH   9  12
ENDBRANCH   7  10
ENDBRANCH   1   7
BRANCH   4  23
ATOM     23  C   UNL     1      45.939   5.918  11.105  0.00  0.00    +0.000 C 
BRANCH  23  24
ATOM     24  C   UNL     1      44.735   4.992  11.431  0.00  0.00    +0.000 C 
BRANCH  24  25
ATOM     25  C   UNL     1      43.771   5.621  12.452  0.00  0.00    +0.000 C 
BRANCH  25  26
ATOM     26  O   UNL     1      42.475   5.815  11.897  0.00  0.00    +0.000 OA
ATOM     27  H   UNL     1      41.845   5.359  12.481  0.00  0.00    +0.000 HD
ENDBRANCH  25  26
ENDBRANCH  24  25
BRANCH  24  28
ATOM     28  C   UNL     1      43.952   4.599  10.151  0.00  0.00    +0.000 C 
BRANCH  28  29
ATOM     29  C   UNL     1      44.761   3.737   9.211  0.00  0.00    +0.000 A 
ATOM     30  C   UNL     1      45.458   4.303   8.146  0.00  0.00    +0.000 A 
ATOM     31  C   UNL     1      46.297   3.493   7.385  0.00  0.00    +0.000 A 
ATOM     32  C   UNL     1      46.391   2.140   7.682  0.00  0.00    +0.000 A 
ATOM     33  C   UNL     1      45.621   1.645   8.720  0.00  0.00    +0.000 A 
ATOM     34  N   UNL     1      44.816   2.411   9.488  0.00  0.00    +0.000 NA
ENDBRANCH  28  29
ENDBRANCH  24  28
ENDBRANCH  23  24
ENDBRANCH   4  23
TORSDOF 9
ENDMDL
MODEL 6
REMARK VINA RESULT:    -7.201      3.405      4.736
REMARK INTER + INTRA:         -12.050
REMARK INTER:                 -11.084
REMARK INTRA:                  -0.966
REMARK UNBOUND:                -1.270
REMARK  Name = 
REMARK  9 active torsions:
REMARK  status: ('A' for Active; 'I' for Inactive)
REMARK    1  A    between atoms: C_2  and  C_22
REMARK    2  A    between atoms: N_3  and  C_4
REMARK    3  A    between atoms: C_4  and  C_5
REMARK    4  A    between atoms: C_8  and  C_9
REMARK    5  A    between atoms: C_9  and  C_10
REMARK    6  A    between atoms: C_10  and  C_11
REMARK    7  A    between atoms: C_10  and  C_13
REMARK    8  A    between atoms: C_11  and  O_12
REMARK    9  A    between atoms: C_13  and  C_14
REMARK                            x       y       z     vdW  Elec       q    Type
REMARK                         _______ _______ _______ _____ _____    ______ ____
ROOT
ATOM      1  C   UNL     1      47.668   6.434  13.893  0.00  0.00    +0.000 A 
ATOM      2  C   UNL     1      47.128   7.293  12.928  0.00  0.00    +0.000 A 
ATOM      3  C   UNL     1      46.192   6.828  12.005  0.00  0.00    +0.000 A 
ATOM      4  C   UNL     1      45.802   5.484  12.002  0.00  0.00    +0.000 A 
ATOM      5  C   UNL     1      46.274   4.646  13.022  0.00  0.00    +0.000 A 
ATOM      6  C   UNL     1      47.188   5.121  13.968  0.00  0.00    +0.000 A 
ENDROOT
BRANCH   1   7
ATOM      7  C   UNL     1      48.731   6.945  14.830  0.00  0.00    +0.000 C 
BRANCH   7  10
ATOM      8  O   UNL     1      49.777   9.539  14.602  0.00  0.00    +0.000 OA
ATOM      9  C   UNL     1      50.396   8.596  14.119  0.00  0.00    +0.000 C 
ATOM     10  N   UNL     1      49.924   7.311  14.130  0.00  0.00    +0.000 N 
ATOM     11  H   UNL     1      50.560   6.548  13.917  0.00  0.00    +0.000 HD
BRANCH   9  12
ATOM     12  C   UNL     1      51.677   8.794  13.448  0.00  0.00    +0.000 A 
ATOM     13  C   UNL     1      52.737   9.393  14.118  0.00  0.00    +0.000 A 
ATOM     14  S   UNL     1      54.160   9.496  13.182  0.00  0.00    +0.000 S 
ATOM     15  C   UNL     1      53.414   8.721  11.864  0.00  0.00    +0.000 A 
ATOM     16  N   UNL     1      54.102   8.453  10.721  0.00  0.00    +0.000 NA
ATOM     17  C   UNL     1      53.418   7.827   9.824  0.00  0.00    +0.000 A 
ATOM     18  N   UNL     1      52.100   7.467   9.949  0.00  0.00    +0.000 N 
ATOM     19  C   UNL     1      51.343   7.796  11.043  0.00  0.00    +0.000 A 
ATOM     20  O   UNL     1      50.133   7.606  11.050  0.00  0.00    +0.000 OA
ATOM     21  C   UNL     1      52.085   8.433  12.114  0.00  0.00    +0.000 A 
ATOM     22  H   UNL     1      51.609   7.024   9.185  0.00  0.00    +0.000 HD
ENDBRANCH   9  12
ENDBRANCH   7  10
ENDBRANCH   1   7
BRANCH   4  23
ATOM     23  C   UNL     1      44.912   4.946  10.900  0.00  0.00    +0.000 C 
BRANCH  23  24
ATOM     24  C   UNL     1      44.757   3.401  10.928  0.00  0.00    +0.000 C 
BRANCH  24  25
ATOM     25  C   UNL     1      43.852   2.922  12.076  0.00  0.00    +0.000 C 
BRANCH  25  26
ATOM     26  O   UNL     1      43.024   1.838  11.673  0.00  0.00    +0.000 OA
ATOM     27  H   UNL     1      42.360   1.713  12.373  0.00  0.00    +0.000 HD
ENDBRANCH  25  26
ENDBRANCH  24  25
BRANCH  24  28
ATOM     28  C   UNL     1      44.215   2.856   9.580  0.00  0.00    +0.000 C 
BRANCH  28  29
ATOM     29  C   UNL     1      45.310   2.591   8.573  0.00  0.00    +0.000 A 
ATOM     30  C   UNL     1      45.784   3.611   7.751  0.00  0.00    +0.000 A 
ATOM     31  C   UNL     1      46.883   3.359   6.933  0.00  0.00    +0.000 A 
ATOM     32  C   UNL     1      47.454   2.093   6.929  0.00  0.00    +0.000 A 
ATOM     33  C   UNL     1      46.886   1.120   7.732  0.00  0.00    +0.000 A 
ATOM     34  N   UNL     1      45.835   1.342   8.552  0.00  0.00    +0.000 NA
ENDBRANCH  28  29
ENDBRANCH  24  28
ENDBRANCH  23  24
ENDBRANCH   4  23
TORSDOF 9
ENDMDL
MODEL 7
REMARK VINA RESULT:    -6.881      3.934      9.100
REMARK INTER + INTRA:         -11.569
REMARK INTER:                 -10.098
REMARK INTRA:                  -1.471
REMARK UNBOUND:                -1.270
REMARK  Name = 
REMARK  9 active torsions:
REMARK  status: ('A' for Active; 'I' for Inactive)
REMARK    1  A    between atoms: C_2  and  C_22
REMARK    2  A    between atoms: N_3  and  C_4
REMARK    3  A    between atoms: C_4  and  C_5
REMARK    4  A    between atoms: C_8  and  C_9
REMARK    5  A    between atoms: C_9  and  C_10
REMARK    6  A    between atoms: C_10  and  C_11
REMARK    7  A    between atoms: C_10  and  C_13
REMARK    8  A    between atoms: C_11  and  O_12
REMARK    9  A    between atoms: C_13  and  C_14
REMARK                            x       y       z     vdW  Elec       q    Type
REMARK                         _______ _______ _______ _____ _____    ______ ____
ROOT
ATOM      1  C   UNL     1      48.626   3.280  17.051  0.00  0.00    +0.000 A 
ATOM      2  C   UNL     1      49.350   4.402  17.470  0.00  0.00    +0.000 A 
ATOM      3  C   UNL     1      50.712   4.307  17.751  0.00  0.00    +0.000 A 
ATOM      4  C   UNL     1      51.374   3.076  17.656  0.00  0.00    +0.000 A 
ATOM      5  C   UNL     1      50.671   1.974  17.152  0.00  0.00    +0.000 A 
ATOM      6  C   UNL     1      49.311   2.077  16.839  0.00  0.00    +0.000 A 
ENDROOT
BRANCH   1   7
ATOM      7  C   UNL     1      47.141   3.395  16.825  0.00  0.00    +0.000 C 
BRANCH   7  10
ATOM      8  O   UNL     1      47.184   3.069  14.039  0.00  0.00    +0.000 OA
ATOM      9  C   UNL     1      46.817   4.138  14.513  0.00  0.00    +0.000 C 
ATOM     10  N   UNL     1      46.827   4.401  15.857  0.00  0.00    +0.000 N 
ATOM     11  H   UNL     1      46.318   5.206  16.209  0.00  0.00    +0.000 HD
BRANCH   9  12
ATOM     12  C   UNL     1      46.379   5.237  13.658  0.00  0.00    +0.000 A 
ATOM     13  C   UNL     1      47.218   6.319  13.417  0.00  0.00    +0.000 A 
ATOM     14  S   UNL     1      46.545   7.478  12.361  0.00  0.00    +0.000 S 
ATOM     15  C   UNL     1      45.125   6.560  12.170  0.00  0.00    +0.000 A 
ATOM     16  N   UNL     1      44.124   6.971  11.346  0.00  0.00    +0.000 NA
ATOM     17  C   UNL     1      43.127   6.153  11.273  0.00  0.00    +0.000 A 
ATOM     18  N   UNL     1      43.024   4.975  11.967  0.00  0.00    +0.000 N 
ATOM     19  C   UNL     1      43.965   4.566  12.876  0.00  0.00    +0.000 A 
ATOM     20  O   UNL     1      43.761   3.597  13.598  0.00  0.00    +0.000 OA
ATOM     21  C   UNL     1      45.142   5.410  12.940  0.00  0.00    +0.000 A 
ATOM     22  H   UNL     1      42.191   4.407  11.902  0.00  0.00    +0.000 HD
ENDBRANCH   9  12
ENDBRANCH   7  10
ENDBRANCH   1   7
BRANCH   4  23
ATOM     23  C   UNL     1      52.811   2.941  18.117  0.00  0.00    +0.000 C 
BRANCH  23  24
ATOM     24  C   UNL     1      53.419   4.269  18.647  0.00  0.00    +0.000 C 
BRANCH  24  25
ATOM     25  C   UNL     1      53.672   4.235  20.164  0.00  0.00    +0.000 C 
BRANCH  25  26
ATOM     26  O   UNL     1      52.482   3.941  20.886  0.00  0.00    +0.000 OA
ATOM     27  H   UNL     1      51.818   4.600  20.621  0.00  0.00    +0.000 HD
ENDBRANCH  25  26
ENDBRANCH  24  25
BRANCH  24  28
ATOM     28  C   UNL     1      54.735   4.629  17.910  0.00  0.00    +0.000 C 
BRANCH  28  29
ATOM     29  C   UNL     1      54.506   5.489  16.688  0.00  0.00    +0.000 A 
ATOM     30  C   UNL     1      53.420   6.359  16.623  0.00  0.00    +0.000 A 
ATOM     31  C   UNL     1      53.321   7.229  15.539  0.00  0.00    +0.000 A 
ATOM     32  C   UNL     1      54.281   7.183  14.537  0.00  0.00    +0.000 A 
ATOM     33  C   UNL     1      55.296   6.249  14.650  0.00  0.00    +0.000 A 
ATOM     34  N   UNL     1      55.430   5.408  15.700  0.00  0.00    +0.000 NA
ENDBRANCH  28  29
ENDBRANCH  24  28
ENDBRANCH  23  24
ENDBRANCH   4  23
TORSDOF 9
ENDMDL
MODEL 8
REMARK VINA RESULT:    -6.761      3.071      8.188
REMARK INTER + INTRA:         -11.391
REMARK INTER:                  -9.667
REMARK INTRA:                  -1.723
REMARK UNBOUND:                -1.270
REMARK  Name = 
REMARK  9 active torsions:
REMARK  status: ('A' for Active; 'I' for Inactive)
REMARK    1  A    between atoms: C_2  and  C_22
REMARK    2  A    between atoms: N_3  and  C_4
REMARK    3  A    between atoms: C_4  and  C_5
REMARK    4  A    between atoms: C_8  and  C_9
REMARK    5  A    between atoms: C_9  and  C_10
REMARK    6  A    between atoms: C_10  and  C_11
REMARK    7  A    between atoms: C_10  and  C_13
REMARK    8  A    between atoms: C_11  and  O_12
REMARK    9  A    between atoms: C_13  and  C_14
REMARK                            x       y       z     vdW  Elec       q    Type
REMARK                         _______ _______ _______ _____ _____    ______ ____
ROOT
ATOM      1  C   UNL     1      49.000   7.645  13.167  0.00  0.00    +0.000 A 
ATOM      2  C   UNL     1      50.314   8.099  13.336  0.00  0.00    +0.000 A 
ATOM      3  C   UNL     1      51.010   7.842  14.517  0.00  0.00    +0.000 A 
ATOM      4  C   UNL     1      50.393   7.157  15.571  0.00  0.00    +0.000 A 
ATOM      5  C   UNL     1      49.112   6.626  15.369  0.00  0.00    +0.000 A 
ATOM      6  C   UNL     1      48.426   6.856  14.171  0.00  0.00    +0.000 A 
ENDROOT
BRANCH   1   7
ATOM      7  C   UNL     1      48.248   8.001  11.911  0.00  0.00    +0.000 C 
BRANCH   7  10
ATOM      8  O   UNL     1      45.453   7.746  11.923  0.00  0.00    +0.000 OA
ATOM      9  C   UNL     1      46.135   6.872  11.398  0.00  0.00    +0.000 C 
ATOM     10  N   UNL     1      47.504   6.888  11.405  0.00  0.00    +0.000 N 
ATOM     11  H   UNL     1      48.011   6.269  10.779  0.00  0.00    +0.000 HD
BRANCH   9  12
ATOM     12  C   UNL     1      45.520   5.713  10.757  0.00  0.00    +0.000 A 
ATOM     13  C   UNL     1      45.719   5.469   9.403  0.00  0.00    +0.000 A 
ATOM     14  S   UNL     1      44.955   4.047   8.851  0.00  0.00    +0.000 S 
ATOM     15  C   UNL     1      44.357   3.698  10.405  0.00  0.00    +0.000 A 
ATOM     16  N   UNL     1      43.634   2.572  10.647  0.00  0.00    +0.000 NA
ATOM     17  C   UNL     1      43.281   2.422  11.879  0.00  0.00    +0.000 A 
ATOM     18  N   UNL     1      43.561   3.305  12.890  0.00  0.00    +0.000 N 
ATOM     19  C   UNL     1      44.208   4.495  12.677  0.00  0.00    +0.000 A 
ATOM     20  O   UNL     1      44.293   5.332  13.567  0.00  0.00    +0.000 OA
ATOM     21  C   UNL     1      44.693   4.678  11.323  0.00  0.00    +0.000 A 
ATOM     22  H   UNL     1      43.210   3.152  13.825  0.00  0.00    +0.000 HD
ENDBRANCH   9  12
ENDBRANCH   7  10
ENDBRANCH   1   7
BRANCH   4  23
ATOM     23  C   UNL     1      51.091   7.021  16.909  0.00  0.00    +0.000 C 
BRANCH  23  24
ATOM     24  C   UNL     1      51.696   5.612  17.153  0.00  0.00    +0.000 C 
BRANCH  24  25
ATOM     25  C   UNL     1      53.215   5.658  17.392  0.00  0.00    +0.000 C 
BRANCH  25  26
ATOM     26  O   UNL     1      53.791   6.851  16.872  0.00  0.00    +0.000 OA
ATOM     27  H   UNL     1      53.145   7.231  16.252  0.00  0.00    +0.000 HD
ENDBRANCH  25  26
ENDBRANCH  24  25
BRANCH  24  28
ATOM     28  C   UNL     1      51.006   4.890  18.339  0.00  0.00    +0.000 C 
BRANCH  28  29
ATOM     29  C   UNL     1      49.639   4.355  17.983  0.00  0.00    +0.000 A 
ATOM     30  C   UNL     1      48.487   4.935  18.511  0.00  0.00    +0.000 A 
ATOM     31  C   UNL     1      47.246   4.500  18.054  0.00  0.00    +0.000 A 
ATOM     32  C   UNL     1      47.184   3.477  17.116  0.00  0.00    +0.000 A 
ATOM     33  C   UNL     1      48.373   2.915  16.687  0.00  0.00    +0.000 A 
ATOM     34  N   UNL     1      49.592   3.332  17.095  0.00  0.00    +0.000 NA
ENDBRANCH  28  29
ENDBRANCH  24  28
ENDBRANCH  23  24
ENDBRANCH   4  23
TORSDOF 9
ENDMDL
MODEL 9
REMARK VINA RESULT:    -6.744      2.934      8.242
REMARK INTER + INTRA:         -11.365
REMARK INTER:                  -9.597
REMARK INTRA:                  -1.768
REMARK UNBOUND:                -1.270
REMARK  Name = 
REMARK  9 active torsions:
REMARK  status: ('A' for Active; 'I' for Inactive)
REMARK    1  A    between atoms: C_2  and  C_22
REMARK    2  A    between atoms: N_3  and  C_4
REMARK    3  A    between atoms: C_4  and  C_5
REMARK    4  A    between atoms: C_8  and  C_9
REMARK    5  A    between atoms: C_9  and  C_10
REMARK    6  A    between atoms: C_10  and  C_11
REMARK    7  A    between atoms: C_10  and  C_13
REMARK    8  A    between atoms: C_11  and  O_12
REMARK    9  A    between atoms: C_13  and  C_14
REMARK                            x       y       z     vdW  Elec       q    Type
REMARK                         _______ _______ _______ _____ _____    ______ ____
ROOT
ATOM      1  C   UNL     1      47.993   8.205  13.071  0.00  0.00    +0.000 A 
ATOM      2  C   UNL     1      47.682   8.786  14.306  0.00  0.00    +0.000 A 
ATOM      3  C   UNL     1      48.612   8.789  15.345  0.00  0.00    +0.000 A 
ATOM      4  C   UNL     1      49.861   8.177  15.185  0.00  0.00    +0.000 A 
ATOM      5  C   UNL     1      50.205   7.675  13.922  0.00  0.00    +0.000 A 
ATOM      6  C   UNL     1      49.284   7.701  12.870  0.00  0.00    +0.000 A 
ENDROOT
BRANCH   1   7
ATOM      7  C   UNL     1      46.944   8.150  11.991  0.00  0.00    +0.000 C 
BRANCH   7  10
ATOM      8  O   UNL     1      44.245   7.592  11.459  0.00  0.00    +0.000 OA
ATOM      9  C   UNL     1      45.042   6.666  11.561  0.00  0.00    +0.000 C 
ATOM     10  N   UNL     1      46.361   6.848  11.882  0.00  0.00    +0.000 N 
ATOM     11  H   UNL     1      47.016   6.084  11.742  0.00  0.00    +0.000 HD
BRANCH   9  12
ATOM     12  C   UNL     1      44.620   5.279  11.388  0.00  0.00    +0.000 A 
ATOM     13  C   UNL     1      43.891   4.636  12.381  0.00  0.00    +0.000 A 
ATOM     14  S   UNL     1      43.456   3.037  11.975  0.00  0.00    +0.000 S 
ATOM     15  C   UNL     1      44.201   3.162  10.451  0.00  0.00    +0.000 A 
ATOM     16  N   UNL     1      44.165   2.135   9.560  0.00  0.00    +0.000 NA
ATOM     17  C   UNL     1      44.739   2.389   8.432  0.00  0.00    +0.000 A 
ATOM     18  N   UNL     1      45.371   3.565   8.119  0.00  0.00    +0.000 N 
ATOM     19  C   UNL     1      45.511   4.592   9.016  0.00  0.00    +0.000 A 
ATOM     20  O   UNL     1      46.223   5.556   8.761  0.00  0.00    +0.000 OA
ATOM     21  C   UNL     1      44.818   4.388  10.273  0.00  0.00    +0.000 A 
ATOM     22  H   UNL     1      45.846   3.679   7.235  0.00  0.00    +0.000 HD
ENDBRANCH   9  12
ENDBRANCH   7  10
ENDBRANCH   1   7
BRANCH   4  23
ATOM     23  C   UNL     1      50.804   8.039  16.363  0.00  0.00    +0.000 C 
BRANCH  23  24
ATOM     24  C   UNL     1      51.330   6.592  16.568  0.00  0.00    +0.000 C 
BRANCH  24  25
ATOM     25  C   UNL     1      52.853   6.546  16.784  0.00  0.00    +0.000 C 
BRANCH  25  26
ATOM     26  O   UNL     1      53.315   5.214  16.969  0.00  0.00    +0.000 OA
ATOM     27  H   UNL     1      53.938   5.230  17.717  0.00  0.00    +0.000 HD
ENDBRANCH  25  26
ENDBRANCH  24  25
BRANCH  24  28
ATOM     28  C   UNL     1      50.617   5.886  17.750  0.00  0.00    +0.000 C 
BRANCH  28  29
ATOM     29  C   UNL     1      49.615   4.851  17.296  0.00  0.00    +0.000 A 
ATOM     30  C   UNL     1      48.387   5.235  16.762  0.00  0.00    +0.000 A 
ATOM     31  C   UNL     1      47.549   4.256  16.232  0.00  0.00    +0.000 A 
ATOM     32  C   UNL     1      47.939   2.924  16.282  0.00  0.00    +0.000 A 
ATOM     33  C   UNL     1      49.149   2.622  16.882  0.00  0.00    +0.000 A 
ATOM     34  N   UNL     1      49.992   3.552  17.383  0.00  0.00    +0.000 NA
ENDBRANCH  28  29
ENDBRANCH  24  28
ENDBRANCH  23  24
ENDBRANCH   4  23
TORSDOF 9
ENDMDL
