MODEL 1
REMARK VINA RESULT:    -8.319      0.000      0.000
REMARK INTER + INTRA:         -13.778
REMARK INTER:                 -12.210
REMARK INTRA:                  -1.568
REMARK UNBOUND:                -1.568
REMARK  Name = 
REMARK  10 active torsions:
REMARK  status: ('A' for Active; 'I' for Inactive)
REMARK    1  A    between atoms: C_1  and  O_2
REMARK    2  A    between atoms: O_2  and  C_3
REMARK    3  A    between atoms: C_10  and  C_11
REMARK    4  A    between atoms: N_13  and  C_14
REMARK    5  A    between atoms: C_14  and  C_15
REMARK    6  A    between atoms: C_18  and  C_19
REMARK    7  A    between atoms: C_19  and  N_20
REMARK    8  A    between atoms: N_20  and  C_21
REMARK    9  A    between atoms: N_20  and  C_22
REMARK   10  A    between atoms: C_22  and  C_23
REMARK                            x       y       z     vdW  Elec       q    Type
REMARK                         _______ _______ _______ _____ _____    ______ ____
ROOT
ATOM      1  C   UNL     1      47.294   8.333  13.557  0.00  0.00    +0.000 C 
ENDROOT
BRANCH   1   2
ATOM      2  C   UNL     1      46.468   7.470  12.629  0.00  0.00    +0.000 A 
ATOM      3  C   UNL     1      47.062   6.884  11.514  0.00  0.00    +0.000 A 
ATOM      4  C   UNL     1      46.284   6.090  10.674  0.00  0.00    +0.000 A 
ATOM      5  C   UNL     1      44.928   5.906  10.950  0.00  0.00    +0.000 A 
ATOM      6  C   UNL     1      44.414   6.554  12.067  0.00  0.00    +0.000 A 
ATOM      7  N   UNL     1      45.145   7.337  12.898  0.00  0.00    +0.000 NA
BRANCH   5   8
ATOM      8  C   UNL     1      44.071   4.997  10.102  0.00  0.00    +0.000 C 
BRANCH   8   9
ATOM      9  N   UNL     1      44.628   3.643   9.909  0.00  0.00    +0.000 NA
ATOM     10  C   UNL     1      43.931   2.661  10.751  0.00  0.00    +0.000 C 
BRANCH   9  11
ATOM     11  C   UNL     1      44.511   3.221   8.495  0.00  0.00    +0.000 C 
BRANCH  11  12
ATOM     12  C   UNL     1      45.776   2.601   7.943  0.00  0.00    +0.000 A 
ATOM     13  C   UNL     1      46.709   3.377   7.250  0.00  0.00    +0.000 A 
ATOM     14  C   UNL     1      47.826   2.754   6.717  0.00  0.00    +0.000 A 
ATOM     15  N   UNL     1      48.078   1.433   6.834  0.00  0.00    +0.000 NA
ATOM     16  C   UNL     1      47.175   0.703   7.521  0.00  0.00    +0.000 A 
ATOM     17  C   UNL     1      46.027   1.233   8.091  0.00  0.00    +0.000 A 
ENDBRANCH  11  12
ENDBRANCH   9  11
ENDBRANCH   8   9
ENDBRANCH   5   8
ENDBRANCH   1   2
BRANCH   1  20
ATOM     18  C   UNL     1      48.893   6.966  14.847  0.00  0.00    +0.000 C 
ATOM     19  O   UNL     1      49.748   7.069  13.971  0.00  0.00    +0.000 OA
ATOM     20  N   UNL     1      47.686   7.597  14.738  0.00  0.00    +0.000 N 
ATOM     21  H   UNL     1      46.937   7.365  15.377  0.00  0.00    +0.000 HD
BRANCH  18  29
ATOM     22  C   UNL     1      47.300   4.278  16.293  0.00  0.00    +0.000 A 
ATOM     23  N   UNL     1      46.868   3.267  17.074  0.00  0.00    +0.000 NA
ATOM     24  C   UNL     1      47.538   3.015  18.202  0.00  0.00    +0.000 A 
ATOM     25  N   UNL     1      48.608   3.658  18.660  0.00  0.00    +0.000 NA
ATOM     26  C   UNL     1      49.008   4.654  17.851  0.00  0.00    +0.000 A 
ATOM     27  S   UNL     1      50.366   5.581  18.274  0.00  0.00    +0.000 S 
ATOM     28  C   UNL     1      50.213   6.533  16.875  0.00  0.00    +0.000 A 
ATOM     29  C   UNL     1      49.138   6.179  16.067  0.00  0.00    +0.000 A 
ATOM     30  C   UNL     1      48.424   5.044  16.649  0.00  0.00    +0.000 A 
BRANCH  22  32
ATOM     31  C   UNL     1      47.069   3.647  14.049  0.00  0.00    +0.000 C 
ATOM     32  O   UNL     1      46.645   4.507  15.103  0.00  0.00    +0.000 OA
ENDBRANCH  22  32
ENDBRANCH  18  29
ENDBRANCH   1  20
TORSDOF 8
ENDMDL
MODEL 2
REMARK VINA RESULT:    -7.329      2.521      3.245
REMARK INTER + INTRA:         -12.325
REMARK INTER:                 -11.115
REMARK INTRA:                  -1.210
REMARK UNBOUND:                -1.568
REMARK  Name = 
REMARK  10 active torsions:
REMARK  status: ('A' for Active; 'I' for Inactive)
REMARK    1  A    between atoms: C_1  and  O_2
REMARK    2  A    between atoms: O_2  and  C_3
REMARK    3  A    between atoms: C_10  and  C_11
REMARK    4  A    between atoms: N_13  and  C_14
REMARK    5  A    between atoms: C_14  and  C_15
REMARK    6  A    between atoms: C_18  and  C_19
REMARK    7  A    between atoms: C_19  and  N_20
REMARK    8  A    between atoms: N_20  and  C_21
REMARK    9  A    between atoms: N_20  and  C_22
REMARK   10  A    between atoms: C_22  and  C_23
REMARK                            x       y       z     vdW  Elec       q    Type
REMARK                         _______ _______ _______ _____ _____    ______ ____
ROOT
ATOM      1  C   UNL     1      48.791   7.000  13.978  0.00  0.00    +0.000 C 
ENDROOT
BRANCH   1   2
ATOM      2  C   UNL     1      47.648   6.494  13.127  0.00  0.00    +0.000 A 
ATOM      3  C   UNL     1      47.403   7.066  11.882  0.00  0.00    +0.000 A 
ATOM      4  C   UNL     1      46.347   6.583  11.112  0.00  0.00    +0.000 A 
ATOM      5  C   UNL     1      45.546   5.549  11.601  0.00  0.00    +0.000 A 
ATOM      6  C   UNL     1      45.846   5.058  12.866  0.00  0.00    +0.000 A 
ATOM      7  N   UNL     1      46.862   5.514  13.640  0.00  0.00    +0.000 NA
BRANCH   5   8
ATOM      8  C   UNL     1      44.439   4.952  10.766  0.00  0.00    +0.000 C 
BRANCH   8   9
ATOM      9  N   UNL     1      44.719   3.590  10.269  0.00  0.00    +0.000 NA
ATOM     10  C   UNL     1      43.779   2.616  10.840  0.00  0.00    +0.000 C 
BRANCH   9  11
ATOM     11  C   UNL     1      44.618   3.536   8.793  0.00  0.00    +0.000 C 
BRANCH  11  12
ATOM     12  C   UNL     1      45.768   2.805   8.135  0.00  0.00    +0.000 A 
ATOM     13  C   UNL     1      46.689   3.491   7.339  0.00  0.00    +0.000 A 
ATOM     14  C   UNL     1      47.694   2.769   6.714  0.00  0.00    +0.000 A 
ATOM     15  N   UNL     1      47.846   1.433   6.834  0.00  0.00    +0.000 NA
ATOM     16  C   UNL     1      46.958   0.791   7.621  0.00  0.00    +0.000 A 
ATOM     17  C   UNL     1      45.918   1.422   8.287  0.00  0.00    +0.000 A 
ENDBRANCH  11  12
ENDBRANCH   9  11
ENDBRANCH   8   9
ENDBRANCH   5   8
ENDBRANCH   1   2
BRANCH   1  20
ATOM     18  C   UNL     1      49.091   6.586  16.392  0.00  0.00    +0.000 C 
ATOM     19  O   UNL     1      50.161   6.013  16.201  0.00  0.00    +0.000 OA
ATOM     20  N   UNL     1      48.388   7.138  15.359  0.00  0.00    +0.000 N 
ATOM     21  H   UNL     1      47.437   7.450  15.508  0.00  0.00    +0.000 HD
BRANCH  18  29
ATOM     22  C   UNL     1      47.884   9.261  18.193  0.00  0.00    +0.000 A 
ATOM     23  N   UNL     1      47.390  10.114  19.113  0.00  0.00    +0.000 NA
ATOM     24  C   UNL     1      47.051   9.622  20.307  0.00  0.00    +0.000 A 
ATOM     25  N   UNL     1      47.144   8.357  20.709  0.00  0.00    +0.000 NA
ATOM     26  C   UNL     1      47.636   7.540  19.763  0.00  0.00    +0.000 A 
ATOM     27  S   UNL     1      47.818   5.886  20.097  0.00  0.00    +0.000 S 
ATOM     28  C   UNL     1      48.440   5.590  18.544  0.00  0.00    +0.000 A 
ATOM     29  C   UNL     1      48.529   6.726  17.746  0.00  0.00    +0.000 A 
ATOM     30  C   UNL     1      48.035   7.892  18.476  0.00  0.00    +0.000 A 
BRANCH  22  32
ATOM     31  C   UNL     1      49.459  10.391  16.877  0.00  0.00    +0.000 C 
ATOM     32  O   UNL     1      48.185   9.755  16.943  0.00  0.00    +0.000 OA
ENDBRANCH  22  32
ENDBRANCH  18  29
ENDBRANCH   1  20
TORSDOF 8
ENDMDL
MODEL 3
REMARK VINA RESULT:    -7.287      1.937      2.268
REMARK INTER + INTRA:         -12.263
REMARK INTER:                 -11.270
REMARK INTRA:                  -0.993
REMARK UNBOUND:                -1.568
REMARK  Name = 
REMARK  10 active torsions:
REMARK  status: ('A' for Active; 'I' for Inactive)
REMARK    1  A    between atoms: C_1  and  O_2
REMARK    2  A    between atoms: O_2  and  C_3
REMARK    3  A    between atoms: C_10  and  C_11
REMARK    4  A    between atoms: N_13  and  C_14
REMARK    5  A    between atoms: C_14  and  C_15
REMARK    6  A    between atoms: C_18  and  C_19
REMARK    7  A    between atoms: C_19  and  N_20
REMARK    8  A    between atoms: N_20  and  C_21
REMARK    9  A    between atoms: N_20  and  C_22
REMARK   10  A    between atoms: C_22  and  C_23
REMARK                            x       y       z     vdW  Elec       q    Type
REMARK                         _______ _______ _______ _____ _____    ______ ____
ROOT
ATOM      1  C   UNL     1      48.975   6.966  13.785  0.00  0.00    +0.000 C 
ENDROOT
BRANCH   1   2
ATOM      2  C   UNL     1      47.800   6.468  12.975  0.00  0.00    +0.000 A 
ATOM      3  C   UNL     1      47.518   7.039  11.737  0.00  0.00    +0.000 A 
ATOM      4  C   UNL     1      46.432   6.563  11.005  0.00  0.00    +0.000 A 
ATOM      5  C   UNL     1      45.639   5.538  11.525  0.00  0.00    +0.000 A 
ATOM      6  C   UNL     1      45.977   5.048  12.781  0.00  0.00    +0.000 A 
ATOM      7  N   UNL     1      47.024   5.496  13.518  0.00  0.00    +0.000 NA
BRANCH   5   8
ATOM      8  C   UNL     1      44.498   4.948  10.730  0.00  0.00    +0.000 C 
BRANCH   8   9
ATOM      9  N   UNL     1      44.686   3.532  10.356  0.00  0.00    +0.000 NA
ATOM     10  C   UNL     1      43.735   2.668  11.069  0.00  0.00    +0.000 C 
BRANCH   9  11
ATOM     11  C   UNL     1      44.499   3.341   8.900  0.00  0.00    +0.000 C 
BRANCH  11  12
ATOM     12  C   UNL     1      45.663   2.647   8.227  0.00  0.00    +0.000 A 
ATOM     13  C   UNL     1      46.592   3.373   7.478  0.00  0.00    +0.000 A 
ATOM     14  C   UNL     1      47.610   2.687   6.835  0.00  0.00    +0.000 A 
ATOM     15  N   UNL     1      47.769   1.347   6.897  0.00  0.00    +0.000 NA
ATOM     16  C   UNL     1      46.872   0.665   7.640  0.00  0.00    +0.000 A 
ATOM     17  C   UNL     1      45.819   1.260   8.318  0.00  0.00    +0.000 A 
ENDBRANCH  11  12
ENDBRANCH   9  11
ENDBRANCH   8   9
ENDBRANCH   5   8
ENDBRANCH   1   2
BRANCH   1  20
ATOM     18  C   UNL     1      49.340   6.818  16.222  0.00  0.00    +0.000 C 
ATOM     19  O   UNL     1      50.435   6.283  16.065  0.00  0.00    +0.000 OA
ATOM     20  N   UNL     1      48.590   7.225  15.154  0.00  0.00    +0.000 N 
ATOM     21  H   UNL     1      47.627   7.502  15.292  0.00  0.00    +0.000 HD
BRANCH  18  29
ATOM     22  C   UNL     1      48.960   4.858  19.028  0.00  0.00    +0.000 A 
ATOM     23  N   UNL     1      48.674   4.325  20.233  0.00  0.00    +0.000 NA
ATOM     24  C   UNL     1      48.078   5.104  21.139  0.00  0.00    +0.000 A 
ATOM     25  N   UNL     1      47.723   6.377  20.992  0.00  0.00    +0.000 NA
ATOM     26  C   UNL     1      48.028   6.871  19.780  0.00  0.00    +0.000 A 
ATOM     27  S   UNL     1      47.654   8.487  19.416  0.00  0.00    +0.000 S 
ATOM     28  C   UNL     1      48.293   8.334  17.850  0.00  0.00    +0.000 A 
ATOM     29  C   UNL     1      48.795   7.068  17.567  0.00  0.00    +0.000 A 
ATOM     30  C   UNL     1      48.645   6.196  18.731  0.00  0.00    +0.000 A 
BRANCH  22  32
ATOM     31  C   UNL     1      48.756   3.235  17.351  0.00  0.00    +0.000 C 
ATOM     32  O   UNL     1      49.623   4.074  18.110  0.00  0.00    +0.000 OA
ENDBRANCH  22  32
ENDBRANCH  18  29
ENDBRANCH   1  20
TORSDOF 8
ENDMDL
MODEL 4
REMARK VINA RESULT:    -7.086      2.721      3.850
REMARK INTER + INTRA:         -11.969
REMARK INTER:                 -10.923
REMARK INTRA:                  -1.045
REMARK UNBOUND:                -1.568
REMARK  Name = 
REMARK  10 active torsions:
REMARK  status: ('A' for Active; 'I' for Inactive)
REMARK    1  A    between atoms: C_1  and  O_2
REMARK    2  A    between atoms: O_2  and  C_3
REMARK    3  A    between atoms: C_10  and  C_11
REMARK    4  A    between atoms: N_13  and  C_14
REMARK    5  A    between atoms: C_14  and  C_15
REMARK    6  A    between atoms: C_18  and  C_19
REMARK    7  A    between atoms: C_19  and  N_20
REMARK    8  A    between atoms: N_20  and  C_21
REMARK    9  A    between atoms: N_20  and  C_22
REMARK   10  A    between atoms: C_22  and  C_23
REMARK                            x       y       z     vdW  Elec       q    Type
REMARK                         _______ _______ _______ _____ _____    ______ ____
ROOT
ATOM      1  C   UNL     1      47.640   4.215  16.019  0.00  0.00    +0.000 C 
ENDROOT
BRANCH   1   2
ATOM      2  C   UNL     1      47.104   4.552  14.646  0.00  0.00    +0.000 A 
ATOM      3  C   UNL     1      47.266   5.836  14.132  0.00  0.00    +0.000 A 
ATOM      4  C   UNL     1      46.768   6.124  12.863  0.00  0.00    +0.000 A 
ATOM      5  C   UNL     1      46.104   5.134  12.136  0.00  0.00    +0.000 A 
ATOM      6  C   UNL     1      45.961   3.891  12.739  0.00  0.00    +0.000 A 
ATOM      7  N   UNL     1      46.431   3.584  13.975  0.00  0.00    +0.000 NA
BRANCH   5   8
ATOM      8  C   UNL     1      45.613   5.389  10.731  0.00  0.00    +0.000 C 
BRANCH   8   9
ATOM      9  N   UNL     1      44.745   4.325  10.188  0.00  0.00    +0.000 NA
ATOM     10  C   UNL     1      43.349   4.521  10.600  0.00  0.00    +0.000 C 
BRANCH   9  11
ATOM     11  C   UNL     1      44.803   4.300   8.709  0.00  0.00    +0.000 C 
BRANCH  11  12
ATOM     12  C   UNL     1      45.744   3.252   8.157  0.00  0.00    +0.000 A 
ATOM     13  C   UNL     1      46.731   3.596   7.230  0.00  0.00    +0.000 A 
ATOM     14  C   UNL     1      47.535   2.592   6.713  0.00  0.00    +0.000 A 
ATOM     15  N   UNL     1      47.430   1.291   7.060  0.00  0.00    +0.000 NA
ATOM     16  C   UNL     1      46.483   0.982   7.970  0.00  0.00    +0.000 A 
ATOM     17  C   UNL     1      45.631   1.913   8.544  0.00  0.00    +0.000 A 
ENDBRANCH  11  12
ENDBRANCH   9  11
ENDBRANCH   8   9
ENDBRANCH   5   8
ENDBRANCH   1   2
BRANCH   1  20
ATOM     18  C   UNL     1      48.445   5.892  17.641  0.00  0.00    +0.000 C 
ATOM     19  O   UNL     1      49.616   5.574  17.449  0.00  0.00    +0.000 OA
ATOM     20  N   UNL     1      47.427   5.307  16.942  0.00  0.00    +0.000 N 
ATOM     21  H   UNL     1      46.468   5.454  17.231  0.00  0.00    +0.000 HD
BRANCH  18  29
ATOM     22  C   UNL     1      47.990   9.297  17.404  0.00  0.00    +0.000 A 
ATOM     23  N   UNL     1      47.780  10.615  17.600  0.00  0.00    +0.000 NA
ATOM     24  C   UNL     1      47.499  11.028  18.839  0.00  0.00    +0.000 A 
ATOM     25  N   UNL     1      47.398  10.276  19.931  0.00  0.00    +0.000 NA
ATOM     26  C   UNL     1      47.610   8.971  19.692  0.00  0.00    +0.000 A 
ATOM     27  S   UNL     1      47.514   7.859  20.972  0.00  0.00    +0.000 S 
ATOM     28  C   UNL     1      47.879   6.562  19.938  0.00  0.00    +0.000 A 
ATOM     29  C   UNL     1      48.086   6.937  18.614  0.00  0.00    +0.000 A 
ATOM     30  C   UNL     1      47.912   8.381  18.468  0.00  0.00    +0.000 A 
BRANCH  22  32
ATOM     31  C   UNL     1      49.607   8.879  15.761  0.00  0.00    +0.000 C 
ATOM     32  O   UNL     1      48.228   8.860  16.120  0.00  0.00    +0.000 OA
ENDBRANCH  22  32
ENDBRANCH  18  29
ENDBRANCH   1  20
TORSDOF 8
ENDMDL
MODEL 5
REMARK VINA RESULT:    -7.013      2.654      3.521
REMARK INTER + INTRA:         -11.861
REMARK INTER:                 -10.881
REMARK INTRA:                  -0.979
REMARK UNBOUND:                -1.568
REMARK  Name = 
REMARK  10 active torsions:
REMARK  status: ('A' for Active; 'I' for Inactive)
REMARK    1  A    between atoms: C_1  and  O_2
REMARK    2  A    between atoms: O_2  and  C_3
REMARK    3  A    between atoms: C_10  and  C_11
REMARK    4  A    between atoms: N_13  and  C_14
REMARK    5  A    between atoms: C_14  and  C_15
REMARK    6  A    between atoms: C_18  and  C_19
REMARK    7  A    between atoms: C_19  and  N_20
REMARK    8  A    between atoms: N_20  and  C_21
REMARK    9  A    between atoms: N_20  and  C_22
REMARK   10  A    between atoms: C_22  and  C_23
REMARK                            x       y       z     vdW  Elec       q    Type
REMARK                         _______ _______ _______ _____ _____    ______ ____
ROOT
ATOM      1  C   UNL     1      47.598   4.596  15.943  0.00  0.00    +0.000 C 
ENDROOT
BRANCH   1   2
ATOM      2  C   UNL     1      47.068   4.846  14.549  0.00  0.00    +0.000 A 
ATOM      3  C   UNL     1      47.472   5.976  13.844  0.00  0.00    +0.000 A 
ATOM      4  C   UNL     1      46.974   6.186  12.560  0.00  0.00    +0.000 A 
ATOM      5  C   UNL     1      46.073   5.274  12.007  0.00  0.00    +0.000 A 
ATOM      6  C   UNL     1      45.702   4.190  12.793  0.00  0.00    +0.000 A 
ATOM      7  N   UNL     1      46.165   3.964  14.048  0.00  0.00    +0.000 NA
BRANCH   5   8
ATOM      8  C   UNL     1      45.568   5.431  10.592  0.00  0.00    +0.000 C 
BRANCH   8   9
ATOM      9  N   UNL     1      44.820   4.264  10.082  0.00  0.00    +0.000 NA
ATOM     10  C   UNL     1      43.412   4.316  10.499  0.00  0.00    +0.000 C 
BRANCH   9  11
ATOM     11  C   UNL     1      44.874   4.209   8.603  0.00  0.00    +0.000 C 
BRANCH  11  12
ATOM     12  C   UNL     1      45.820   3.155   8.072  0.00  0.00    +0.000 A 
ATOM     13  C   UNL     1      46.830   3.493   7.167  0.00  0.00    +0.000 A 
ATOM     14  C   UNL     1      47.638   2.485   6.666  0.00  0.00    +0.000 A 
ATOM     15  N   UNL     1      47.517   1.184   7.010  0.00  0.00    +0.000 NA
ATOM     16  C   UNL     1      46.549   0.880   7.898  0.00  0.00    +0.000 A 
ATOM     17  C   UNL     1      45.690   1.816   8.453  0.00  0.00    +0.000 A 
ENDBRANCH  11  12
ENDBRANCH   9  11
ENDBRANCH   8   9
ENDBRANCH   5   8
ENDBRANCH   1   2
BRANCH   1  20
ATOM     18  C   UNL     1      49.481   5.828  16.954  0.00  0.00    +0.000 C 
ATOM     19  O   UNL     1      50.229   4.861  16.840  0.00  0.00    +0.000 OA
ATOM     20  N   UNL     1      48.195   5.791  16.494  0.00  0.00    +0.000 N 
ATOM     21  H   UNL     1      47.548   6.526  16.748  0.00  0.00    +0.000 HD
BRANCH  18  29
ATOM     22  C   UNL     1      48.106   7.986  19.260  0.00  0.00    +0.000 A 
ATOM     23  N   UNL     1      47.802   8.991  20.106  0.00  0.00    +0.000 NA
ATOM     24  C   UNL     1      48.686   9.983  20.243  0.00  0.00    +0.000 A 
ATOM     25  N   UNL     1      49.860  10.102  19.630  0.00  0.00    +0.000 NA
ATOM     26  C   UNL     1      50.125   9.079  18.800  0.00  0.00    +0.000 A 
ATOM     27  S   UNL     1      51.586   9.059  17.936  0.00  0.00    +0.000 S 
ATOM     28  C   UNL     1      51.184   7.587  17.191  0.00  0.00    +0.000 A 
ATOM     29  C   UNL     1      49.944   7.083  17.571  0.00  0.00    +0.000 A 
ATOM     30  C   UNL     1      49.317   7.975  18.545  0.00  0.00    +0.000 A 
BRANCH  22  32
ATOM     31  C   UNL     1      47.420   5.927  20.145  0.00  0.00    +0.000 C 
ATOM     32  O   UNL     1      47.222   6.934  19.156  0.00  0.00    +0.000 OA
ENDBRANCH  22  32
ENDBRANCH  18  29
ENDBRANCH   1  20
TORSDOF 8
ENDMDL
MODEL 6
REMARK VINA RESULT:    -6.891      3.044      5.375
REMARK INTER + INTRA:         -11.682
REMARK INTER:                 -10.068
REMARK INTRA:                  -1.614
REMARK UNBOUND:                -1.568
REMARK  Name = 
REMARK  10 active torsions:
REMARK  status: ('A' for Active; 'I' for Inactive)
REMARK    1  A    between atoms: C_1  and  O_2
REMARK    2  A    between atoms: O_2  and  C_3
REMARK    3  A    between atoms: C_10  and  C_11
REMARK    4  A    between atoms: N_13  and  C_14
REMARK    5  A    between atoms: C_14  and  C_15
REMARK    6  A    between atoms: C_18  and  C_19
REMARK    7  A    between atoms: C_19  and  N_20
REMARK    8  A    between atoms: N_20  and  C_21
REMARK    9  A    between atoms: N_20  and  C_22
REMARK   10  A    between atoms: C_22  and  C_23
REMARK                            x       y       z     vdW  Elec       q    Type
REMARK                         _______ _______ _______ _____ _____    ______ ____
ROOT
ATOM      1  C   UNL     1      47.825   3.352  17.197  0.00  0.00    +0.000 C 
ENDROOT
BRANCH   1   2
ATOM      2  C   UNL     1      47.653   4.219  15.971  0.00  0.00    +0.000 A 
ATOM      3  C   UNL     1      46.908   3.754  14.890  0.00  0.00    +0.000 A 
ATOM      4  C   UNL     1      46.759   4.570  13.771  0.00  0.00    +0.000 A 
ATOM      5  C   UNL     1      47.365   5.828  13.742  0.00  0.00    +0.000 A 
ATOM      6  C   UNL     1      48.113   6.198  14.853  0.00  0.00    +0.000 A 
ATOM      7  N   UNL     1      48.281   5.422  15.953  0.00  0.00    +0.000 NA
BRANCH   5   8
ATOM      8  C   UNL     1      47.166   6.768  12.577  0.00  0.00    +0.000 C 
BRANCH   8   9
ATOM      9  N   UNL     1      45.769   7.200  12.376  0.00  0.00    +0.000 NA
ATOM     10  C   UNL     1      45.638   8.654  12.539  0.00  0.00    +0.000 C 
BRANCH   9  11
ATOM     11  C   UNL     1      45.290   6.830  11.025  0.00  0.00    +0.000 C 
BRANCH  11  12
ATOM     12  C   UNL     1      44.613   5.479  10.972  0.00  0.00    +0.000 A 
ATOM     13  C   UNL     1      43.634   5.134  11.908  0.00  0.00    +0.000 A 
ATOM     14  C   UNL     1      43.080   3.865  11.853  0.00  0.00    +0.000 A 
ATOM     15  N   UNL     1      43.422   2.935  10.935  0.00  0.00    +0.000 NA
ATOM     16  C   UNL     1      44.355   3.293  10.029  0.00  0.00    +0.000 A 
ATOM     17  C   UNL     1      44.969   4.536  10.003  0.00  0.00    +0.000 A 
ENDBRANCH  11  12
ENDBRANCH   9  11
ENDBRANCH   8   9
ENDBRANCH   5   8
ENDBRANCH   1   2
BRANCH   1  20
ATOM     18  C   UNL     1      50.028   2.275  16.921  0.00  0.00    +0.000 C 
ATOM     19  O   UNL     1      49.621   1.589  15.988  0.00  0.00    +0.000 OA
ATOM     20  N   UNL     1      49.223   3.196  17.531  0.00  0.00    +0.000 N 
ATOM     21  H   UNL     1      49.515   3.624  18.399  0.00  0.00    +0.000 HD
BRANCH  18  29
ATOM     22  C   UNL     1      52.457   4.573  17.749  0.00  0.00    +0.000 A 
ATOM     23  N   UNL     1      53.574   5.237  18.107  0.00  0.00    +0.000 NA
ATOM     24  C   UNL     1      54.646   4.520  18.454  0.00  0.00    +0.000 A 
ATOM     25  N   UNL     1      54.747   3.194  18.488  0.00  0.00    +0.000 NA
ATOM     26  C   UNL     1      53.612   2.571  18.129  0.00  0.00    +0.000 A 
ATOM     27  S   UNL     1      53.554   0.875  18.122  0.00  0.00    +0.000 S 
ATOM     28  C   UNL     1      51.939   0.882  17.597  0.00  0.00    +0.000 A 
ATOM     29  C   UNL     1      51.412   2.156  17.411  0.00  0.00    +0.000 A 
ATOM     30  C   UNL     1      52.415   3.167  17.742  0.00  0.00    +0.000 A 
BRANCH  22  32
ATOM     31  C   UNL     1      51.605   6.447  16.629  0.00  0.00    +0.000 C 
ATOM     32  O   UNL     1      51.333   5.308  17.442  0.00  0.00    +0.000 OA
ENDBRANCH  22  32
ENDBRANCH  18  29
ENDBRANCH   1  20
TORSDOF 8
ENDMDL
MODEL 7
REMARK VINA RESULT:    -6.879      1.338      1.904
REMARK INTER + INTRA:         -11.664
REMARK INTER:                 -10.930
REMARK INTRA:                  -0.735
REMARK UNBOUND:                -1.568
REMARK  Name = 
REMARK  10 active torsions:
REMARK  status: ('A' for Active; 'I' for Inactive)
REMARK    1  A    between atoms: C_1  and  O_2
REMARK    2  A    between atoms: O_2  and  C_3
REMARK    3  A    between atoms: C_10  and  C_11
REMARK    4  A    between atoms: N_13  and  C_14
REMARK    5  A    between atoms: C_14  and  C_15
REMARK    6  A    between atoms: C_18  and  C_19
REMARK    7  A    between atoms: C_19  and  N_20
REMARK    8  A    between atoms: N_20  and  C_21
REMARK    9  A    between atoms: N_20  and  C_22
REMARK   10  A    between atoms: C_22  and  C_23
REMARK                            x       y       z     vdW  Elec       q    Type
REMARK                         _______ _______ _______ _____ _____    ______ ____
ROOT
ATOM      1  C   UNL     1      47.489   8.407  13.585  0.00  0.00    +0.000 C 
ENDROOT
BRANCH   1   2
ATOM      2  C   UNL     1      46.607   7.521  12.735  0.00  0.00    +0.000 A 
ATOM      3  C   UNL     1      47.091   7.006  11.535  0.00  0.00    +0.000 A 
ATOM      4  C   UNL     1      46.263   6.189  10.768  0.00  0.00    +0.000 A 
ATOM      5  C   UNL     1      44.966   5.911  11.201  0.00  0.00    +0.000 A 
ATOM      6  C   UNL     1      44.557   6.492  12.396  0.00  0.00    +0.000 A 
ATOM      7  N   UNL     1      45.338   7.296  13.160  0.00  0.00    +0.000 NA
BRANCH   5   8
ATOM      8  C   UNL     1      44.065   4.974  10.432  0.00  0.00    +0.000 C 
BRANCH   8   9
ATOM      9  N   UNL     1      44.727   3.737   9.973  0.00  0.00    +0.000 NA
ATOM     10  C   UNL     1      44.101   2.550  10.570  0.00  0.00    +0.000 C 
BRANCH   9  11
ATOM     11  C   UNL     1      44.657   3.617   8.499  0.00  0.00    +0.000 C 
BRANCH  11  12
ATOM     12  C   UNL     1      45.818   2.855   7.898  0.00  0.00    +0.000 A 
ATOM     13  C   UNL     1      45.949   1.478   8.100  0.00  0.00    +0.000 A 
ATOM     14  C   UNL     1      47.058   0.833   7.575  0.00  0.00    +0.000 A 
ATOM     15  N   UNL     1      48.023   1.455   6.864  0.00  0.00    +0.000 NA
ATOM     16  C   UNL     1      47.870   2.780   6.665  0.00  0.00    +0.000 A 
ATOM     17  C   UNL     1      46.798   3.515   7.150  0.00  0.00    +0.000 A 
ENDBRANCH  11  12
ENDBRANCH   9  11
ENDBRANCH   8   9
ENDBRANCH   5   8
ENDBRANCH   1   2
BRANCH   1  20
ATOM     18  C   UNL     1      48.937   7.850  15.504  0.00  0.00    +0.000 C 
ATOM     19  O   UNL     1      48.347   8.643  16.232  0.00  0.00    +0.000 OA
ATOM     20  N   UNL     1      48.544   7.643  14.212  0.00  0.00    +0.000 N 
ATOM     21  H   UNL     1      49.140   7.123  13.581  0.00  0.00    +0.000 HD
BRANCH  18  29
ATOM     22  C   UNL     1      49.211   4.870  17.209  0.00  0.00    +0.000 A 
ATOM     23  N   UNL     1      49.601   3.768  17.881  0.00  0.00    +0.000 NA
ATOM     24  C   UNL     1      50.908   3.586  18.082  0.00  0.00    +0.000 A 
ATOM     25  N   UNL     1      51.899   4.383  17.689  0.00  0.00    +0.000 NA
ATOM     26  C   UNL     1      51.468   5.466  17.021  0.00  0.00    +0.000 A 
ATOM     27  S   UNL     1      52.596   6.592  16.436  0.00  0.00    +0.000 S 
ATOM     28  C   UNL     1      51.363   7.562  15.784  0.00  0.00    +0.000 A 
ATOM     29  C   UNL     1      50.082   7.065  15.997  0.00  0.00    +0.000 A 
ATOM     30  C   UNL     1      50.149   5.801  16.728  0.00  0.00    +0.000 A 
BRANCH  22  32
ATOM     31  C   UNL     1      47.104   3.846  17.146  0.00  0.00    +0.000 C 
ATOM     32  O   UNL     1      47.867   5.034  16.952  0.00  0.00    +0.000 OA
ENDBRANCH  22  32
ENDBRANCH  18  29
ENDBRANCH   1  20
TORSDOF 8
ENDMDL
MODEL 8
REMARK VINA RESULT:    -6.774      2.132      3.728
REMARK INTER + INTRA:         -11.510
REMARK INTER:                 -10.408
REMARK INTRA:                  -1.102
REMARK UNBOUND:                -1.568
REMARK  Name = 
REMARK  10 active torsions:
REMARK  status: ('A' for Active; 'I' for Inactive)
REMARK    1  A    between atoms: C_1  and  O_2
REMARK    2  A    between atoms: O_2  and  C_3
REMARK    3  A    between atoms: C_10  and  C_11
REMARK    4  A    between atoms: N_13  and  C_14
REMARK    5  A    between atoms: C_14  and  C_15
REMARK    6  A    between atoms: C_18  and  C_19
REMARK    7  A    between atoms: C_19  and  N_20
REMARK    8  A    between atoms: N_20  and  C_21
REMARK    9  A    between atoms: N_20  and  C_22
REMARK   10  A    between atoms: C_22  and  C_23
REMARK                            x       y       z     vdW  Elec       q    Type
REMARK                         _______ _______ _______ _____ _____    ______ ____
ROOT
ATOM      1  C   UNL     1      47.281   4.370  15.931  0.00  0.00    +0.000 C 
ENDROOT
BRANCH   1   2
ATOM      2  C   UNL     1      46.836   4.599  14.504  0.00  0.00    +0.000 A 
ATOM      3  C   UNL     1      46.862   5.882  13.965  0.00  0.00    +0.000 A 
ATOM      4  C   UNL     1      46.451   6.070  12.647  0.00  0.00    +0.000 A 
ATOM      5  C   UNL     1      46.009   4.981  11.895  0.00  0.00    +0.000 A 
ATOM      6  C   UNL     1      45.989   3.741  12.523  0.00  0.00    +0.000 A 
ATOM      7  N   UNL     1      46.377   3.530  13.806  0.00  0.00    +0.000 NA
BRANCH   5   8
ATOM      8  C   UNL     1      45.624   5.134  10.443  0.00  0.00    +0.000 C 
BRANCH   8   9
ATOM      9  N   UNL     1      44.767   4.050   9.923  0.00  0.00    +0.000 NA
ATOM     10  C   UNL     1      43.376   4.220  10.363  0.00  0.00    +0.000 C 
BRANCH   9  11
ATOM     11  C   UNL     1      44.795   4.017   8.444  0.00  0.00    +0.000 C 
BRANCH  11  12
ATOM     12  C   UNL     1      45.828   3.068   7.879  0.00  0.00    +0.000 A 
ATOM     13  C   UNL     1      45.851   1.725   8.265  0.00  0.00    +0.000 A 
ATOM     14  C   UNL     1      46.849   0.905   7.761  0.00  0.00    +0.000 A 
ATOM     15  N   UNL     1      47.805   1.325   6.904  0.00  0.00    +0.000 NA
ATOM     16  C   UNL     1      47.756   2.620   6.530  0.00  0.00    +0.000 A 
ATOM     17  C   UNL     1      46.799   3.518   6.978  0.00  0.00    +0.000 A 
ENDBRANCH  11  12
ENDBRANCH   9  11
ENDBRANCH   8   9
ENDBRANCH   5   8
ENDBRANCH   1   2
BRANCH   1  20
ATOM     18  C   UNL     1      49.160   5.547  17.015  0.00  0.00    +0.000 C 
ATOM     19  O   UNL     1      49.863   4.540  16.979  0.00  0.00    +0.000 OA
ATOM     20  N   UNL     1      47.904   5.555  16.477  0.00  0.00    +0.000 N 
ATOM     21  H   UNL     1      47.280   6.329  16.667  0.00  0.00    +0.000 HD
BRANCH  18  29
ATOM     22  C   UNL     1      49.724   8.710  15.775  0.00  0.00    +0.000 A 
ATOM     23  N   UNL     1      50.051  10.000  15.555  0.00  0.00    +0.000 NA
ATOM     24  C   UNL     1      50.533  10.708  16.580  0.00  0.00    +0.000 A 
ATOM     25  N   UNL     1      50.736  10.283  17.824  0.00  0.00    +0.000 NA
ATOM     26  C   UNL     1      50.394   8.995  18.001  0.00  0.00    +0.000 A 
ATOM     27  S   UNL     1      50.578   8.284  19.531  0.00  0.00    +0.000 S 
ATOM     28  C   UNL     1      49.989   6.795  18.965  0.00  0.00    +0.000 A 
ATOM     29  C   UNL     1      49.648   6.800  17.616  0.00  0.00    +0.000 A 
ATOM     30  C   UNL     1      49.881   8.124  17.044  0.00  0.00    +0.000 A 
BRANCH  22  32
ATOM     31  C   UNL     1      50.046   7.866  13.613  0.00  0.00    +0.000 C 
ATOM     32  O   UNL     1      49.177   7.991  14.735  0.00  0.00    +0.000 OA
ENDBRANCH  22  32
ENDBRANCH  18  29
ENDBRANCH   1  20
TORSDOF 8
ENDMDL
MODEL 9
REMARK VINA RESULT:    -6.619      3.246      7.689
REMARK INTER + INTRA:         -11.282
REMARK INTER:                  -9.612
REMARK INTRA:                  -1.670
REMARK UNBOUND:                -1.568
REMARK  Name = 
REMARK  10 active torsions:
REMARK  status: ('A' for Active; 'I' for Inactive)
REMARK    1  A    between atoms: C_1  and  O_2
REMARK    2  A    between atoms: O_2  and  C_3
REMARK    3  A    between atoms: C_10  and  C_11
REMARK    4  A    between atoms: N_13  and  C_14
REMARK    5  A    between atoms: C_14  and  C_15
REMARK    6  A    between atoms: C_18  and  C_19
REMARK    7  A    between atoms: C_19  and  N_20
REMARK    8  A    between atoms: N_20  and  C_21
REMARK    9  A    between atoms: N_20  and  C_22
REMARK   10  A    between atoms: C_22  and  C_23
REMARK                            x       y       z     vdW  Elec       q    Type
REMARK                         _______ _______ _______ _____ _____    ______ ____
ROOT
ATOM      1  C   UNL     1      48.452   7.963  11.878  0.00  0.00    +0.000 C 
ENDROOT
BRANCH   1   2
ATOM      2  C   UNL     1      48.506   7.846  13.385  0.00  0.00    +0.000 A 
ATOM      3  C   UNL     1      47.972   8.856  14.180  0.00  0.00    +0.000 A 
ATOM      4  C   UNL     1      48.029   8.726  15.566  0.00  0.00    +0.000 A 
ATOM      5  C   UNL     1      48.630   7.601  16.135  0.00  0.00    +0.000 A 
ATOM      6  C   UNL     1      49.164   6.658  15.264  0.00  0.00    +0.000 A 
ATOM      7  N   UNL     1      49.128   6.761  13.912  0.00  0.00    +0.000 NA
BRANCH   5   8
ATOM      8  C   UNL     1      48.648   7.393  17.630  0.00  0.00    +0.000 C 
BRANCH   8   9
ATOM      9  N   UNL     1      49.739   6.521  18.109  0.00  0.00    +0.000 NA
ATOM     10  C   UNL     1      50.579   7.219  19.092  0.00  0.00    +0.000 C 
BRANCH   9  11
ATOM     11  C   UNL     1      49.198   5.294  18.735  0.00  0.00    +0.000 C 
BRANCH  11  12
ATOM     12  C   UNL     1      49.280   4.074  17.844  0.00  0.00    +0.000 A 
ATOM     13  C   UNL     1      48.179   3.670  17.083  0.00  0.00    +0.000 A 
ATOM     14  C   UNL     1      48.284   2.516  16.323  0.00  0.00    +0.000 A 
ATOM     15  N   UNL     1      49.398   1.755  16.263  0.00  0.00    +0.000 NA
ATOM     16  C   UNL     1      50.455   2.170  16.990  0.00  0.00    +0.000 A 
ATOM     17  C   UNL     1      50.449   3.309  17.781  0.00  0.00    +0.000 A 
ENDBRANCH  11  12
ENDBRANCH   9  11
ENDBRANCH   8   9
ENDBRANCH   5   8
ENDBRANCH   1   2
BRANCH   1  20
ATOM     18  C   UNL     1      46.325   6.936  11.161  0.00  0.00    +0.000 C 
ATOM     19  O   UNL     1      45.694   7.952  11.443  0.00  0.00    +0.000 OA
ATOM     20  N   UNL     1      47.684   6.884  11.300  0.00  0.00    +0.000 N 
ATOM     21  H   UNL     1      48.163   5.995  11.230  0.00  0.00    +0.000 HD
BRANCH  18  29
ATOM     22  C   UNL     1      44.508   4.405  12.628  0.00  0.00    +0.000 A 
ATOM     23  N   UNL     1      43.797   3.301  12.934  0.00  0.00    +0.000 NA
ATOM     24  C   UNL     1      43.472   2.469  11.942  0.00  0.00    +0.000 A 
ATOM     25  N   UNL     1      43.774   2.601  10.653  0.00  0.00    +0.000 NA
ATOM     26  C   UNL     1      44.478   3.715  10.390  0.00  0.00    +0.000 A 
ATOM     27  S   UNL     1      44.945   4.052   8.793  0.00  0.00    +0.000 S 
ATOM     28  C   UNL     1      45.721   5.485   9.270  0.00  0.00    +0.000 A 
ATOM     29  C   UNL     1      45.651   5.737  10.636  0.00  0.00    +0.000 A 
ATOM     30  C   UNL     1      44.894   4.679  11.303  0.00  0.00    +0.000 A 
BRANCH  22  32
ATOM     31  C   UNL     1      46.046   5.035  14.279  0.00  0.00    +0.000 C 
ATOM     32  O   UNL     1      44.799   5.293  13.640  0.00  0.00    +0.000 OA
ENDBRANCH  22  32
ENDBRANCH  18  29
ENDBRANCH   1  20
TORSDOF 8
ENDMDL
