MODEL 1
REMARK VINA RESULT:    -7.601      0.000      0.000
REMARK INTER + INTRA:         -11.733
REMARK INTER:                 -10.711
REMARK INTRA:                  -1.022
REMARK UNBOUND:                -1.022
REMARK  Name = 
REMARK  7 active torsions:
REMARK  status: ('A' for Active; 'I' for Inactive)
REMARK    1  A    between atoms: C_2  and  C_19
REMARK    2  A    between atoms: N_3  and  C_4
REMARK    3  A    between atoms: C_4  and  C_5
REMARK    4  A    between atoms: C_8  and  C_9
REMARK    5  A    between atoms: C_9  and  N_10
REMARK    6  A    between atoms: N_10  and  C_11
REMARK    7  A    between atoms: C_11  and  C_12
REMARK                            x       y       z     vdW  Elec       q    Type
REMARK                         _______ _______ _______ _____ _____    ______ ____
ROOT
ATOM      1  C   UNL     1      47.079   7.728  13.378  0.00  0.00    +0.000 C 
ENDROOT
BRANCH   1   2
ATOM      2  C   UNL     1      46.331   6.772  12.498  0.00  0.00    +0.000 A 
ATOM      3  C   UNL     1      46.559   6.727  11.122  0.00  0.00    +0.000 A 
ATOM      4  C   UNL     1      45.850   5.827  10.332  0.00  0.00    +0.000 A 
ATOM      5  C   UNL     1      44.913   4.995  10.938  0.00  0.00    +0.000 A 
ATOM      6  N   UNL     1      44.653   5.036  12.272  0.00  0.00    +0.000 NA
ATOM      7  C   UNL     1      45.360   5.920  13.013  0.00  0.00    +0.000 A 
BRANCH   5   8
ATOM      8  C   UNL     1      44.108   4.019  10.101  0.00  0.00    +0.000 C 
BRANCH   8   9
ATOM      9  N   UNL     1      44.050   4.373   8.672  0.00  0.00    +0.000 NA
ATOM     10  H   UNL     1      44.619   5.218   8.580  0.00  0.00    +0.000 HD
BRANCH   9  11
ATOM     11  C   UNL     1      44.629   3.327   7.818  0.00  0.00    +0.000 C 
BRANCH  11  12
ATOM     12  C   UNL     1      46.175   3.259   7.941  0.00  0.00    +0.000 C 
ATOM     13  C   UNL     1      46.769   1.866   7.768  0.00  0.00    +0.000 C 
ATOM     14  C   UNL     1      46.898   1.704   6.266  0.00  0.00    +0.000 C 
ATOM     15  C   UNL     1      47.021   3.122   5.731  0.00  0.00    +0.000 C 
ATOM     16  N   UNL     1      46.861   4.017   6.878  0.00  0.00    +0.000 NA
ATOM     17  H   UNL     1      46.340   4.852   6.621  0.00  0.00    +0.000 HD
ENDBRANCH  11  12
ENDBRANCH   9  11
ENDBRANCH   8   9
ENDBRANCH   5   8
ENDBRANCH   1   2
BRANCH   1  20
ATOM     18  O   UNL     1      49.657   6.800  14.000  0.00  0.00    +0.000 OA
ATOM     19  C   UNL     1      48.778   6.718  14.852  0.00  0.00    +0.000 C 
ATOM     20  N   UNL     1      47.483   7.099  14.610  0.00  0.00    +0.000 N 
ATOM     21  H   UNL     1      46.844   7.187  15.392  0.00  0.00    +0.000 HD
BRANCH  19  22
ATOM     22  C   UNL     1      49.049   6.152  16.179  0.00  0.00    +0.000 A 
ATOM     23  C   UNL     1      49.934   6.795  17.033  0.00  0.00    +0.000 A 
ATOM     24  S   UNL     1      50.155   5.989  18.520  0.00  0.00    +0.000 S 
ATOM     25  C   UNL     1      49.037   4.780  18.095  0.00  0.00    +0.000 A 
ATOM     26  N   UNL     1      48.732   3.774  18.956  0.00  0.00    +0.000 NA
ATOM     27  C   UNL     1      47.836   2.951  18.524  0.00  0.00    +0.000 A 
ATOM     28  N   UNL     1      47.222   3.039  17.302  0.00  0.00    +0.000 N 
ATOM     29  C   UNL     1      47.549   3.996  16.370  0.00  0.00    +0.000 A 
ATOM     30  O   UNL     1      47.067   3.977  15.243  0.00  0.00    +0.000 OA
ATOM     31  C   UNL     1      48.521   4.973  16.825  0.00  0.00    +0.000 A 
ATOM     32  H   UNL     1      46.547   2.345  17.013  0.00  0.00    +0.000 HD
ENDBRANCH  19  22
ENDBRANCH   1  20
TORSDOF 7
ENDMDL
MODEL 2
REMARK VINA RESULT:    -7.140      4.136      9.225
REMARK INTER + INTRA:         -11.083
REMARK INTER:                 -10.278
REMARK INTRA:                  -0.805
REMARK UNBOUND:                -1.022
REMARK  Name = 
REMARK  7 active torsions:
REMARK  status: ('A' for Active; 'I' for Inactive)
REMARK    1  A    between atoms: C_2  and  C_19
REMARK    2  A    between atoms: N_3  and  C_4
REMARK    3  A    between atoms: C_4  and  C_5
REMARK    4  A    between atoms: C_8  and  C_9
REMARK    5  A    between atoms: C_9  and  N_10
REMARK    6  A    between atoms: N_10  and  C_11
REMARK    7  A    between atoms: C_11  and  C_12
REMARK                            x       y       z     vdW  Elec       q    Type
REMARK                         _______ _______ _______ _____ _____    ______ ____
ROOT
ATOM      1  C   UNL     1      47.145   3.459  16.875  0.00  0.00    +0.000 C 
ENDROOT
BRANCH   1   2
ATOM      2  C   UNL     1      48.612   3.480  17.187  0.00  0.00    +0.000 A 
ATOM      3  C   UNL     1      49.242   4.647  17.620  0.00  0.00    +0.000 A 
ATOM      4  C   UNL     1      50.604   4.634  17.904  0.00  0.00    +0.000 A 
ATOM      5  C   UNL     1      51.314   3.448  17.734  0.00  0.00    +0.000 A 
ATOM      6  N   UNL     1      50.730   2.304  17.289  0.00  0.00    +0.000 NA
ATOM      7  C   UNL     1      49.404   2.349  17.024  0.00  0.00    +0.000 A 
BRANCH   5   8
ATOM      8  C   UNL     1      52.804   3.407  18.013  0.00  0.00    +0.000 C 
BRANCH   8   9
ATOM      9  N   UNL     1      53.188   2.417  19.034  0.00  0.00    +0.000 NA
ATOM     10  H   UNL     1      52.335   1.887  19.230  0.00  0.00    +0.000 HD
BRANCH   9  11
ATOM     11  C   UNL     1      54.213   1.485  18.543  0.00  0.00    +0.000 C 
BRANCH  11  12
ATOM     12  C   UNL     1      53.601   0.327  17.709  0.00  0.00    +0.000 C 
ATOM     13  C   UNL     1      54.584  -0.381  16.784  0.00  0.00    +0.000 C 
ATOM     14  C   UNL     1      55.260  -1.404  17.676  0.00  0.00    +0.000 C 
ATOM     15  C   UNL     1      54.249  -1.687  18.777  0.00  0.00    +0.000 C 
ATOM     16  N   UNL     1      53.120  -0.784  18.551  0.00  0.00    +0.000 NA
ATOM     17  H   UNL     1      52.740  -0.446  19.432  0.00  0.00    +0.000 HD
ENDBRANCH  11  12
ENDBRANCH   9  11
ENDBRANCH   8   9
ENDBRANCH   5   8
ENDBRANCH   1   2
BRANCH   1  20
ATOM     18  O   UNL     1      47.289   3.073  14.096  0.00  0.00    +0.000 OA
ATOM     19  C   UNL     1      46.863   4.142  14.523  0.00  0.00    +0.000 C 
ATOM     20  N   UNL     1      46.811   4.429  15.864  0.00  0.00    +0.000 N 
ATOM     21  H   UNL     1      46.284   5.238  16.172  0.00  0.00    +0.000 HD
BRANCH  19  22
ATOM     22  C   UNL     1      46.428   5.210  13.615  0.00  0.00    +0.000 A 
ATOM     23  C   UNL     1      47.292   6.254  13.317  0.00  0.00    +0.000 A 
ATOM     24  S   UNL     1      46.618   7.422  12.273  0.00  0.00    +0.000 S 
ATOM     25  C   UNL     1      45.165   6.546  12.142  0.00  0.00    +0.000 A 
ATOM     26  N   UNL     1      44.149   6.990  11.355  0.00  0.00    +0.000 NA
ATOM     27  C   UNL     1      43.123   6.207  11.313  0.00  0.00    +0.000 A 
ATOM     28  N   UNL     1      43.018   5.022  11.994  0.00  0.00    +0.000 N 
ATOM     29  C   UNL     1      43.989   4.569  12.856  0.00  0.00    +0.000 A 
ATOM     30  O   UNL     1      43.815   3.566  13.540  0.00  0.00    +0.000 OA
ATOM     31  C   UNL     1      45.183   5.392  12.906  0.00  0.00    +0.000 A 
ATOM     32  H   UNL     1      42.175   4.469  11.939  0.00  0.00    +0.000 HD
ENDBRANCH  19  22
ENDBRANCH   1  20
TORSDOF 7
ENDMDL
MODEL 3
REMARK VINA RESULT:    -7.129      2.075      2.573
REMARK INTER + INTRA:         -11.068
REMARK INTER:                 -10.312
REMARK INTRA:                  -0.756
REMARK UNBOUND:                -1.022
REMARK  Name = 
REMARK  7 active torsions:
REMARK  status: ('A' for Active; 'I' for Inactive)
REMARK    1  A    between atoms: C_2  and  C_19
REMARK    2  A    between atoms: N_3  and  C_4
REMARK    3  A    between atoms: C_4  and  C_5
REMARK    4  A    between atoms: C_8  and  C_9
REMARK    5  A    between atoms: C_9  and  N_10
REMARK    6  A    between atoms: N_10  and  C_11
REMARK    7  A    between atoms: C_11  and  C_12
REMARK                            x       y       z     vdW  Elec       q    Type
REMARK                         _______ _______ _______ _____ _____    ______ ____
ROOT
ATOM      1  C   UNL     1      48.277   6.796  13.896  0.00  0.00    +0.000 C 
ENDROOT
BRANCH   1   2
ATOM      2  C   UNL     1      47.044   6.037  13.506  0.00  0.00    +0.000 A 
ATOM      3  C   UNL     1      46.053   6.625  12.719  0.00  0.00    +0.000 A 
ATOM      4  C   UNL     1      44.921   5.893  12.371  0.00  0.00    +0.000 A 
ATOM      5  C   UNL     1      44.799   4.586  12.833  0.00  0.00    +0.000 A 
ATOM      6  N   UNL     1      45.737   3.998  13.622  0.00  0.00    +0.000 NA
ATOM      7  C   UNL     1      46.826   4.734  13.940  0.00  0.00    +0.000 A 
BRANCH   5   8
ATOM      8  C   UNL     1      43.567   3.770  12.489  0.00  0.00    +0.000 C 
BRANCH   8   9
ATOM      9  N   UNL     1      43.848   2.605  11.632  0.00  0.00    +0.000 NA
ATOM     10  H   UNL     1      42.968   2.403  11.153  0.00  0.00    +0.000 HD
BRANCH   9  11
ATOM     11  C   UNL     1      44.873   2.898  10.620  0.00  0.00    +0.000 C 
BRANCH  11  12
ATOM     12  C   UNL     1      44.462   2.400   9.209  0.00  0.00    +0.000 C 
ATOM     13  C   UNL     1      44.678   3.410   8.088  0.00  0.00    +0.000 C 
ATOM     14  C   UNL     1      46.136   3.232   7.707  0.00  0.00    +0.000 C 
ATOM     15  C   UNL     1      46.466   1.800   8.096  0.00  0.00    +0.000 C 
ATOM     16  N   UNL     1      45.275   1.259   8.751  0.00  0.00    +0.000 NA
ATOM     17  H   UNL     1      45.529   0.648   9.526  0.00  0.00    +0.000 HD
ENDBRANCH  11  12
ENDBRANCH   9  11
ENDBRANCH   8   9
ENDBRANCH   5   8
ENDBRANCH   1   2
BRANCH   1  20
ATOM     18  O   UNL     1      50.510   6.617  15.592  0.00  0.00    +0.000 OA
ATOM     19  C   UNL     1      49.444   7.008  16.057  0.00  0.00    +0.000 C 
ATOM     20  N   UNL     1      48.295   7.074  15.310  0.00  0.00    +0.000 N 
ATOM     21  H   UNL     1      47.496   7.573  15.682  0.00  0.00    +0.000 HD
BRANCH  19  22
ATOM     22  C   UNL     1      49.317   7.384  17.471  0.00  0.00    +0.000 A 
ATOM     23  C   UNL     1      50.015   8.482  17.956  0.00  0.00    +0.000 A 
ATOM     24  S   UNL     1      49.779   8.760  19.622  0.00  0.00    +0.000 S 
ATOM     25  C   UNL     1      48.695   7.454  19.743  0.00  0.00    +0.000 A 
ATOM     26  N   UNL     1      48.091   7.152  20.922  0.00  0.00    +0.000 NA
ATOM     27  C   UNL     1      47.260   6.166  20.862  0.00  0.00    +0.000 A 
ATOM     28  N   UNL     1      46.984   5.447  19.728  0.00  0.00    +0.000 N 
ATOM     29  C   UNL     1      47.622   5.670  18.531  0.00  0.00    +0.000 A 
ATOM     30  O   UNL     1      47.441   4.934  17.566  0.00  0.00    +0.000 OA
ATOM     31  C   UNL     1      48.536   6.797  18.535  0.00  0.00    +0.000 A 
ATOM     32  H   UNL     1      46.342   4.668  19.755  0.00  0.00    +0.000 HD
ENDBRANCH  19  22
ENDBRANCH   1  20
TORSDOF 7
ENDMDL
MODEL 4
REMARK VINA RESULT:    -6.975      2.063      3.652
REMARK INTER + INTRA:         -10.851
REMARK INTER:                  -9.770
REMARK INTRA:                  -1.082
REMARK UNBOUND:                -1.022
REMARK  Name = 
REMARK  7 active torsions:
REMARK  status: ('A' for Active; 'I' for Inactive)
REMARK    1  A    between atoms: C_2  and  C_19
REMARK    2  A    between atoms: N_3  and  C_4
REMARK    3  A    between atoms: C_4  and  C_5
REMARK    4  A    between atoms: C_8  and  C_9
REMARK    5  A    between atoms: C_9  and  N_10
REMARK    6  A    between atoms: N_10  and  C_11
REMARK    7  A    between atoms: C_11  and  C_12
REMARK                            x       y       z     vdW  Elec       q    Type
REMARK                         _______ _______ _______ _____ _____    ______ ____
ROOT
ATOM      1  C   UNL     1      46.863   4.326  14.841  0.00  0.00    +0.000 C 
ENDROOT
BRANCH   1   2
ATOM      2  C   UNL     1      46.280   4.371  13.459  0.00  0.00    +0.000 A 
ATOM      3  C   UNL     1      46.197   5.569  12.750  0.00  0.00    +0.000 A 
ATOM      4  C   UNL     1      45.654   5.578  11.468  0.00  0.00    +0.000 A 
ATOM      5  C   UNL     1      45.190   4.381  10.928  0.00  0.00    +0.000 A 
ATOM      6  N   UNL     1      45.235   3.206  11.608  0.00  0.00    +0.000 NA
ATOM      7  C   UNL     1      45.771   3.230  12.850  0.00  0.00    +0.000 A 
BRANCH   5   8
ATOM      8  C   UNL     1      44.572   4.362   9.542  0.00  0.00    +0.000 C 
BRANCH   8   9
ATOM      9  N   UNL     1      45.368   5.078   8.529  0.00  0.00    +0.000 NA
ATOM     10  H   UNL     1      45.769   5.880   9.020  0.00  0.00    +0.000 HD
BRANCH   9  11
ATOM     11  C   UNL     1      46.466   4.254   8.006  0.00  0.00    +0.000 C 
BRANCH  11  12
ATOM     12  C   UNL     1      45.952   3.077   7.134  0.00  0.00    +0.000 C 
ATOM     13  C   UNL     1      46.589   2.980   5.753  0.00  0.00    +0.000 C 
ATOM     14  C   UNL     1      47.877   2.217   5.992  0.00  0.00    +0.000 C 
ATOM     15  C   UNL     1      47.610   1.387   7.238  0.00  0.00    +0.000 C 
ATOM     16  N   UNL     1      46.277   1.760   7.712  0.00  0.00    +0.000 NA
ATOM     17  H   UNL     1      46.243   1.781   8.729  0.00  0.00    +0.000 HD
ENDBRANCH  11  12
ENDBRANCH   9  11
ENDBRANCH   8   9
ENDBRANCH   5   8
ENDBRANCH   1   2
BRANCH   1  20
ATOM     18  O   UNL     1      48.983   4.638  16.657  0.00  0.00    +0.000 OA
ATOM     19  C   UNL     1      48.587   5.619  16.036  0.00  0.00    +0.000 C 
ATOM     20  N   UNL     1      47.524   5.562  15.171  0.00  0.00    +0.000 N 
ATOM     21  H   UNL     1      47.356   6.344  14.549  0.00  0.00    +0.000 HD
BRANCH  19  22
ATOM     22  C   UNL     1      49.200   6.941  16.222  0.00  0.00    +0.000 A 
ATOM     23  C   UNL     1      49.309   7.475  17.498  0.00  0.00    +0.000 A 
ATOM     24  S   UNL     1      50.017   9.027  17.529  0.00  0.00    +0.000 S 
ATOM     25  C   UNL     1      50.249   9.017  15.844  0.00  0.00    +0.000 A 
ATOM     26  N   UNL     1      50.848  10.061  15.213  0.00  0.00    +0.000 NA
ATOM     27  C   UNL     1      51.001   9.903  13.941  0.00  0.00    +0.000 A 
ATOM     28  N   UNL     1      50.601   8.796  13.240  0.00  0.00    +0.000 N 
ATOM     29  C   UNL     1      49.928   7.747  13.822  0.00  0.00    +0.000 A 
ATOM     30  O   UNL     1      49.479   6.826  13.148  0.00  0.00    +0.000 OA
ATOM     31  C   UNL     1      49.769   7.857  15.261  0.00  0.00    +0.000 A 
ATOM     32  H   UNL     1      50.726   8.746  12.239  0.00  0.00    +0.000 HD
ENDBRANCH  19  22
ENDBRANCH   1  20
TORSDOF 7
ENDMDL
MODEL 5
REMARK VINA RESULT:    -6.895      2.606      3.509
REMARK INTER + INTRA:         -10.739
REMARK INTER:                  -9.871
REMARK INTRA:                  -0.869
REMARK UNBOUND:                -1.022
REMARK  Name = 
REMARK  7 active torsions:
REMARK  status: ('A' for Active; 'I' for Inactive)
REMARK    1  A    between atoms: C_2  and  C_19
REMARK    2  A    between atoms: N_3  and  C_4
REMARK    3  A    between atoms: C_4  and  C_5
REMARK    4  A    between atoms: C_8  and  C_9
REMARK    5  A    between atoms: C_9  and  N_10
REMARK    6  A    between atoms: N_10  and  C_11
REMARK    7  A    between atoms: C_11  and  C_12
REMARK                            x       y       z     vdW  Elec       q    Type
REMARK                         _______ _______ _______ _____ _____    ______ ____
ROOT
ATOM      1  C   UNL     1      47.078   4.168  16.176  0.00  0.00    +0.000 C 
ENDROOT
BRANCH   1   2
ATOM      2  C   UNL     1      46.911   4.758  14.808  0.00  0.00    +0.000 A 
ATOM      3  C   UNL     1      47.763   5.761  14.345  0.00  0.00    +0.000 A 
ATOM      4  C   UNL     1      47.583   6.287  13.069  0.00  0.00    +0.000 A 
ATOM      5  C   UNL     1      46.539   5.805  12.285  0.00  0.00    +0.000 A 
ATOM      6  N   UNL     1      45.679   4.847  12.722  0.00  0.00    +0.000 NA
ATOM      7  C   UNL     1      45.881   4.354  13.965  0.00  0.00    +0.000 A 
BRANCH   5   8
ATOM      8  C   UNL     1      46.303   6.374  10.899  0.00  0.00    +0.000 C 
BRANCH   8   9
ATOM      9  N   UNL     1      45.368   5.579  10.084  0.00  0.00    +0.000 NA
ATOM     10  H   UNL     1      44.619   6.225   9.825  0.00  0.00    +0.000 HD
BRANCH   9  11
ATOM     11  C   UNL     1      45.996   5.077   8.854  0.00  0.00    +0.000 C 
BRANCH  11  12
ATOM     12  C   UNL     1      45.069   4.104   8.077  0.00  0.00    +0.000 C 
ATOM     13  C   UNL     1      45.798   3.028   7.280  0.00  0.00    +0.000 C 
ATOM     14  C   UNL     1      46.064   1.934   8.297  0.00  0.00    +0.000 C 
ATOM     15  C   UNL     1      44.975   2.104   9.345  0.00  0.00    +0.000 C 
ATOM     16  N   UNL     1      44.217   3.298   8.970  0.00  0.00    +0.000 NA
ATOM     17  H   UNL     1      43.936   3.827   9.793  0.00  0.00    +0.000 HD
ENDBRANCH  11  12
ENDBRANCH   9  11
ENDBRANCH   8   9
ENDBRANCH   5   8
ENDBRANCH   1   2
BRANCH   1  20
ATOM     18  O   UNL     1      48.267   5.078  18.554  0.00  0.00    +0.000 OA
ATOM     19  C   UNL     1      48.961   4.481  17.736  0.00  0.00    +0.000 C 
ATOM     20  N   UNL     1      48.470   4.051  16.530  0.00  0.00    +0.000 N 
ATOM     21  H   UNL     1      49.023   3.407  15.977  0.00  0.00    +0.000 HD
BRANCH  19  22
ATOM     22  C   UNL     1      50.387   4.233  17.980  0.00  0.00    +0.000 A 
ATOM     23  C   UNL     1      51.169   5.224  18.556  0.00  0.00    +0.000 A 
ATOM     24  S   UNL     1      52.806   4.782  18.740  0.00  0.00    +0.000 S 
ATOM     25  C   UNL     1      52.517   3.231  18.103  0.00  0.00    +0.000 A 
ATOM     26  N   UNL     1      53.517   2.316  18.006  0.00  0.00    +0.000 NA
ATOM     27  C   UNL     1      53.149   1.167  17.547  0.00  0.00    +0.000 A 
ATOM     28  N   UNL     1      51.871   0.852  17.167  0.00  0.00    +0.000 N 
ATOM     29  C   UNL     1      50.842   1.765  17.180  0.00  0.00    +0.000 A 
ATOM     30  O   UNL     1      49.739   1.488  16.723  0.00  0.00    +0.000 OA
ATOM     31  C   UNL     1      51.195   3.062  17.729  0.00  0.00    +0.000 A 
ATOM     32  H   UNL     1      51.654  -0.060  16.790  0.00  0.00    +0.000 HD
ENDBRANCH  19  22
ENDBRANCH   1  20
TORSDOF 7
ENDMDL
MODEL 6
REMARK VINA RESULT:    -6.796      2.927      8.305
REMARK INTER + INTRA:         -10.599
REMARK INTER:                  -9.171
REMARK INTRA:                  -1.428
REMARK UNBOUND:                -1.022
REMARK  Name = 
REMARK  7 active torsions:
REMARK  status: ('A' for Active; 'I' for Inactive)
REMARK    1  A    between atoms: C_2  and  C_19
REMARK    2  A    between atoms: N_3  and  C_4
REMARK    3  A    between atoms: C_4  and  C_5
REMARK    4  A    between atoms: C_8  and  C_9
REMARK    5  A    between atoms: C_9  and  N_10
REMARK    6  A    between atoms: N_10  and  C_11
REMARK    7  A    between atoms: C_11  and  C_12
REMARK                            x       y       z     vdW  Elec       q    Type
REMARK                         _______ _______ _______ _____ _____    ______ ____
ROOT
ATOM      1  C   UNL     1      47.421   7.844  12.078  0.00  0.00    +0.000 C 
ENDROOT
BRANCH   1   2
ATOM      2  C   UNL     1      48.064   7.902  13.432  0.00  0.00    +0.000 A 
ATOM      3  C   UNL     1      47.713   8.887  14.355  0.00  0.00    +0.000 A 
ATOM      4  C   UNL     1      48.326   8.913  15.605  0.00  0.00    +0.000 A 
ATOM      5  C   UNL     1      49.291   7.954  15.899  0.00  0.00    +0.000 A 
ATOM      6  N   UNL     1      49.670   7.000  15.008  0.00  0.00    +0.000 NA
ATOM      7  C   UNL     1      49.055   7.001  13.803  0.00  0.00    +0.000 A 
BRANCH   5   8
ATOM      8  C   UNL     1      49.993   7.970  17.244  0.00  0.00    +0.000 C 
BRANCH   8   9
ATOM      9  N   UNL     1      50.521   6.655  17.651  0.00  0.00    +0.000 NA
ATOM     10  H   UNL     1      51.270   6.860  18.316  0.00  0.00    +0.000 HD
BRANCH   9  11
ATOM     11  C   UNL     1      49.505   5.839  18.330  0.00  0.00    +0.000 C 
BRANCH  11  12
ATOM     12  C   UNL     1      49.439   4.395  17.764  0.00  0.00    +0.000 C 
ATOM     13  C   UNL     1      48.421   3.488  18.446  0.00  0.00    +0.000 C 
ATOM     14  C   UNL     1      47.115   3.805  17.743  0.00  0.00    +0.000 C 
ATOM     15  C   UNL     1      47.527   4.305  16.367  0.00  0.00    +0.000 C 
ATOM     16  N   UNL     1      48.990   4.356  16.361  0.00  0.00    +0.000 NA
ATOM     17  H   UNL     1      49.326   5.164  15.840  0.00  0.00    +0.000 HD
ENDBRANCH  11  12
ENDBRANCH   9  11
ENDBRANCH   8   9
ENDBRANCH   5   8
ENDBRANCH   1   2
BRANCH   1  20
ATOM     18  O   UNL     1      44.643   7.528  11.802  0.00  0.00    +0.000 OA
ATOM     19  C   UNL     1      45.363   6.539  11.708  0.00  0.00    +0.000 C 
ATOM     20  N   UNL     1      46.722   6.600  11.882  0.00  0.00    +0.000 N 
ATOM     21  H   UNL     1      47.287   5.803  11.613  0.00  0.00    +0.000 HD
BRANCH  19  22
ATOM     22  C   UNL     1      44.803   5.206  11.452  0.00  0.00    +0.000 A 
ATOM     23  C   UNL     1      44.032   4.586  12.425  0.00  0.00    +0.000 A 
ATOM     24  S   UNL     1      43.486   3.033  11.977  0.00  0.00    +0.000 S 
ATOM     25  C   UNL     1      44.219   3.157  10.446  0.00  0.00    +0.000 A 
ATOM     26  N   UNL     1      44.107   2.155   9.534  0.00  0.00    +0.000 NA
ATOM     27  C   UNL     1      44.673   2.399   8.399  0.00  0.00    +0.000 A 
ATOM     28  N   UNL     1      45.348   3.553   8.096  0.00  0.00    +0.000 N 
ATOM     29  C   UNL     1      45.547   4.562   9.009  0.00  0.00    +0.000 A 
ATOM     30  O   UNL     1      46.256   5.528   8.746  0.00  0.00    +0.000 OA
ATOM     31  C   UNL     1      44.893   4.355  10.289  0.00  0.00    +0.000 A 
ATOM     32  H   UNL     1      45.792   3.670   7.197  0.00  0.00    +0.000 HD
ENDBRANCH  19  22
ENDBRANCH   1  20
TORSDOF 7
ENDMDL
MODEL 7
REMARK VINA RESULT:    -6.716      3.315      7.902
REMARK INTER + INTRA:         -10.487
REMARK INTER:                  -9.161
REMARK INTRA:                  -1.325
REMARK UNBOUND:                -1.022
REMARK  Name = 
REMARK  7 active torsions:
REMARK  status: ('A' for Active; 'I' for Inactive)
REMARK    1  A    between atoms: C_2  and  C_19
REMARK    2  A    between atoms: N_3  and  C_4
REMARK    3  A    between atoms: C_4  and  C_5
REMARK    4  A    between atoms: C_8  and  C_9
REMARK    5  A    between atoms: C_9  and  N_10
REMARK    6  A    between atoms: N_10  and  C_11
REMARK    7  A    between atoms: C_11  and  C_12
REMARK                            x       y       z     vdW  Elec       q    Type
REMARK                         _______ _______ _______ _____ _____    ______ ____
ROOT
ATOM      1  C   UNL     1      48.048   8.272  12.068  0.00  0.00    +0.000 C 
ENDROOT
BRANCH   1   2
ATOM      2  C   UNL     1      48.471   8.077  13.493  0.00  0.00    +0.000 A 
ATOM      3  C   UNL     1      48.070   8.962  14.494  0.00  0.00    +0.000 A 
ATOM      4  C   UNL     1      48.478   8.752  15.808  0.00  0.00    +0.000 A 
ATOM      5  C   UNL     1      49.294   7.660  16.091  0.00  0.00    +0.000 A 
ATOM      6  N   UNL     1      49.720   6.798  15.131  0.00  0.00    +0.000 NA
ATOM      7  C   UNL     1      49.305   7.028  13.864  0.00  0.00    +0.000 A 
BRANCH   5   8
ATOM      8  C   UNL     1      49.774   7.417  17.509  0.00  0.00    +0.000 C 
BRANCH   8   9
ATOM      9  N   UNL     1      48.697   7.036  18.441  0.00  0.00    +0.000 NA
ATOM     10  H   UNL     1      48.045   7.824  18.435  0.00  0.00    +0.000 HD
BRANCH   9  11
ATOM     11  C   UNL     1      47.980   5.833  17.994  0.00  0.00    +0.000 C 
BRANCH  11  12
ATOM     12  C   UNL     1      48.904   4.588  17.932  0.00  0.00    +0.000 C 
ATOM     13  C   UNL     1      48.376   3.364  18.671  0.00  0.00    +0.000 C 
ATOM     14  C   UNL     1      47.447   2.702  17.671  0.00  0.00    +0.000 C 
ATOM     15  C   UNL     1      47.969   3.135  16.310  0.00  0.00    +0.000 C 
ATOM     16  N   UNL     1      49.066   4.071  16.561  0.00  0.00    +0.000 NA
ATOM     17  H   UNL     1      49.068   4.824  15.876  0.00  0.00    +0.000 HD
ENDBRANCH  11  12
ENDBRANCH   9  11
ENDBRANCH   8   9
ENDBRANCH   5   8
ENDBRANCH   1   2
BRANCH   1  20
ATOM     18  O   UNL     1      45.275   7.927  11.775  0.00  0.00    +0.000 OA
ATOM     19  C   UNL     1      46.025   7.033  11.397  0.00  0.00    +0.000 C 
ATOM     20  N   UNL     1      47.386   7.101  11.552  0.00  0.00    +0.000 N 
ATOM     21  H   UNL     1      47.969   6.433  11.062  0.00  0.00    +0.000 HD
BRANCH  19  22
ATOM     22  C   UNL     1      45.503   5.799  10.796  0.00  0.00    +0.000 A 
ATOM     23  C   UNL     1      45.767   5.519   9.463  0.00  0.00    +0.000 A 
ATOM     24  S   UNL     1      45.062   4.064   8.919  0.00  0.00    +0.000 S 
ATOM     25  C   UNL     1      44.423   3.732  10.460  0.00  0.00    +0.000 A 
ATOM     26  N   UNL     1      43.717   2.595  10.696  0.00  0.00    +0.000 NA
ATOM     27  C   UNL     1      43.329   2.448  11.918  0.00  0.00    +0.000 A 
ATOM     28  N   UNL     1      43.577   3.341  12.928  0.00  0.00    +0.000 N 
ATOM     29  C   UNL     1      44.226   4.537  12.722  0.00  0.00    +0.000 A 
ATOM     30  O   UNL     1      44.328   5.368  13.619  0.00  0.00    +0.000 OA
ATOM     31  C   UNL     1      44.720   4.731  11.372  0.00  0.00    +0.000 A 
ATOM     32  H   UNL     1      43.222   3.179  13.859  0.00  0.00    +0.000 HD
ENDBRANCH  19  22
ENDBRANCH   1  20
TORSDOF 7
ENDMDL
MODEL 8
REMARK VINA RESULT:    -6.610      3.508      5.908
REMARK INTER + INTRA:         -10.337
REMARK INTER:                  -9.156
REMARK INTRA:                  -1.181
REMARK UNBOUND:                -1.022
REMARK  Name = 
REMARK  7 active torsions:
REMARK  status: ('A' for Active; 'I' for Inactive)
REMARK    1  A    between atoms: C_2  and  C_19
REMARK    2  A    between atoms: N_3  and  C_4
REMARK    3  A    between atoms: C_4  and  C_5
REMARK    4  A    between atoms: C_8  and  C_9
REMARK    5  A    between atoms: C_9  and  N_10
REMARK    6  A    between atoms: N_10  and  C_11
REMARK    7  A    between atoms: C_11  and  C_12
REMARK                            x       y       z     vdW  Elec       q    Type
REMARK                         _______ _______ _______ _____ _____    ______ ____
ROOT
ATOM      1  C   UNL     1      48.371   3.236  17.953  0.00  0.00    +0.000 C 
ENDROOT
BRANCH   1   2
ATOM      2  C   UNL     1      48.143   4.093  16.744  0.00  0.00    +0.000 A 
ATOM      3  C   UNL     1      48.614   5.406  16.690  0.00  0.00    +0.000 A 
ATOM      4  C   UNL     1      48.389   6.175  15.553  0.00  0.00    +0.000 A 
ATOM      5  C   UNL     1      47.682   5.615  14.492  0.00  0.00    +0.000 A 
ATOM      6  N   UNL     1      47.190   4.349  14.529  0.00  0.00    +0.000 NA
ATOM      7  C   UNL     1      47.427   3.626  15.648  0.00  0.00    +0.000 A 
BRANCH   5   8
ATOM      8  C   UNL     1      47.401   6.436  13.248  0.00  0.00    +0.000 C 
BRANCH   8   9
ATOM      9  N   UNL     1      46.054   7.032  13.223  0.00  0.00    +0.000 NA
ATOM     10  H   UNL     1      46.193   8.001  12.927  0.00  0.00    +0.000 HD
BRANCH   9  11
ATOM     11  C   UNL     1      45.174   6.368  12.251  0.00  0.00    +0.000 C 
BRANCH  11  12
ATOM     12  C   UNL     1      44.056   5.542  12.941  0.00  0.00    +0.000 C 
ATOM     13  C   UNL     1      42.857   5.225  12.055  0.00  0.00    +0.000 C 
ATOM     14  C   UNL     1      43.279   3.984  11.292  0.00  0.00    +0.000 C 
ATOM     15  C   UNL     1      44.306   3.309  12.188  0.00  0.00    +0.000 C 
ATOM     16  N   UNL     1      44.508   4.195  13.335  0.00  0.00    +0.000 NA
ATOM     17  H   UNL     1      45.483   4.200  13.627  0.00  0.00    +0.000 HD
ENDBRANCH  11  12
ENDBRANCH   9  11
ENDBRANCH   8   9
ENDBRANCH   5   8
ENDBRANCH   1   2
BRANCH   1  20
ATOM     18  O   UNL     1      49.983   1.610  16.325  0.00  0.00    +0.000 OA
ATOM     19  C   UNL     1      50.499   2.193  17.273  0.00  0.00    +0.000 C 
ATOM     20  N   UNL     1      49.772   2.963  18.146  0.00  0.00    +0.000 N 
ATOM     21  H   UNL     1      50.264   3.567  18.794  0.00  0.00    +0.000 HD
BRANCH  19  22
ATOM     22  C   UNL     1      51.931   2.060  17.567  0.00  0.00    +0.000 A 
ATOM     23  C   UNL     1      52.502   0.798  17.651  0.00  0.00    +0.000 A 
ATOM     24  S   UNL     1      54.165   0.825  18.027  0.00  0.00    +0.000 S 
ATOM     25  C   UNL     1      54.192   2.525  18.040  0.00  0.00    +0.000 A 
ATOM     26  N   UNL     1      55.345   3.206  18.274  0.00  0.00    +0.000 NA
ATOM     27  C   UNL     1      55.232   4.490  18.210  0.00  0.00    +0.000 A 
ATOM     28  N   UNL     1      54.066   5.158  17.940  0.00  0.00    +0.000 N 
ATOM     29  C   UNL     1      52.862   4.516  17.767  0.00  0.00    +0.000 A 
ATOM     30  O   UNL     1      51.817   5.145  17.645  0.00  0.00    +0.000 OA
ATOM     31  C   UNL     1      52.943   3.067  17.787  0.00  0.00    +0.000 A 
ATOM     32  H   UNL     1      54.040   6.167  17.931  0.00  0.00    +0.000 HD
ENDBRANCH  19  22
ENDBRANCH   1  20
TORSDOF 7
ENDMDL
MODEL 9
REMARK VINA RESULT:    -6.549      4.223      9.240
REMARK INTER + INTRA:         -10.251
REMARK INTER:                  -9.156
REMARK INTRA:                  -1.095
REMARK UNBOUND:                -1.022
REMARK  Name = 
REMARK  7 active torsions:
REMARK  status: ('A' for Active; 'I' for Inactive)
REMARK    1  A    between atoms: C_2  and  C_19
REMARK    2  A    between atoms: N_3  and  C_4
REMARK    3  A    between atoms: C_4  and  C_5
REMARK    4  A    between atoms: C_8  and  C_9
REMARK    5  A    between atoms: C_9  and  N_10
REMARK    6  A    between atoms: N_10  and  C_11
REMARK    7  A    between atoms: C_11  and  C_12
REMARK                            x       y       z     vdW  Elec       q    Type
REMARK                         _______ _______ _______ _____ _____    ______ ____
ROOT
ATOM      1  C   UNL     1      47.329   3.577  16.824  0.00  0.00    +0.000 C 
ENDROOT
BRANCH   1   2
ATOM      2  C   UNL     1      48.788   3.543  17.168  0.00  0.00    +0.000 A 
ATOM      3  C   UNL     1      49.468   4.701  17.546  0.00  0.00    +0.000 A 
ATOM      4  C   UNL     1      50.822   4.637  17.863  0.00  0.00    +0.000 A 
ATOM      5  C   UNL     1      51.472   3.409  17.780  0.00  0.00    +0.000 A 
ATOM      6  N   UNL     1      50.840   2.271  17.390  0.00  0.00    +0.000 NA
ATOM      7  C   UNL     1      49.524   2.366  17.091  0.00  0.00    +0.000 A 
BRANCH   5   8
ATOM      8  C   UNL     1      52.953   3.310  18.097  0.00  0.00    +0.000 C 
BRANCH   8   9
ATOM      9  N   UNL     1      53.291   2.200  19.006  0.00  0.00    +0.000 NA
ATOM     10  H   UNL     1      52.425   1.667  19.114  0.00  0.00    +0.000 HD
BRANCH   9  11
ATOM     11  C   UNL     1      54.317   1.314  18.440  0.00  0.00    +0.000 C 
BRANCH  11  12
ATOM     12  C   UNL     1      53.698   0.126  17.657  0.00  0.00    +0.000 C 
ATOM     13  C   UNL     1      54.704  -0.730  16.896  0.00  0.00    +0.000 C 
ATOM     14  C   UNL     1      55.219  -1.707  17.937  0.00  0.00    +0.000 C 
ATOM     15  C   UNL     1      54.095  -1.817  18.955  0.00  0.00    +0.000 C 
ATOM     16  N   UNL     1      53.061  -0.866  18.542  0.00  0.00    +0.000 NA
ATOM     17  H   UNL     1      52.629  -0.421  19.350  0.00  0.00    +0.000 HD
ENDBRANCH  11  12
ENDBRANCH   9  11
ENDBRANCH   8   9
ENDBRANCH   5   8
ENDBRANCH   1   2
BRANCH   1  20
ATOM     18  O   UNL     1      47.249   3.203  14.040  0.00  0.00    +0.000 OA
ATOM     19  C   UNL     1      46.980   4.310  14.496  0.00  0.00    +0.000 C 
ATOM     20  N   UNL     1      47.047   4.589  15.837  0.00  0.00    +0.000 N 
ATOM     21  H   UNL     1      46.640   5.451  16.180  0.00  0.00    +0.000 HD
BRANCH  19  22
ATOM     22  C   UNL     1      46.616   5.430  13.620  0.00  0.00    +0.000 A 
ATOM     23  C   UNL     1      45.418   5.396  12.921  0.00  0.00    +0.000 A 
ATOM     24  S   UNL     1      45.167   6.761  11.929  0.00  0.00    +0.000 S 
ATOM     25  C   UNL     1      46.627   7.469  12.439  0.00  0.00    +0.000 A 
ATOM     26  N   UNL     1      47.010   8.691  11.981  0.00  0.00    +0.000 NA
ATOM     27  C   UNL     1      48.116   9.129  12.483  0.00  0.00    +0.000 A 
ATOM     28  N   UNL     1      48.879   8.451  13.398  0.00  0.00    +0.000 N 
ATOM     29  C   UNL     1      48.569   7.185  13.836  0.00  0.00    +0.000 A 
ATOM     30  O   UNL     1      49.332   6.558  14.562  0.00  0.00    +0.000 OA
ATOM     31  C   UNL     1      47.311   6.664  13.333  0.00  0.00    +0.000 A 
ATOM     32  H   UNL     1      49.750   8.839  13.731  0.00  0.00    +0.000 HD
ENDBRANCH  19  22
ENDBRANCH   1  20
TORSDOF 7
ENDMDL
