MODEL 1
REMARK VINA RESULT:    -7.187      0.000      0.000
REMARK INTER + INTRA:         -11.698
REMARK INTER:                 -10.129
REMARK INTRA:                  -1.569
REMARK UNBOUND:                -1.569
REMARK  Name = 
REMARK  8 active torsions:
REMARK  status: ('A' for Active; 'I' for Inactive)
REMARK    1  A    between atoms: C_1  and  C_2
REMARK    2  A    between atoms: C_2  and  C_3
REMARK    3  A    between atoms: C_7  and  C_8
REMARK    4  A    between atoms: C_8  and  C_9
REMARK    5  A    between atoms: C_9  and  N_10
REMARK    6  A    between atoms: N_10  and  C_11
REMARK    7  A    between atoms: N_21  and  C_22
REMARK    8  A    between atoms: C_22  and  C_23
REMARK                            x       y       z     vdW  Elec       q    Type
REMARK                         _______ _______ _______ _____ _____    ______ ____
ROOT
ATOM      1  C   UNL     1      46.263   6.516  12.887  0.00  0.00    +0.000 A 
ATOM      2  C   UNL     1      45.623   7.746  12.717  0.00  0.00    +0.000 A 
ATOM      3  C   UNL     1      46.229   8.903  13.176  0.00  0.00    +0.000 A 
ATOM      4  C   UNL     1      47.467   8.815  13.789  0.00  0.00    +0.000 A 
ATOM      5  C   UNL     1      48.077   7.569  13.936  0.00  0.00    +0.000 A 
ATOM      6  N   UNL     1      47.480   6.427  13.492  0.00  0.00    +0.000 NA
ENDROOT
BRANCH   1   8
ATOM      7  C   UNL     1      46.497   4.034  12.735  0.00  0.00    +0.000 C 
ATOM      8  C   UNL     1      45.574   5.232  12.395  0.00  0.00    +0.000 C 
ATOM      9  C   UNL     1      44.199   5.100  13.101  0.00  0.00    +0.000 C 
ATOM     10  C   UNL     1      43.379   3.929  12.571  0.00  0.00    +0.000 C 
ATOM     11  C   UNL     1      43.250   3.973  11.050  0.00  0.00    +0.000 C 
ATOM     12  N   UNL     1      44.571   4.037  10.409  0.00  0.00    +0.000 NA
ATOM     13  C   UNL     1      45.314   5.242  10.859  0.00  0.00    +0.000 C 
BRANCH  12  14
ATOM     14  C   UNL     1      44.461   4.014   8.925  0.00  0.00    +0.000 C 
BRANCH  14  15
ATOM     15  C   UNL     1      45.670   3.523   8.087  0.00  0.00    +0.000 C 
ATOM     16  F   UNL     1      46.251   2.406   8.573  0.00  0.00    +0.000 F 
ATOM     17  F   UNL     1      45.287   3.255   6.814  0.00  0.00    +0.000 F 
ATOM     18  F   UNL     1      46.631   4.476   8.021  0.00  0.00    +0.000 F 
ENDBRANCH  14  15
ENDBRANCH  12  14
ENDBRANCH   1   8
BRANCH   5  19
ATOM     19  C   UNL     1      49.436   7.404  14.597  0.00  0.00    +0.000 C 
BRANCH  19  20
ATOM     20  C   UNL     1      49.393   7.451  16.129  0.00  0.00    +0.000 C 
BRANCH  20  21
ATOM     21  N   UNL     1      48.330   6.634  16.707  0.00  0.00    +0.000 N 
ATOM     22  H   UNL     1      47.880   7.036  17.526  0.00  0.00    +0.000 HD
BRANCH  21  23
ATOM     23  C   UNL     1      48.575   5.261  16.876  0.00  0.00    +0.000 A 
ATOM     24  C   UNL     1      49.733   4.736  17.472  0.00  0.00    +0.000 A 
ATOM     25  C   UNL     1      49.954   3.360  17.552  0.00  0.00    +0.000 A 
ATOM     26  C   UNL     1      49.034   2.473  17.002  0.00  0.00    +0.000 A 
ATOM     27  C   UNL     1      47.894   2.968  16.378  0.00  0.00    +0.000 A 
ATOM     28  C   UNL     1      47.672   4.347  16.312  0.00  0.00    +0.000 A 
ENDBRANCH  21  23
ENDBRANCH  20  21
ENDBRANCH  19  20
ENDBRANCH   5  19
TORSDOF 7
ENDMDL
MODEL 2
REMARK VINA RESULT:    -7.124      3.856      7.973
REMARK INTER + INTRA:         -11.609
REMARK INTER:                 -10.664
REMARK INTRA:                  -0.945
REMARK UNBOUND:                -1.569
REMARK  Name = 
REMARK  8 active torsions:
REMARK  status: ('A' for Active; 'I' for Inactive)
REMARK    1  A    between atoms: C_1  and  C_2
REMARK    2  A    between atoms: C_2  and  C_3
REMARK    3  A    between atoms: C_7  and  C_8
REMARK    4  A    between atoms: C_8  and  C_9
REMARK    5  A    between atoms: C_9  and  N_10
REMARK    6  A    between atoms: N_10  and  C_11
REMARK    7  A    between atoms: N_21  and  C_22
REMARK    8  A    between atoms: C_22  and  C_23
REMARK                            x       y       z     vdW  Elec       q    Type
REMARK                         _______ _______ _______ _____ _____    ______ ____
ROOT
ATOM      1  C   UNL     1      46.521   6.635  12.765  0.00  0.00    +0.000 A 
ATOM      2  C   UNL     1      45.800   7.698  12.212  0.00  0.00    +0.000 A 
ATOM      3  C   UNL     1      44.685   7.439  11.436  0.00  0.00    +0.000 A 
ATOM      4  C   UNL     1      44.300   6.125  11.229  0.00  0.00    +0.000 A 
ATOM      5  C   UNL     1      45.042   5.092  11.802  0.00  0.00    +0.000 A 
ATOM      6  N   UNL     1      46.146   5.343  12.561  0.00  0.00    +0.000 NA
ENDROOT
BRANCH   1   8
ATOM      7  C   UNL     1      49.015   6.737  12.701  0.00  0.00    +0.000 C 
ATOM      8  C   UNL     1      47.773   6.930  13.608  0.00  0.00    +0.000 C 
ATOM      9  C   UNL     1      47.686   8.384  14.142  0.00  0.00    +0.000 C 
ATOM     10  C   UNL     1      48.817   8.721  15.107  0.00  0.00    +0.000 C 
ATOM     11  C   UNL     1      48.924   7.694  16.232  0.00  0.00    +0.000 C 
ATOM     12  N   UNL     1      49.065   6.333  15.694  0.00  0.00    +0.000 NA
ATOM     13  C   UNL     1      47.902   5.984  14.840  0.00  0.00    +0.000 C 
BRANCH  12  14
ATOM     14  C   UNL     1      49.238   5.331  16.780  0.00  0.00    +0.000 C 
BRANCH  14  15
ATOM     15  C   UNL     1      50.650   5.099  17.377  0.00  0.00    +0.000 C 
ATOM     16  F   UNL     1      50.992   3.797  17.474  0.00  0.00    +0.000 F 
ATOM     17  F   UNL     1      51.592   5.706  16.613  0.00  0.00    +0.000 F 
ATOM     18  F   UNL     1      50.742   5.630  18.620  0.00  0.00    +0.000 F 
ENDBRANCH  14  15
ENDBRANCH  12  14
ENDBRANCH   1   8
BRANCH   5  19
ATOM     19  C   UNL     1      44.673   3.628  11.616  0.00  0.00    +0.000 C 
BRANCH  19  20
ATOM     20  C   UNL     1      44.193   3.281  10.202  0.00  0.00    +0.000 C 
BRANCH  20  21
ATOM     21  N   UNL     1      44.849   2.105   9.638  0.00  0.00    +0.000 N 
ATOM     22  H   UNL     1      45.272   1.482  10.323  0.00  0.00    +0.000 HD
BRANCH  21  23
ATOM     23  C   UNL     1      45.686   2.290   8.524  0.00  0.00    +0.000 A 
ATOM     24  C   UNL     1      45.743   3.474   7.772  0.00  0.00    +0.000 A 
ATOM     25  C   UNL     1      46.544   3.579   6.633  0.00  0.00    +0.000 A 
ATOM     26  C   UNL     1      47.282   2.483   6.197  0.00  0.00    +0.000 A 
ATOM     27  C   UNL     1      47.218   1.288   6.907  0.00  0.00    +0.000 A 
ATOM     28  C   UNL     1      46.424   1.194   8.055  0.00  0.00    +0.000 A 
ENDBRANCH  21  23
ENDBRANCH  20  21
ENDBRANCH  19  20
ENDBRANCH   5  19
TORSDOF 7
ENDMDL
MODEL 3
REMARK VINA RESULT:    -6.795      2.132      5.207
REMARK INTER + INTRA:         -11.146
REMARK INTER:                  -9.362
REMARK INTRA:                  -1.784
REMARK UNBOUND:                -1.569
REMARK  Name = 
REMARK  8 active torsions:
REMARK  status: ('A' for Active; 'I' for Inactive)
REMARK    1  A    between atoms: C_1  and  C_2
REMARK    2  A    between atoms: C_2  and  C_3
REMARK    3  A    between atoms: C_7  and  C_8
REMARK    4  A    between atoms: C_8  and  C_9
REMARK    5  A    between atoms: C_9  and  N_10
REMARK    6  A    between atoms: N_10  and  C_11
REMARK    7  A    between atoms: N_21  and  C_22
REMARK    8  A    between atoms: C_22  and  C_23
REMARK                            x       y       z     vdW  Elec       q    Type
REMARK                         _______ _______ _______ _____ _____    ______ ____
ROOT
ATOM      1  C   UNL     1      46.876   5.989  12.941  0.00  0.00    +0.000 A 
ATOM      2  C   UNL     1      47.459   5.685  14.174  0.00  0.00    +0.000 A 
ATOM      3  C   UNL     1      48.495   6.467  14.654  0.00  0.00    +0.000 A 
ATOM      4  C   UNL     1      48.927   7.546  13.901  0.00  0.00    +0.000 A 
ATOM      5  C   UNL     1      48.316   7.821  12.677  0.00  0.00    +0.000 A 
ATOM      6  N   UNL     1      47.301   7.048  12.198  0.00  0.00    +0.000 NA
ENDROOT
BRANCH   1   8
ATOM      7  C   UNL     1      46.056   3.635  12.791  0.00  0.00    +0.000 C 
ATOM      8  C   UNL     1      45.741   5.102  12.403  0.00  0.00    +0.000 C 
ATOM      9  C   UNL     1      44.400   5.573  13.026  0.00  0.00    +0.000 C 
ATOM     10  C   UNL     1      43.196   4.842  12.443  0.00  0.00    +0.000 C 
ATOM     11  C   UNL     1      43.182   4.905  10.917  0.00  0.00    +0.000 C 
ATOM     12  N   UNL     1      44.441   4.398  10.355  0.00  0.00    +0.000 NA
ATOM     13  C   UNL     1      45.595   5.189  10.854  0.00  0.00    +0.000 C 
BRANCH  12  14
ATOM     14  C   UNL     1      44.414   4.392   8.868  0.00  0.00    +0.000 C 
BRANCH  14  15
ATOM     15  C   UNL     1      45.516   3.621   8.096  0.00  0.00    +0.000 C 
ATOM     16  F   UNL     1      45.131   3.205   6.871  0.00  0.00    +0.000 F 
ATOM     17  F   UNL     1      46.612   4.401   7.929  0.00  0.00    +0.000 F 
ATOM     18  F   UNL     1      45.910   2.523   8.785  0.00  0.00    +0.000 F 
ENDBRANCH  14  15
ENDBRANCH  12  14
ENDBRANCH   1   8
BRANCH   5  19
ATOM     19  C   UNL     1      48.741   8.990  11.804  0.00  0.00    +0.000 C 
BRANCH  19  20
ATOM     20  C   UNL     1      47.893  10.253  11.996  0.00  0.00    +0.000 C 
BRANCH  20  21
ATOM     21  N   UNL     1      46.599   9.995  12.620  0.00  0.00    +0.000 N 
ATOM     22  H   UNL     1      46.560   9.152  13.190  0.00  0.00    +0.000 HD
BRANCH  21  23
ATOM     23  C   UNL     1      45.447  10.133  11.827  0.00  0.00    +0.000 A 
ATOM     24  C   UNL     1      44.531   9.097  11.585  0.00  0.00    +0.000 A 
ATOM     25  C   UNL     1      43.439   9.271  10.732  0.00  0.00    +0.000 A 
ATOM     26  C   UNL     1      43.258  10.482  10.070  0.00  0.00    +0.000 A 
ATOM     27  C   UNL     1      44.170  11.514  10.269  0.00  0.00    +0.000 A 
ATOM     28  C   UNL     1      45.254  11.336  11.134  0.00  0.00    +0.000 A 
ENDBRANCH  21  23
ENDBRANCH  20  21
ENDBRANCH  19  20
ENDBRANCH   5  19
TORSDOF 7
ENDMDL
MODEL 4
REMARK VINA RESULT:    -6.501      4.095      7.532
REMARK INTER + INTRA:         -10.731
REMARK INTER:                  -9.786
REMARK INTRA:                  -0.945
REMARK UNBOUND:                -1.569
REMARK  Name = 
REMARK  8 active torsions:
REMARK  status: ('A' for Active; 'I' for Inactive)
REMARK    1  A    between atoms: C_1  and  C_2
REMARK    2  A    between atoms: C_2  and  C_3
REMARK    3  A    between atoms: C_7  and  C_8
REMARK    4  A    between atoms: C_8  and  C_9
REMARK    5  A    between atoms: C_9  and  N_10
REMARK    6  A    between atoms: N_10  and  C_11
REMARK    7  A    between atoms: N_21  and  C_22
REMARK    8  A    between atoms: C_22  and  C_23
REMARK                            x       y       z     vdW  Elec       q    Type
REMARK                         _______ _______ _______ _____ _____    ______ ____
ROOT
ATOM      1  C   UNL     1      46.056   7.217  11.964  0.00  0.00    +0.000 A 
ATOM      2  C   UNL     1      44.896   7.955  11.715  0.00  0.00    +0.000 A 
ATOM      3  C   UNL     1      43.735   7.302  11.343  0.00  0.00    +0.000 A 
ATOM      4  C   UNL     1      43.746   5.921  11.233  0.00  0.00    +0.000 A 
ATOM      5  C   UNL     1      44.923   5.219  11.496  0.00  0.00    +0.000 A 
ATOM      6  N   UNL     1      46.070   5.860  11.855  0.00  0.00    +0.000 NA
ENDROOT
BRANCH   1   8
ATOM      7  C   UNL     1      47.127   9.468  12.121  0.00  0.00    +0.000 C 
ATOM      8  C   UNL     1      47.349   7.952  12.356  0.00  0.00    +0.000 C 
ATOM      9  C   UNL     1      47.664   7.653  13.845  0.00  0.00    +0.000 C 
ATOM     10  C   UNL     1      49.006   8.226  14.285  0.00  0.00    +0.000 C 
ATOM     11  C   UNL     1      50.137   7.794  13.355  0.00  0.00    +0.000 C 
ATOM     12  N   UNL     1      49.837   8.143  11.960  0.00  0.00    +0.000 NA
ATOM     13  C   UNL     1      48.578   7.491  11.515  0.00  0.00    +0.000 C 
BRANCH  12  14
ATOM     14  C   UNL     1      50.960   7.787  11.052  0.00  0.00    +0.000 C 
BRANCH  14  15
ATOM     15  C   UNL     1      52.079   8.829  10.790  0.00  0.00    +0.000 C 
ATOM     16  F   UNL     1      52.490   8.874   9.506  0.00  0.00    +0.000 F 
ATOM     17  F   UNL     1      51.654  10.074  11.121  0.00  0.00    +0.000 F 
ATOM     18  F   UNL     1      53.170   8.566  11.549  0.00  0.00    +0.000 F 
ENDBRANCH  14  15
ENDBRANCH  12  14
ENDBRANCH   1   8
BRANCH   5  19
ATOM     19  C   UNL     1      45.002   3.704  11.396  0.00  0.00    +0.000 C 
BRANCH  19  20
ATOM     20  C   UNL     1      44.197   3.113  10.233  0.00  0.00    +0.000 C 
BRANCH  20  21
ATOM     21  N   UNL     1      44.804   1.918   9.653  0.00  0.00    +0.000 N 
ATOM     22  H   UNL     1      45.230   1.286  10.327  0.00  0.00    +0.000 HD
BRANCH  21  23
ATOM     23  C   UNL     1      45.614   2.078   8.515  0.00  0.00    +0.000 A 
ATOM     24  C   UNL     1      46.471   1.086   8.015  0.00  0.00    +0.000 A 
ATOM     25  C   UNL     1      47.304   1.323   6.920  0.00  0.00    +0.000 A 
ATOM     26  C   UNL     1      47.326   2.578   6.320  0.00  0.00    +0.000 A 
ATOM     27  C   UNL     1      46.508   3.589   6.817  0.00  0.00    +0.000 A 
ATOM     28  C   UNL     1      45.667   3.340   7.906  0.00  0.00    +0.000 A 
ENDBRANCH  21  23
ENDBRANCH  20  21
ENDBRANCH  19  20
ENDBRANCH   5  19
TORSDOF 7
ENDMDL
MODEL 5
REMARK VINA RESULT:    -6.289      3.332      7.509
REMARK INTER + INTRA:         -10.432
REMARK INTER:                  -9.978
REMARK INTRA:                  -0.454
REMARK UNBOUND:                -1.569
REMARK  Name = 
REMARK  8 active torsions:
REMARK  status: ('A' for Active; 'I' for Inactive)
REMARK    1  A    between atoms: C_1  and  C_2
REMARK    2  A    between atoms: C_2  and  C_3
REMARK    3  A    between atoms: C_7  and  C_8
REMARK    4  A    between atoms: C_8  and  C_9
REMARK    5  A    between atoms: C_9  and  N_10
REMARK    6  A    between atoms: N_10  and  C_11
REMARK    7  A    between atoms: N_21  and  C_22
REMARK    8  A    between atoms: C_22  and  C_23
REMARK                            x       y       z     vdW  Elec       q    Type
REMARK                         _______ _______ _______ _____ _____    ______ ____
ROOT
ATOM      1  C   UNL     1      48.450   7.129  14.197  0.00  0.00    +0.000 A 
ATOM      2  C   UNL     1      48.993   8.155  13.419  0.00  0.00    +0.000 A 
ATOM      3  C   UNL     1      48.563   8.327  12.115  0.00  0.00    +0.000 A 
ATOM      4  C   UNL     1      47.591   7.478  11.611  0.00  0.00    +0.000 A 
ATOM      5  C   UNL     1      47.070   6.469  12.421  0.00  0.00    +0.000 A 
ATOM      6  N   UNL     1      47.497   6.292  13.702  0.00  0.00    +0.000 NA
ENDROOT
BRANCH   1   8
ATOM      7  C   UNL     1      50.499   6.982  15.618  0.00  0.00    +0.000 C 
ATOM      8  C   UNL     1      48.950   6.929  15.638  0.00  0.00    +0.000 C 
ATOM      9  C   UNL     1      48.360   8.051  16.532  0.00  0.00    +0.000 C 
ATOM     10  C   UNL     1      48.687   7.855  18.008  0.00  0.00    +0.000 C 
ATOM     11  C   UNL     1      48.296   6.460  18.492  0.00  0.00    +0.000 C 
ATOM     12  N   UNL     1      48.918   5.419  17.662  0.00  0.00    +0.000 NA
ATOM     13  C   UNL     1      48.505   5.564  16.243  0.00  0.00    +0.000 C 
BRANCH  12  14
ATOM     14  C   UNL     1      48.599   4.055  18.164  0.00  0.00    +0.000 C 
BRANCH  14  15
ATOM     15  C   UNL     1      47.607   3.170  17.366  0.00  0.00    +0.000 C 
ATOM     16  F   UNL     1      46.598   3.863  16.798  0.00  0.00    +0.000 F 
ATOM     17  F   UNL     1      48.253   2.513  16.371  0.00  0.00    +0.000 F 
ATOM     18  F   UNL     1      47.046   2.232  18.166  0.00  0.00    +0.000 F 
ENDBRANCH  14  15
ENDBRANCH  12  14
ENDBRANCH   1   8
BRANCH   5  19
ATOM     19  C   UNL     1      46.001   5.506  11.929  0.00  0.00    +0.000 C 
BRANCH  19  20
ATOM     20  C   UNL     1      45.235   6.001  10.697  0.00  0.00    +0.000 C 
BRANCH  20  21
ATOM     21  N   UNL     1      44.400   4.975  10.081  0.00  0.00    +0.000 N 
ATOM     22  H   UNL     1      43.737   4.528  10.711  0.00  0.00    +0.000 HD
BRANCH  21  23
ATOM     23  C   UNL     1      45.024   4.036   9.241  0.00  0.00    +0.000 A 
ATOM     24  C   UNL     1      44.958   2.647   9.430  0.00  0.00    +0.000 A 
ATOM     25  C   UNL     1      45.654   1.762   8.603  0.00  0.00    +0.000 A 
ATOM     26  C   UNL     1      46.467   2.253   7.585  0.00  0.00    +0.000 A 
ATOM     27  C   UNL     1      46.574   3.628   7.398  0.00  0.00    +0.000 A 
ATOM     28  C   UNL     1      45.863   4.507   8.221  0.00  0.00    +0.000 A 
ENDBRANCH  21  23
ENDBRANCH  20  21
ENDBRANCH  19  20
ENDBRANCH   5  19
TORSDOF 7
ENDMDL
MODEL 6
REMARK VINA RESULT:    -5.962      3.286      6.848
REMARK INTER + INTRA:          -9.972
REMARK INTER:                  -8.569
REMARK INTRA:                  -1.402
REMARK UNBOUND:                -1.569
REMARK  Name = 
REMARK  8 active torsions:
REMARK  status: ('A' for Active; 'I' for Inactive)
REMARK    1  A    between atoms: C_1  and  C_2
REMARK    2  A    between atoms: C_2  and  C_3
REMARK    3  A    between atoms: C_7  and  C_8
REMARK    4  A    between atoms: C_8  and  C_9
REMARK    5  A    between atoms: C_9  and  N_10
REMARK    6  A    between atoms: N_10  and  C_11
REMARK    7  A    between atoms: N_21  and  C_22
REMARK    8  A    between atoms: C_22  and  C_23
REMARK                            x       y       z     vdW  Elec       q    Type
REMARK                         _______ _______ _______ _____ _____    ______ ____
ROOT
ATOM      1  C   UNL     1      49.530   7.451  14.474  0.00  0.00    +0.000 A 
ATOM      2  C   UNL     1      50.665   8.067  13.941  0.00  0.00    +0.000 A 
ATOM      3  C   UNL     1      50.694   8.409  12.601  0.00  0.00    +0.000 A 
ATOM      4  C   UNL     1      49.586   8.140  11.815  0.00  0.00    +0.000 A 
ATOM      5  C   UNL     1      48.469   7.529  12.384  0.00  0.00    +0.000 A 
ATOM      6  N   UNL     1      48.441   7.183  13.702  0.00  0.00    +0.000 NA
ENDROOT
BRANCH   1   8
ATOM      7  C   UNL     1      50.899   6.450  16.308  0.00  0.00    +0.000 C 
ATOM      8  C   UNL     1      49.513   7.053  15.959  0.00  0.00    +0.000 C 
ATOM      9  C   UNL     1      49.217   8.314  16.813  0.00  0.00    +0.000 C 
ATOM     10  C   UNL     1      49.042   7.991  18.292  0.00  0.00    +0.000 C 
ATOM     11  C   UNL     1      48.010   6.887  18.510  0.00  0.00    +0.000 C 
ATOM     12  N   UNL     1      48.350   5.685  17.736  0.00  0.00    +0.000 NA
ATOM     13  C   UNL     1      48.414   5.997  16.285  0.00  0.00    +0.000 C 
BRANCH  12  14
ATOM     14  C   UNL     1      47.388   4.579  17.991  0.00  0.00    +0.000 C 
BRANCH  14  15
ATOM     15  C   UNL     1      47.635   3.197  17.332  0.00  0.00    +0.000 C 
ATOM     16  F   UNL     1      48.890   2.731  17.502  0.00  0.00    +0.000 F 
ATOM     17  F   UNL     1      46.790   2.269  17.845  0.00  0.00    +0.000 F 
ATOM     18  F   UNL     1      47.407   3.250  15.998  0.00  0.00    +0.000 F 
ENDBRANCH  14  15
ENDBRANCH  12  14
ENDBRANCH   1   8
BRANCH   5  19
ATOM     19  C   UNL     1      47.221   7.208  11.578  0.00  0.00    +0.000 C 
BRANCH  19  20
ATOM     20  C   UNL     1      45.912   7.595  12.274  0.00  0.00    +0.000 C 
BRANCH  20  21
ATOM     21  N   UNL     1      45.439   6.592  13.223  0.00  0.00    +0.000 N 
ATOM     22  H   UNL     1      46.090   6.376  13.976  0.00  0.00    +0.000 HD
BRANCH  21  23
ATOM     23  C   UNL     1      44.844   5.428  12.708  0.00  0.00    +0.000 A 
ATOM     24  C   UNL     1      45.423   4.151  12.779  0.00  0.00    +0.000 A 
ATOM     25  C   UNL     1      44.818   3.040  12.190  0.00  0.00    +0.000 A 
ATOM     26  C   UNL     1      43.630   3.188  11.480  0.00  0.00    +0.000 A 
ATOM     27  C   UNL     1      43.052   4.448  11.368  0.00  0.00    +0.000 A 
ATOM     28  C   UNL     1      43.657   5.555  11.972  0.00  0.00    +0.000 A 
ENDBRANCH  21  23
ENDBRANCH  20  21
ENDBRANCH  19  20
ENDBRANCH   5  19
TORSDOF 7
ENDMDL
MODEL 7
REMARK VINA RESULT:    -5.733      2.607      4.589
REMARK INTER + INTRA:          -9.648
REMARK INTER:                  -8.406
REMARK INTRA:                  -1.242
REMARK UNBOUND:                -1.569
REMARK  Name = 
REMARK  8 active torsions:
REMARK  status: ('A' for Active; 'I' for Inactive)
REMARK    1  A    between atoms: C_1  and  C_2
REMARK    2  A    between atoms: C_2  and  C_3
REMARK    3  A    between atoms: C_7  and  C_8
REMARK    4  A    between atoms: C_8  and  C_9
REMARK    5  A    between atoms: C_9  and  N_10
REMARK    6  A    between atoms: N_10  and  C_11
REMARK    7  A    between atoms: N_21  and  C_22
REMARK    8  A    between atoms: C_22  and  C_23
REMARK                            x       y       z     vdW  Elec       q    Type
REMARK                         _______ _______ _______ _____ _____    ______ ____
ROOT
ATOM      1  C   UNL     1      46.568   5.858  13.258  0.00  0.00    +0.000 A 
ATOM      2  C   UNL     1      47.374   5.374  14.291  0.00  0.00    +0.000 A 
ATOM      3  C   UNL     1      48.286   6.217  14.901  0.00  0.00    +0.000 A 
ATOM      4  C   UNL     1      48.373   7.532  14.477  0.00  0.00    +0.000 A 
ATOM      5  C   UNL     1      47.547   7.980  13.446  0.00  0.00    +0.000 A 
ATOM      6  N   UNL     1      46.653   7.150  12.838  0.00  0.00    +0.000 NA
ENDROOT
BRANCH   1   8
ATOM      7  C   UNL     1      46.040   3.454  12.832  0.00  0.00    +0.000 C 
ATOM      8  C   UNL     1      45.573   4.908  12.569  0.00  0.00    +0.000 C 
ATOM      9  C   UNL     1      44.157   5.159  13.152  0.00  0.00    +0.000 C 
ATOM     10  C   UNL     1      43.078   4.361  12.429  0.00  0.00    +0.000 C 
ATOM     11  C   UNL     1      43.131   4.579  10.918  0.00  0.00    +0.000 C 
ATOM     12  N   UNL     1      44.468   4.276  10.388  0.00  0.00    +0.000 NA
ATOM     13  C   UNL     1      45.494   5.137  11.030  0.00  0.00    +0.000 C 
BRANCH  12  14
ATOM     14  C   UNL     1      44.515   4.420   8.907  0.00  0.00    +0.000 C 
BRANCH  14  15
ATOM     15  C   UNL     1      45.633   3.696   8.114  0.00  0.00    +0.000 C 
ATOM     16  F   UNL     1      45.254   3.297   6.882  0.00  0.00    +0.000 F 
ATOM     17  F   UNL     1      46.708   4.509   7.961  0.00  0.00    +0.000 F 
ATOM     18  F   UNL     1      46.059   2.593   8.776  0.00  0.00    +0.000 F 
ENDBRANCH  14  15
ENDBRANCH  12  14
ENDBRANCH   1   8
BRANCH   5  19
ATOM     19  C   UNL     1      47.590   9.411  12.935  0.00  0.00    +0.000 C 
BRANCH  19  20
ATOM     20  C   UNL     1      48.766   9.702  11.995  0.00  0.00    +0.000 C 
BRANCH  20  21
ATOM     21  N   UNL     1      49.343   8.502  11.397  0.00  0.00    +0.000 N 
ATOM     22  H   UNL     1      49.114   7.633  11.876  0.00  0.00    +0.000 HD
BRANCH  21  23
ATOM     23  C   UNL     1      50.697   8.540  11.022  0.00  0.00    +0.000 A 
ATOM     24  C   UNL     1      51.438   7.412  10.638  0.00  0.00    +0.000 A 
ATOM     25  C   UNL     1      52.800   7.498  10.341  0.00  0.00    +0.000 A 
ATOM     26  C   UNL     1      53.463   8.716  10.457  0.00  0.00    +0.000 A 
ATOM     27  C   UNL     1      52.758   9.843  10.867  0.00  0.00    +0.000 A 
ATOM     28  C   UNL     1      51.392   9.752  11.151  0.00  0.00    +0.000 A 
ENDBRANCH  21  23
ENDBRANCH  20  21
ENDBRANCH  19  20
ENDBRANCH   5  19
TORSDOF 7
ENDMDL
MODEL 8
REMARK VINA RESULT:    -5.187      3.159      6.973
REMARK INTER + INTRA:          -8.879
REMARK INTER:                  -7.208
REMARK INTRA:                  -1.671
REMARK UNBOUND:                -1.569
REMARK  Name = 
REMARK  8 active torsions:
REMARK  status: ('A' for Active; 'I' for Inactive)
REMARK    1  A    between atoms: C_1  and  C_2
REMARK    2  A    between atoms: C_2  and  C_3
REMARK    3  A    between atoms: C_7  and  C_8
REMARK    4  A    between atoms: C_8  and  C_9
REMARK    5  A    between atoms: C_9  and  N_10
REMARK    6  A    between atoms: N_10  and  C_11
REMARK    7  A    between atoms: N_21  and  C_22
REMARK    8  A    between atoms: C_22  and  C_23
REMARK                            x       y       z     vdW  Elec       q    Type
REMARK                         _______ _______ _______ _____ _____    ______ ____
ROOT
ATOM      1  C   UNL     1      50.242   5.998  16.706  0.00  0.00    +0.000 A 
ATOM      2  C   UNL     1      51.174   5.595  17.666  0.00  0.00    +0.000 A 
ATOM      3  C   UNL     1      50.949   4.444  18.400  0.00  0.00    +0.000 A 
ATOM      4  C   UNL     1      49.802   3.706  18.157  0.00  0.00    +0.000 A 
ATOM      5  C   UNL     1      48.898   4.137  17.186  0.00  0.00    +0.000 A 
ATOM      6  N   UNL     1      49.113   5.275  16.468  0.00  0.00    +0.000 NA
ENDROOT
BRANCH   1   8
ATOM      7  C   UNL     1      50.101   8.489  16.815  0.00  0.00    +0.000 C 
ATOM      8  C   UNL     1      50.488   7.291  15.911  0.00  0.00    +0.000 C 
ATOM      9  C   UNL     1      51.984   7.352  15.505  0.00  0.00    +0.000 C 
ATOM     10  C   UNL     1      52.293   8.532  14.591  0.00  0.00    +0.000 C 
ATOM     11  C   UNL     1      51.361   8.569  13.381  0.00  0.00    +0.000 C 
ATOM     12  N   UNL     1      49.952   8.571  13.800  0.00  0.00    +0.000 NA
ATOM     13  C   UNL     1      49.643   7.360  14.603  0.00  0.00    +0.000 C 
BRANCH  12  14
ATOM     14  C   UNL     1      49.035   8.674  12.633  0.00  0.00    +0.000 C 
BRANCH  14  15
ATOM     15  C   UNL     1      47.844   9.666  12.695  0.00  0.00    +0.000 C 
ATOM     16  F   UNL     1      48.136  10.826  13.319  0.00  0.00    +0.000 F 
ATOM     17  F   UNL     1      47.421   9.977  11.445  0.00  0.00    +0.000 F 
ATOM     18  F   UNL     1      46.791   9.116  13.347  0.00  0.00    +0.000 F 
ENDBRANCH  14  15
ENDBRANCH  12  14
ENDBRANCH   1   8
BRANCH   5  19
ATOM     19  C   UNL     1      47.622   3.373  16.870  0.00  0.00    +0.000 C 
BRANCH  19  20
ATOM     20  C   UNL     1      46.771   4.011  15.766  0.00  0.00    +0.000 C 
BRANCH  20  21
ATOM     21  N   UNL     1      47.108   3.539  14.426  0.00  0.00    +0.000 N 
ATOM     22  H   UNL     1      48.096   3.346  14.277  0.00  0.00    +0.000 HD
BRANCH  21  23
ATOM     23  C   UNL     1      46.544   4.214  13.330  0.00  0.00    +0.000 A 
ATOM     24  C   UNL     1      46.840   5.543  12.990  0.00  0.00    +0.000 A 
ATOM     25  C   UNL     1      46.198   6.187  11.929  0.00  0.00    +0.000 A 
ATOM     26  C   UNL     1      45.213   5.523  11.205  0.00  0.00    +0.000 A 
ATOM     27  C   UNL     1      44.879   4.215  11.543  0.00  0.00    +0.000 A 
ATOM     28  C   UNL     1      45.535   3.573  12.598  0.00  0.00    +0.000 A 
ENDBRANCH  21  23
ENDBRANCH  20  21
ENDBRANCH  19  20
ENDBRANCH   5  19
TORSDOF 7
ENDMDL
MODEL 9
REMARK VINA RESULT:    -5.172      4.111      6.469
REMARK INTER + INTRA:          -8.858
REMARK INTER:                  -7.454
REMARK INTRA:                  -1.404
REMARK UNBOUND:                -1.569
REMARK  Name = 
REMARK  8 active torsions:
REMARK  status: ('A' for Active; 'I' for Inactive)
REMARK    1  A    between atoms: C_1  and  C_2
REMARK    2  A    between atoms: C_2  and  C_3
REMARK    3  A    between atoms: C_7  and  C_8
REMARK    4  A    between atoms: C_8  and  C_9
REMARK    5  A    between atoms: C_9  and  N_10
REMARK    6  A    between atoms: N_10  and  C_11
REMARK    7  A    between atoms: N_21  and  C_22
REMARK    8  A    between atoms: C_22  and  C_23
REMARK                            x       y       z     vdW  Elec       q    Type
REMARK                         _______ _______ _______ _____ _____    ______ ____
ROOT
ATOM      1  C   UNL     1      47.962   6.882  12.670  0.00  0.00    +0.000 A 
ATOM      2  C   UNL     1      47.041   7.018  11.628  0.00  0.00    +0.000 A 
ATOM      3  C   UNL     1      46.035   6.081  11.476  0.00  0.00    +0.000 A 
ATOM      4  C   UNL     1      45.958   5.027  12.372  0.00  0.00    +0.000 A 
ATOM      5  C   UNL     1      46.893   4.929  13.402  0.00  0.00    +0.000 A 
ATOM      6  N   UNL     1      47.890   5.846  13.550  0.00  0.00    +0.000 NA
ENDROOT
BRANCH   1   8
ATOM      7  C   UNL     1      50.124   7.661  11.691  0.00  0.00    +0.000 C 
ATOM      8  C   UNL     1      49.092   7.916  12.819  0.00  0.00    +0.000 C 
ATOM      9  C   UNL     1      48.484   9.340  12.715  0.00  0.00    +0.000 C 
ATOM     10  C   UNL     1      49.509  10.434  12.992  0.00  0.00    +0.000 C 
ATOM     11  C   UNL     1      50.233  10.206  14.317  0.00  0.00    +0.000 C 
ATOM     12  N   UNL     1      50.848   8.872  14.361  0.00  0.00    +0.000 NA
ATOM     13  C   UNL     1      49.819   7.815  14.193  0.00  0.00    +0.000 C 
BRANCH  12  14
ATOM     14  C   UNL     1      51.614   8.664  15.620  0.00  0.00    +0.000 C 
BRANCH  14  15
ATOM     15  C   UNL     1      52.667   7.527  15.683  0.00  0.00    +0.000 C 
ATOM     16  F   UNL     1      53.667   7.762  16.558  0.00  0.00    +0.000 F 
ATOM     17  F   UNL     1      52.082   6.359  16.046  0.00  0.00    +0.000 F 
ATOM     18  F   UNL     1      53.236   7.328  14.470  0.00  0.00    +0.000 F 
ENDBRANCH  14  15
ENDBRANCH  12  14
ENDBRANCH   1   8
BRANCH   5  19
ATOM     19  C   UNL     1      46.862   3.799  14.419  0.00  0.00    +0.000 C 
BRANCH  19  20
ATOM     20  C   UNL     1      47.170   4.242  15.854  0.00  0.00    +0.000 C 
BRANCH  20  21
ATOM     21  N   UNL     1      47.546   3.141  16.735  0.00  0.00    +0.000 N 
ATOM     22  H   UNL     1      46.907   2.976  17.509  0.00  0.00    +0.000 HD
BRANCH  21  23
ATOM     23  C   UNL     1      48.887   3.059  17.149  0.00  0.00    +0.000 A 
ATOM     24  C   UNL     1      49.600   4.125  17.719  0.00  0.00    +0.000 A 
ATOM     25  C   UNL     1      50.952   4.007  18.049  0.00  0.00    +0.000 A 
ATOM     26  C   UNL     1      51.634   2.824  17.781  0.00  0.00    +0.000 A 
ATOM     27  C   UNL     1      50.957   1.763  17.187  0.00  0.00    +0.000 A 
ATOM     28  C   UNL     1      49.601   1.884  16.871  0.00  0.00    +0.000 A 
ENDBRANCH  21  23
ENDBRANCH  20  21
ENDBRANCH  19  20
ENDBRANCH   5  19
TORSDOF 7
ENDMDL
