MODEL 1
REMARK VINA RESULT:    -8.295      0.000      0.000
REMARK INTER + INTRA:         -11.391
REMARK INTER:                 -10.720
REMARK INTRA:                  -0.671
REMARK UNBOUND:                -0.671
REMARK  Name = 
REMARK  5 active torsions:
REMARK  status: ('A' for Active; 'I' for Inactive)
REMARK    1  A    between atoms: C_2  and  C_4
REMARK    2  A    between atoms: C_7  and  O_8
REMARK    3  A    between atoms: O_8  and  C_9
REMARK    4  A    between atoms: C_9  and  C_10
REMARK    5  A    between atoms: C_14  and  C_15
REMARK                            x       y       z     vdW  Elec       q    Type
REMARK                         _______ _______ _______ _____ _____    ______ ____
ROOT
ATOM      1  C   UNL     1      43.642   5.042  10.883  0.00  0.00    +0.000 C 
ENDROOT
BRANCH   1   2
ATOM      2  C   UNL     1      44.777   5.034  11.865  0.00  0.00    +0.000 A 
ATOM      3  C   UNL     1      44.859   4.061  12.852  0.00  0.00    +0.000 A 
ATOM      4  N   UNL     1      45.855   3.993  13.756  0.00  0.00    +0.000 NA
ATOM      5  C   UNL     1      46.817   4.945  13.679  0.00  0.00    +0.000 A 
ATOM      6  C   UNL     1      46.866   5.968  12.729  0.00  0.00    +0.000 A 
ATOM      7  C   UNL     1      45.806   5.988  11.810  0.00  0.00    +0.000 A 
BRANCH   6   8
ATOM      8  C   UNL     1      47.960   6.960  12.698  0.00  0.00    +0.000 A 
ATOM      9  C   UNL     1      49.046   6.901  13.585  0.00  0.00    +0.000 A 
ATOM     10  N   UNL     1      50.078   7.782  13.626  0.00  0.00    +0.000 NA
ATOM     11  C   UNL     1      50.045   8.788  12.725  0.00  0.00    +0.000 A 
ATOM     12  C   UNL     1      49.032   8.938  11.798  0.00  0.00    +0.000 A 
ATOM     13  F   UNL     1      49.054   9.950  10.923  0.00  0.00    +0.000 F 
ATOM     14  C   UNL     1      47.984   8.024  11.784  0.00  0.00    +0.000 A 
ENDBRANCH   6   8
ENDBRANCH   1   2
BRANCH   1  15
ATOM     15  O   UNL     1      43.570   3.765  10.245  0.00  0.00    +0.000 OA
BRANCH  15  19
ATOM     16  C   UNL     1      46.425   2.720   7.541  0.00  0.00    +0.000 A 
ATOM     17  N   UNL     1      46.073   4.028   7.538  0.00  0.00    +0.000 NA
ATOM     18  C   UNL     1      45.124   4.377   8.434  0.00  0.00    +0.000 A 
ATOM     19  C   UNL     1      44.527   3.495   9.317  0.00  0.00    +0.000 A 
ATOM     20  C   UNL     1      44.976   2.192   9.221  0.00  0.00    +0.000 A 
ATOM     21  N   UNL     1      45.916   1.773   8.349  0.00  0.00    +0.000 NA
BRANCH  16  23
ATOM     22  N   UNL     1      47.498   3.014   5.363  0.00  0.00    +0.000 N 
ATOM     23  C   UNL     1      47.489   2.310   6.547  0.00  0.00    +0.000 C 
ATOM     24  O   UNL     1      48.305   1.418   6.745  0.00  0.00    +0.000 OA
ATOM     25  H   UNL     1      48.198   2.790   4.670  0.00  0.00    +0.000 HD
ATOM     26  H   UNL     1      46.833   3.762   5.205  0.00  0.00    +0.000 HD
ENDBRANCH  16  23
ENDBRANCH  15  19
ENDBRANCH   1  15
TORSDOF 5
ENDMDL
MODEL 2
REMARK VINA RESULT:    -8.140      1.746      2.202
REMARK INTER + INTRA:         -11.191
REMARK INTER:                 -10.529
REMARK INTRA:                  -0.663
REMARK UNBOUND:                -0.671
REMARK  Name = 
REMARK  5 active torsions:
REMARK  status: ('A' for Active; 'I' for Inactive)
REMARK    1  A    between atoms: C_2  and  C_4
REMARK    2  A    between atoms: C_7  and  O_8
REMARK    3  A    between atoms: O_8  and  C_9
REMARK    4  A    between atoms: C_9  and  C_10
REMARK    5  A    between atoms: C_14  and  C_15
REMARK                            x       y       z     vdW  Elec       q    Type
REMARK                         _______ _______ _______ _____ _____    ______ ____
ROOT
ATOM      1  C   UNL     1      43.868   3.248  11.680  0.00  0.00    +0.000 C 
ENDROOT
BRANCH   1   2
ATOM      2  C   UNL     1      45.005   4.057  12.230  0.00  0.00    +0.000 A 
ATOM      3  C   UNL     1      46.032   3.451  12.943  0.00  0.00    +0.000 A 
ATOM      4  N   UNL     1      47.084   4.118  13.455  0.00  0.00    +0.000 NA
ATOM      5  C   UNL     1      47.116   5.458  13.253  0.00  0.00    +0.000 A 
ATOM      6  C   UNL     1      46.161   6.191  12.542  0.00  0.00    +0.000 A 
ATOM      7  C   UNL     1      45.089   5.444  12.028  0.00  0.00    +0.000 A 
BRANCH   6   8
ATOM      8  C   UNL     1      46.274   7.650  12.349  0.00  0.00    +0.000 A 
ATOM      9  C   UNL     1      47.515   8.304  12.315  0.00  0.00    +0.000 A 
ATOM     10  N   UNL     1      47.697   9.640  12.156  0.00  0.00    +0.000 NA
ATOM     11  C   UNL     1      46.580  10.385  12.011  0.00  0.00    +0.000 A 
ATOM     12  C   UNL     1      45.308   9.847  12.017  0.00  0.00    +0.000 A 
ATOM     13  F   UNL     1      44.235  10.633  11.862  0.00  0.00    +0.000 F 
ATOM     14  C   UNL     1      45.151   8.477  12.189  0.00  0.00    +0.000 A 
ENDBRANCH   6   8
ENDBRANCH   1   2
BRANCH   1  15
ATOM     15  O   UNL     1      43.630   3.639  10.326  0.00  0.00    +0.000 OA
BRANCH  15  19
ATOM     16  C   UNL     1      46.395   2.690   7.496  0.00  0.00    +0.000 A 
ATOM     17  N   UNL     1      46.037   1.676   8.321  0.00  0.00    +0.000 NA
ATOM     18  C   UNL     1      45.120   1.990   9.262  0.00  0.00    +0.000 A 
ATOM     19  C   UNL     1      44.555   3.244   9.409  0.00  0.00    +0.000 A 
ATOM     20  C   UNL     1      45.003   4.187   8.505  0.00  0.00    +0.000 A 
ATOM     21  N   UNL     1      45.918   3.945   7.544  0.00  0.00    +0.000 NA
BRANCH  16  23
ATOM     22  N   UNL     1      47.369   3.134   5.297  0.00  0.00    +0.000 N 
ATOM     23  C   UNL     1      47.419   2.357   6.433  0.00  0.00    +0.000 C 
ATOM     24  O   UNL     1      48.253   1.466   6.539  0.00  0.00    +0.000 OA
ATOM     25  H   UNL     1      48.039   2.964   4.561  0.00  0.00    +0.000 HD
ATOM     26  H   UNL     1      46.689   3.881   5.214  0.00  0.00    +0.000 HD
ENDBRANCH  16  23
ENDBRANCH  15  19
ENDBRANCH   1  15
TORSDOF 5
ENDMDL
MODEL 3
REMARK VINA RESULT:    -8.086      2.661      3.453
REMARK INTER + INTRA:         -11.121
REMARK INTER:                 -10.574
REMARK INTRA:                  -0.547
REMARK UNBOUND:                -0.671
REMARK  Name = 
REMARK  5 active torsions:
REMARK  status: ('A' for Active; 'I' for Inactive)
REMARK    1  A    between atoms: C_2  and  C_4
REMARK    2  A    between atoms: C_7  and  O_8
REMARK    3  A    between atoms: O_8  and  C_9
REMARK    4  A    between atoms: C_9  and  C_10
REMARK    5  A    between atoms: C_14  and  C_15
REMARK                            x       y       z     vdW  Elec       q    Type
REMARK                         _______ _______ _______ _____ _____    ______ ____
ROOT
ATOM      1  C   UNL     1      43.726   3.515  11.516  0.00  0.00    +0.000 C 
ENDROOT
BRANCH   1   2
ATOM      2  C   UNL     1      44.594   4.600  12.084  0.00  0.00    +0.000 A 
ATOM      3  C   UNL     1      44.539   5.892  11.580  0.00  0.00    +0.000 A 
ATOM      4  N   UNL     1      45.283   6.912  12.049  0.00  0.00    +0.000 NA
ATOM      5  C   UNL     1      46.130   6.632  13.070  0.00  0.00    +0.000 A 
ATOM      6  C   UNL     1      46.273   5.383  13.681  0.00  0.00    +0.000 A 
ATOM      7  C   UNL     1      45.470   4.359  13.154  0.00  0.00    +0.000 A 
BRANCH   6   8
ATOM      8  C   UNL     1      47.206   5.160  14.803  0.00  0.00    +0.000 A 
ATOM      9  C   UNL     1      48.243   6.057  15.102  0.00  0.00    +0.000 A 
ATOM     10  N   UNL     1      49.145   5.912  16.106  0.00  0.00    +0.000 NA
ATOM     11  C   UNL     1      49.014   4.810  16.876  0.00  0.00    +0.000 A 
ATOM     12  C   UNL     1      48.026   3.866  16.681  0.00  0.00    +0.000 A 
ATOM     13  F   UNL     1      47.938   2.795  17.480  0.00  0.00    +0.000 F 
ATOM     14  C   UNL     1      47.119   4.037  15.641  0.00  0.00    +0.000 A 
ENDBRANCH   6   8
ENDBRANCH   1   2
BRANCH   1  15
ATOM     15  O   UNL     1      43.522   3.762  10.124  0.00  0.00    +0.000 OA
BRANCH  15  19
ATOM     16  C   UNL     1      46.437   2.671   7.503  0.00  0.00    +0.000 A 
ATOM     17  N   UNL     1      46.034   1.702   8.360  0.00  0.00    +0.000 NA
ATOM     18  C   UNL     1      45.068   2.063   9.231  0.00  0.00    +0.000 A 
ATOM     19  C   UNL     1      44.495   3.321   9.281  0.00  0.00    +0.000 A 
ATOM     20  C   UNL     1      44.992   4.216   8.354  0.00  0.00    +0.000 A 
ATOM     21  N   UNL     1      45.958   3.927   7.458  0.00  0.00    +0.000 NA
BRANCH  16  23
ATOM     22  N   UNL     1      47.553   3.026   5.356  0.00  0.00    +0.000 N 
ATOM     23  C   UNL     1      47.518   2.286   6.516  0.00  0.00    +0.000 C 
ATOM     24  O   UNL     1      48.325   1.384   6.702  0.00  0.00    +0.000 OA
ATOM     25  H   UNL     1      48.264   2.820   4.669  0.00  0.00    +0.000 HD
ATOM     26  H   UNL     1      46.894   3.783   5.208  0.00  0.00    +0.000 HD
ENDBRANCH  16  23
ENDBRANCH  15  19
ENDBRANCH   1  15
TORSDOF 5
ENDMDL
MODEL 4
REMARK VINA RESULT:    -8.072      3.314      7.344
REMARK INTER + INTRA:         -11.103
REMARK INTER:                 -10.822
REMARK INTRA:                  -0.281
REMARK UNBOUND:                -0.671
REMARK  Name = 
REMARK  5 active torsions:
REMARK  status: ('A' for Active; 'I' for Inactive)
REMARK    1  A    between atoms: C_2  and  C_4
REMARK    2  A    between atoms: C_7  and  O_8
REMARK    3  A    between atoms: O_8  and  C_9
REMARK    4  A    between atoms: C_9  and  C_10
REMARK    5  A    between atoms: C_14  and  C_15
REMARK                            x       y       z     vdW  Elec       q    Type
REMARK                         _______ _______ _______ _____ _____    ______ ____
ROOT
ATOM      1  C   UNL     1      46.066   7.160  11.829  0.00  0.00    +0.000 C 
ENDROOT
BRANCH   1   2
ATOM      2  C   UNL     1      45.256   6.132  11.095  0.00  0.00    +0.000 A 
ATOM      3  C   UNL     1      43.882   6.045  11.277  0.00  0.00    +0.000 A 
ATOM      4  N   UNL     1      43.097   5.153  10.643  0.00  0.00    +0.000 NA
ATOM      5  C   UNL     1      43.710   4.300   9.787  0.00  0.00    +0.000 A 
ATOM      6  C   UNL     1      45.077   4.289   9.497  0.00  0.00    +0.000 A 
ATOM      7  C   UNL     1      45.846   5.242  10.184  0.00  0.00    +0.000 A 
BRANCH   6   8
ATOM      8  C   UNL     1      45.669   3.337   8.536  0.00  0.00    +0.000 A 
ATOM      9  C   UNL     1      45.832   1.976   8.837  0.00  0.00    +0.000 A 
ATOM     10  N   UNL     1      46.379   1.047   8.012  0.00  0.00    +0.000 NA
ATOM     11  C   UNL     1      46.788   1.486   6.801  0.00  0.00    +0.000 A 
ATOM     12  C   UNL     1      46.667   2.800   6.394  0.00  0.00    +0.000 A 
ATOM     13  F   UNL     1      47.083   3.178   5.179  0.00  0.00    +0.000 F 
ATOM     14  C   UNL     1      46.109   3.731   7.263  0.00  0.00    +0.000 A 
ENDBRANCH   6   8
ENDBRANCH   1   2
BRANCH   1  15
ATOM     15  O   UNL     1      47.304   6.574  12.235  0.00  0.00    +0.000 OA
BRANCH  15  19
ATOM     16  C   UNL     1      47.413   4.566  15.772  0.00  0.00    +0.000 A 
ATOM     17  N   UNL     1      46.543   4.079  14.855  0.00  0.00    +0.000 NA
ATOM     18  C   UNL     1      46.505   4.745  13.680  0.00  0.00    +0.000 A 
ATOM     19  C   UNL     1      47.283   5.850  13.387  0.00  0.00    +0.000 A 
ATOM     20  C   UNL     1      48.129   6.245  14.405  0.00  0.00    +0.000 A 
ATOM     21  N   UNL     1      48.217   5.630  15.603  0.00  0.00    +0.000 NA
BRANCH  16  23
ATOM     22  N   UNL     1      48.501   4.200  17.932  0.00  0.00    +0.000 N 
ATOM     23  C   UNL     1      47.473   3.831  17.094  0.00  0.00    +0.000 C 
ATOM     24  O   UNL     1      46.678   2.962  17.431  0.00  0.00    +0.000 OA
ATOM     25  H   UNL     1      48.579   3.751  18.833  0.00  0.00    +0.000 HD
ATOM     26  H   UNL     1      49.150   4.929  17.659  0.00  0.00    +0.000 HD
ENDBRANCH  16  23
ENDBRANCH  15  19
ENDBRANCH   1  15
TORSDOF 5
ENDMDL
MODEL 5
REMARK VINA RESULT:    -7.850      3.482      7.379
REMARK INTER + INTRA:         -10.815
REMARK INTER:                 -10.733
REMARK INTRA:                  -0.083
REMARK UNBOUND:                -0.671
REMARK  Name = 
REMARK  5 active torsions:
REMARK  status: ('A' for Active; 'I' for Inactive)
REMARK    1  A    between atoms: C_2  and  C_4
REMARK    2  A    between atoms: C_7  and  O_8
REMARK    3  A    between atoms: O_8  and  C_9
REMARK    4  A    between atoms: C_9  and  C_10
REMARK    5  A    between atoms: C_14  and  C_15
REMARK                            x       y       z     vdW  Elec       q    Type
REMARK                         _______ _______ _______ _____ _____    ______ ____
ROOT
ATOM      1  C   UNL     1      45.699   6.983  11.760  0.00  0.00    +0.000 C 
ENDROOT
BRANCH   1   2
ATOM      2  C   UNL     1      45.046   5.856  11.012  0.00  0.00    +0.000 A 
ATOM      3  C   UNL     1      43.704   5.559  11.203  0.00  0.00    +0.000 A 
ATOM      4  N   UNL     1      43.056   4.569  10.558  0.00  0.00    +0.000 NA
ATOM      5  C   UNL     1      43.782   3.833   9.681  0.00  0.00    +0.000 A 
ATOM      6  C   UNL     1      45.133   4.035   9.381  0.00  0.00    +0.000 A 
ATOM      7  C   UNL     1      45.755   5.082  10.080  0.00  0.00    +0.000 A 
BRANCH   6   8
ATOM      8  C   UNL     1      45.852   3.202   8.398  0.00  0.00    +0.000 A 
ATOM      9  C   UNL     1      46.469   3.751   7.263  0.00  0.00    +0.000 A 
ATOM     10  N   UNL     1      47.134   3.048   6.310  0.00  0.00    +0.000 NA
ATOM     11  C   UNL     1      47.205   1.711   6.491  0.00  0.00    +0.000 A 
ATOM     12  C   UNL     1      46.645   1.064   7.575  0.00  0.00    +0.000 A 
ATOM     13  F   UNL     1      46.752  -0.263   7.707  0.00  0.00    +0.000 F 
ATOM     14  C   UNL     1      45.964   1.809   8.532  0.00  0.00    +0.000 A 
ENDBRANCH   6   8
ENDBRANCH   1   2
BRANCH   1  15
ATOM     15  O   UNL     1      47.037   6.607  12.091  0.00  0.00    +0.000 OA
BRANCH  15  19
ATOM     16  C   UNL     1      47.382   4.552  15.586  0.00  0.00    +0.000 A 
ATOM     17  N   UNL     1      48.216   5.611  15.450  0.00  0.00    +0.000 NA
ATOM     18  C   UNL     1      48.104   6.294  14.290  0.00  0.00    +0.000 A 
ATOM     19  C   UNL     1      47.212   5.974  13.283  0.00  0.00    +0.000 A 
ATOM     20  C   UNL     1      46.417   4.875  13.545  0.00  0.00    +0.000 A 
ATOM     21  N   UNL     1      46.478   4.145  14.679  0.00  0.00    +0.000 NA
BRANCH  16  23
ATOM     22  N   UNL     1      48.697   3.878  17.535  0.00  0.00    +0.000 N 
ATOM     23  C   UNL     1      47.490   3.776  16.881  0.00  0.00    +0.000 C 
ATOM     24  O   UNL     1      46.587   3.093  17.347  0.00  0.00    +0.000 OA
ATOM     25  H   UNL     1      48.818   3.392  18.412  0.00  0.00    +0.000 HD
ATOM     26  H   UNL     1      49.440   4.455  17.157  0.00  0.00    +0.000 HD
ENDBRANCH  16  23
ENDBRANCH  15  19
ENDBRANCH   1  15
TORSDOF 5
ENDMDL
MODEL 6
REMARK VINA RESULT:    -7.744      3.068      6.818
REMARK INTER + INTRA:         -10.679
REMARK INTER:                 -10.003
REMARK INTRA:                  -0.676
REMARK UNBOUND:                -0.671
REMARK  Name = 
REMARK  5 active torsions:
REMARK  status: ('A' for Active; 'I' for Inactive)
REMARK    1  A    between atoms: C_2  and  C_4
REMARK    2  A    between atoms: C_7  and  O_8
REMARK    3  A    between atoms: O_8  and  C_9
REMARK    4  A    between atoms: C_9  and  C_10
REMARK    5  A    between atoms: C_14  and  C_15
REMARK                            x       y       z     vdW  Elec       q    Type
REMARK                         _______ _______ _______ _____ _____    ______ ____
ROOT
ATOM      1  C   UNL     1      44.340   6.501  11.445  0.00  0.00    +0.000 C 
ENDROOT
BRANCH   1   2
ATOM      2  C   UNL     1      44.244   5.071  10.997  0.00  0.00    +0.000 A 
ATOM      3  C   UNL     1      43.386   4.182  11.629  0.00  0.00    +0.000 A 
ATOM      4  N   UNL     1      43.246   2.892  11.271  0.00  0.00    +0.000 NA
ATOM      5  C   UNL     1      44.003   2.460  10.232  0.00  0.00    +0.000 A 
ATOM      6  C   UNL     1      44.892   3.250   9.498  0.00  0.00    +0.000 A 
ATOM      7  C   UNL     1      44.994   4.587   9.913  0.00  0.00    +0.000 A 
BRANCH   6   8
ATOM      8  C   UNL     1      45.669   2.711   8.364  0.00  0.00    +0.000 A 
ATOM      9  C   UNL     1      46.167   1.399   8.357  0.00  0.00    +0.000 A 
ATOM     10  N   UNL     1      46.900   0.840   7.360  0.00  0.00    +0.000 NA
ATOM     11  C   UNL     1      47.154   1.625   6.289  0.00  0.00    +0.000 A 
ATOM     12  C   UNL     1      46.704   2.926   6.183  0.00  0.00    +0.000 A 
ATOM     13  F   UNL     1      46.980   3.656   5.096  0.00  0.00    +0.000 F 
ATOM     14  C   UNL     1      45.962   3.475   7.223  0.00  0.00    +0.000 A 
ENDBRANCH   6   8
ENDBRANCH   1   2
BRANCH   1  15
ATOM     15  O   UNL     1      44.969   6.545  12.728  0.00  0.00    +0.000 OA
BRANCH  15  19
ATOM     16  C   UNL     1      48.929   7.476  12.650  0.00  0.00    +0.000 A 
ATOM     17  N   UNL     1      48.623   6.284  13.217  0.00  0.00    +0.000 NA
ATOM     18  C   UNL     1      47.309   5.974  13.246  0.00  0.00    +0.000 A 
ATOM     19  C   UNL     1      46.308   6.783  12.738  0.00  0.00    +0.000 A 
ATOM     20  C   UNL     1      46.751   7.968  12.184  0.00  0.00    +0.000 A 
ATOM     21  N   UNL     1      48.046   8.344  12.126  0.00  0.00    +0.000 NA
BRANCH  16  23
ATOM     22  N   UNL     1      51.059   7.784  13.811  0.00  0.00    +0.000 N 
ATOM     23  C   UNL     1      50.397   7.840  12.605  0.00  0.00    +0.000 C 
ATOM     24  O   UNL     1      50.991   8.168  11.585  0.00  0.00    +0.000 OA
ATOM     25  H   UNL     1      52.045   8.003  13.835  0.00  0.00    +0.000 HD
ATOM     26  H   UNL     1      50.572   7.499  14.653  0.00  0.00    +0.000 HD
ENDBRANCH  16  23
ENDBRANCH  15  19
ENDBRANCH   1  15
TORSDOF 5
ENDMDL
MODEL 7
REMARK VINA RESULT:    -7.503      3.527      7.446
REMARK INTER + INTRA:         -10.367
REMARK INTER:                  -9.912
REMARK INTRA:                  -0.455
REMARK UNBOUND:                -0.671
REMARK  Name = 
REMARK  5 active torsions:
REMARK  status: ('A' for Active; 'I' for Inactive)
REMARK    1  A    between atoms: C_2  and  C_4
REMARK    2  A    between atoms: C_7  and  O_8
REMARK    3  A    between atoms: O_8  and  C_9
REMARK    4  A    between atoms: C_9  and  C_10
REMARK    5  A    between atoms: C_14  and  C_15
REMARK                            x       y       z     vdW  Elec       q    Type
REMARK                         _______ _______ _______ _____ _____    ______ ____
ROOT
ATOM      1  C   UNL     1      44.585   6.632  11.679  0.00  0.00    +0.000 C 
ENDROOT
BRANCH   1   2
ATOM      2  C   UNL     1      44.370   5.236  11.171  0.00  0.00    +0.000 A 
ATOM      3  C   UNL     1      43.391   4.420  11.723  0.00  0.00    +0.000 A 
ATOM      4  N   UNL     1      43.140   3.164  11.308  0.00  0.00    +0.000 NA
ATOM      5  C   UNL     1      43.906   2.691  10.294  0.00  0.00    +0.000 A 
ATOM      6  C   UNL     1      44.911   3.408   9.639  0.00  0.00    +0.000 A 
ATOM      7  C   UNL     1      45.126   4.712  10.110  0.00  0.00    +0.000 A 
BRANCH   6   8
ATOM      8  C   UNL     1      45.692   2.828   8.528  0.00  0.00    +0.000 A 
ATOM      9  C   UNL     1      46.173   3.610   7.466  0.00  0.00    +0.000 A 
ATOM     10  N   UNL     1      46.884   3.147   6.406  0.00  0.00    +0.000 NA
ATOM     11  C   UNL     1      47.147   1.823   6.393  0.00  0.00    +0.000 A 
ATOM     12  C   UNL     1      46.734   0.960   7.389  0.00  0.00    +0.000 A 
ATOM     13  F   UNL     1      47.029  -0.344   7.327  0.00  0.00    +0.000 F 
ATOM     14  C   UNL     1      46.001   1.461   8.459  0.00  0.00    +0.000 A 
ENDBRANCH   6   8
ENDBRANCH   1   2
BRANCH   1  15
ATOM     15  O   UNL     1      45.973   6.957  11.571  0.00  0.00    +0.000 OA
BRANCH  15  19
ATOM     16  C   UNL     1      48.300   6.574  14.886  0.00  0.00    +0.000 A 
ATOM     17  N   UNL     1      47.705   5.434  14.459  0.00  0.00    +0.000 NA
ATOM     18  C   UNL     1      46.931   5.560  13.360  0.00  0.00    +0.000 A 
ATOM     19  C   UNL     1      46.733   6.748  12.680  0.00  0.00    +0.000 A 
ATOM     20  C   UNL     1      47.396   7.835  13.214  0.00  0.00    +0.000 A 
ATOM     21  N   UNL     1      48.182   7.783  14.310  0.00  0.00    +0.000 NA
BRANCH  16  23
ATOM     22  N   UNL     1      48.521   6.558  17.322  0.00  0.00    +0.000 N 
ATOM     23  C   UNL     1      49.175   6.454  16.115  0.00  0.00    +0.000 C 
ATOM     24  O   UNL     1      50.386   6.275  16.079  0.00  0.00    +0.000 OA
ATOM     25  H   UNL     1      49.055   6.470  18.174  0.00  0.00    +0.000 HD
ATOM     26  H   UNL     1      47.516   6.692  17.352  0.00  0.00    +0.000 HD
ENDBRANCH  16  23
ENDBRANCH  15  19
ENDBRANCH   1  15
TORSDOF 5
ENDMDL
MODEL 8
REMARK VINA RESULT:    -6.992      1.816      2.291
REMARK INTER + INTRA:          -9.707
REMARK INTER:                  -9.005
REMARK INTRA:                  -0.703
REMARK UNBOUND:                -0.671
REMARK  Name = 
REMARK  5 active torsions:
REMARK  status: ('A' for Active; 'I' for Inactive)
REMARK    1  A    between atoms: C_2  and  C_4
REMARK    2  A    between atoms: C_7  and  O_8
REMARK    3  A    between atoms: O_8  and  C_9
REMARK    4  A    between atoms: C_9  and  C_10
REMARK    5  A    between atoms: C_14  and  C_15
REMARK                            x       y       z     vdW  Elec       q    Type
REMARK                         _______ _______ _______ _____ _____    ______ ____
ROOT
ATOM      1  C   UNL     1      45.264   4.799  11.988  0.00  0.00    +0.000 C 
ENDROOT
BRANCH   1   2
ATOM      2  C   UNL     1      45.753   6.209  12.154  0.00  0.00    +0.000 A 
ATOM      3  C   UNL     1      44.920   7.196  12.664  0.00  0.00    +0.000 A 
ATOM      4  N   UNL     1      45.299   8.476  12.846  0.00  0.00    +0.000 NA
ATOM      5  C   UNL     1      46.570   8.792  12.499  0.00  0.00    +0.000 A 
ATOM      6  C   UNL     1      47.516   7.896  11.993  0.00  0.00    +0.000 A 
ATOM      7  C   UNL     1      47.067   6.576  11.827  0.00  0.00    +0.000 A 
BRANCH   6   8
ATOM      8  C   UNL     1      48.892   8.314  11.655  0.00  0.00    +0.000 A 
ATOM      9  C   UNL     1      49.306   9.652  11.732  0.00  0.00    +0.000 A 
ATOM     10  N   UNL     1      50.546  10.112  11.425  0.00  0.00    +0.000 NA
ATOM     11  C   UNL     1      51.445   9.188  11.020  0.00  0.00    +0.000 A 
ATOM     12  C   UNL     1      51.151   7.843  10.917  0.00  0.00    +0.000 A 
ATOM     13  F   UNL     1      52.084   6.970  10.516  0.00  0.00    +0.000 F 
ATOM     14  C   UNL     1      49.871   7.402  11.232  0.00  0.00    +0.000 A 
ENDBRANCH   6   8
ENDBRANCH   1   2
BRANCH   1  15
ATOM     15  O   UNL     1      44.496   4.712  10.786  0.00  0.00    +0.000 OA
BRANCH  15  19
ATOM     16  C   UNL     1      46.298   2.859   7.644  0.00  0.00    +0.000 A 
ATOM     17  N   UNL     1      46.352   4.212   7.629  0.00  0.00    +0.000 NA
ATOM     18  C   UNL     1      45.753   4.829   8.670  0.00  0.00    +0.000 A 
ATOM     19  C   UNL     1      45.120   4.167   9.706  0.00  0.00    +0.000 A 
ATOM     20  C   UNL     1      45.137   2.790   9.606  0.00  0.00    +0.000 A 
ATOM     21  N   UNL     1      45.712   2.108   8.593  0.00  0.00    +0.000 NA
BRANCH  16  23
ATOM     22  N   UNL     1      47.263   2.937   5.398  0.00  0.00    +0.000 N 
ATOM     23  C   UNL     1      46.966   2.149   6.487  0.00  0.00    +0.000 C 
ATOM     24  O   UNL     1      47.242   0.955   6.483  0.00  0.00    +0.000 OA
ATOM     25  H   UNL     1      47.723   2.516   4.604  0.00  0.00    +0.000 HD
ATOM     26  H   UNL     1      47.049   3.927   5.407  0.00  0.00    +0.000 HD
ENDBRANCH  16  23
ENDBRANCH  15  19
ENDBRANCH   1  15
TORSDOF 5
ENDMDL
MODEL 9
REMARK VINA RESULT:    -6.877      4.474      8.484
REMARK INTER + INTRA:          -9.559
REMARK INTER:                  -9.020
REMARK INTRA:                  -0.539
REMARK UNBOUND:                -0.671
REMARK  Name = 
REMARK  5 active torsions:
REMARK  status: ('A' for Active; 'I' for Inactive)
REMARK    1  A    between atoms: C_2  and  C_4
REMARK    2  A    between atoms: C_7  and  O_8
REMARK    3  A    between atoms: O_8  and  C_9
REMARK    4  A    between atoms: C_9  and  C_10
REMARK    5  A    between atoms: C_14  and  C_15
REMARK                            x       y       z     vdW  Elec       q    Type
REMARK                         _______ _______ _______ _____ _____    ______ ____
ROOT
ATOM      1  C   UNL     1      48.104   6.951  14.055  0.00  0.00    +0.000 C 
ENDROOT
BRANCH   1   2
ATOM      2  C   UNL     1      46.952   7.018  13.096  0.00  0.00    +0.000 A 
ATOM      3  C   UNL     1      46.187   8.171  12.981  0.00  0.00    +0.000 A 
ATOM      4  N   UNL     1      45.147   8.300  12.134  0.00  0.00    +0.000 NA
ATOM      5  C   UNL     1      44.849   7.224  11.365  0.00  0.00    +0.000 A 
ATOM      6  C   UNL     1      45.544   6.012  11.367  0.00  0.00    +0.000 A 
ATOM      7  C   UNL     1      46.620   5.936  12.266  0.00  0.00    +0.000 A 
BRANCH   6   8
ATOM      8  C   UNL     1      45.169   4.889  10.483  0.00  0.00    +0.000 A 
ATOM      9  C   UNL     1      44.395   3.810  10.936  0.00  0.00    +0.000 A 
ATOM     10  N   UNL     1      44.023   2.739  10.188  0.00  0.00    +0.000 NA
ATOM     11  C   UNL     1      44.436   2.733   8.902  0.00  0.00    +0.000 A 
ATOM     12  C   UNL     1      45.192   3.746   8.347  0.00  0.00    +0.000 A 
ATOM     13  F   UNL     1      45.568   3.692   7.064  0.00  0.00    +0.000 F 
ATOM     14  C   UNL     1      45.564   4.828   9.138  0.00  0.00    +0.000 A 
ENDBRANCH   6   8
ENDBRANCH   1   2
BRANCH   1  15
ATOM     15  O   UNL     1      48.243   5.608  14.522  0.00  0.00    +0.000 OA
BRANCH  15  19
ATOM     16  C   UNL     1      48.121   5.250  18.573  0.00  0.00    +0.000 A 
ATOM     17  N   UNL     1      47.406   4.326  17.887  0.00  0.00    +0.000 NA
ATOM     18  C   UNL     1      47.444   4.444  16.542  0.00  0.00    +0.000 A 
ATOM     19  C   UNL     1      48.153   5.421  15.867  0.00  0.00    +0.000 A 
ATOM     20  C   UNL     1      48.841   6.300  16.682  0.00  0.00    +0.000 A 
ATOM     21  N   UNL     1      48.845   6.244  18.030  0.00  0.00    +0.000 NA
BRANCH  16  23
ATOM     22  N   UNL     1      48.644   3.982  20.599  0.00  0.00    +0.000 N 
ATOM     23  C   UNL     1      48.093   5.133  20.082  0.00  0.00    +0.000 C 
ATOM     24  O   UNL     1      47.621   5.984  20.827  0.00  0.00    +0.000 OA
ATOM     25  H   UNL     1      48.665   3.860  21.601  0.00  0.00    +0.000 HD
ATOM     26  H   UNL     1      49.048   3.284  19.984  0.00  0.00    +0.000 HD
ENDBRANCH  16  23
ENDBRANCH  15  19
ENDBRANCH   1  15
TORSDOF 5
ENDMDL
