MODEL 1
REMARK VINA RESULT:    -7.881      0.000      0.000
REMARK INTER + INTRA:         -10.185
REMARK INTER:                  -9.724
REMARK INTRA:                  -0.461
REMARK UNBOUND:                -0.461
REMARK  Name = 
REMARK  4 active torsions:
REMARK  status: ('A' for Active; 'I' for Inactive)
REMARK    1  A    between atoms: C_2  and  C_4
REMARK    2  A    between atoms: C_7  and  N_8
REMARK    3  A    between atoms: N_8  and  C_9
REMARK    4  A    between atoms: C_9  and  C_10
REMARK                            x       y       z     vdW  Elec       q    Type
REMARK                         _______ _______ _______ _____ _____    ______ ____
ROOT
ATOM      1  C   UNL     1      46.298   2.115   7.969  0.00  0.00    +0.000 A 
ATOM      2  N   UNL     1      45.415   1.699   8.903  0.00  0.00    +0.000 NA
ATOM      3  C   UNL     1      44.701   2.681   9.497  0.00  0.00    +0.000 A 
ATOM      4  C   UNL     1      44.788   4.032   9.195  0.00  0.00    +0.000 A 
ATOM      5  C   UNL     1      45.765   4.313   8.249  0.00  0.00    +0.000 A 
ATOM      6  N   UNL     1      46.521   3.393   7.612  0.00  0.00    +0.000 NA
ENDROOT
BRANCH   1   8
ATOM      7  N   UNL     1      46.797  -0.254   7.650  0.00  0.00    +0.000 N 
ATOM      8  C   UNL     1      47.089   1.035   7.266  0.00  0.00    +0.000 C 
ATOM      9  O   UNL     1      47.934   1.249   6.404  0.00  0.00    +0.000 OA
ATOM     10  H   UNL     1      47.274  -1.021   7.201  0.00  0.00    +0.000 HD
ATOM     11  H   UNL     1      46.075  -0.425   8.343  0.00  0.00    +0.000 HD
ENDBRANCH   1   8
BRANCH   4  12
ATOM     12  N   UNL     1      44.083   5.057   9.831  0.00  0.00    +0.000 N 
ATOM     13  H   UNL     1      43.509   5.632   9.220  0.00  0.00    +0.000 HD
BRANCH  12  14
ATOM     14  C   UNL     1      43.856   5.147  11.288  0.00  0.00    +0.000 C 
ATOM     15  C   UNL     1      42.920   4.137  11.929  0.00  0.00    +0.000 C 
ATOM     16  C   UNL     1      42.472   5.552  11.771  0.00  0.00    +0.000 C 
BRANCH  14  17
ATOM     17  C   UNL     1      45.010   5.752  12.106  0.00  0.00    +0.000 C 
ATOM     18  C   UNL     1      45.931   6.623  11.229  0.00  0.00    +0.000 C 
ATOM     19  C   UNL     1      47.037   7.270  12.060  0.00  0.00    +0.000 C 
ATOM     20  C   UNL     1      47.845   6.225  12.824  0.00  0.00    +0.000 C 
ATOM     21  C   UNL     1      46.948   5.331  13.675  0.00  0.00    +0.000 C 
ATOM     22  C   UNL     1      45.835   4.692  12.845  0.00  0.00    +0.000 C 
ENDBRANCH  14  17
ENDBRANCH  12  14
ENDBRANCH   4  12
TORSDOF 4
ENDMDL
MODEL 2
REMARK VINA RESULT:    -6.408      3.708      6.252
REMARK INTER + INTRA:          -8.367
REMARK INTER:                  -8.005
REMARK INTRA:                  -0.362
REMARK UNBOUND:                -0.461
REMARK  Name = 
REMARK  4 active torsions:
REMARK  status: ('A' for Active; 'I' for Inactive)
REMARK    1  A    between atoms: C_2  and  C_4
REMARK    2  A    between atoms: C_7  and  N_8
REMARK    3  A    between atoms: N_8  and  C_9
REMARK    4  A    between atoms: C_9  and  C_10
REMARK                            x       y       z     vdW  Elec       q    Type
REMARK                         _______ _______ _______ _____ _____    ______ ____
ROOT
ATOM      1  C   UNL     1      48.203   6.350  13.992  0.00  0.00    +0.000 A 
ATOM      2  N   UNL     1      47.702   6.804  12.822  0.00  0.00    +0.000 NA
ATOM      3  C   UNL     1      46.608   6.150  12.373  0.00  0.00    +0.000 A 
ATOM      4  C   UNL     1      45.971   5.107  13.029  0.00  0.00    +0.000 A 
ATOM      5  C   UNL     1      46.622   4.722  14.194  0.00  0.00    +0.000 A 
ATOM      6  N   UNL     1      47.717   5.320  14.709  0.00  0.00    +0.000 NA
ENDROOT
BRANCH   1   8
ATOM      7  N   UNL     1      49.683   8.292  13.934  0.00  0.00    +0.000 N 
ATOM      8  C   UNL     1      49.409   7.083  14.534  0.00  0.00    +0.000 C 
ATOM      9  O   UNL     1      50.115   6.671  15.447  0.00  0.00    +0.000 OA
ATOM     10  H   UNL     1      50.461   8.841  14.266  0.00  0.00    +0.000 HD
ATOM     11  H   UNL     1      49.076   8.641  13.199  0.00  0.00    +0.000 HD
ENDBRANCH   1   8
BRANCH   4  12
ATOM     12  N   UNL     1      44.864   4.399  12.553  0.00  0.00    +0.000 N 
ATOM     13  H   UNL     1      44.498   3.690  13.185  0.00  0.00    +0.000 HD
BRANCH  12  14
ATOM     14  C   UNL     1      44.025   4.814  11.410  0.00  0.00    +0.000 C 
ATOM     15  C   UNL     1      43.505   6.240  11.386  0.00  0.00    +0.000 C 
ATOM     16  C   UNL     1      42.560   5.122  11.676  0.00  0.00    +0.000 C 
BRANCH  14  17
ATOM     17  C   UNL     1      44.281   4.067  10.090  0.00  0.00    +0.000 C 
ATOM     18  C   UNL     1      44.618   2.583  10.334  0.00  0.00    +0.000 C 
ATOM     19  C   UNL     1      44.811   1.835   9.015  0.00  0.00    +0.000 C 
ATOM     20  C   UNL     1      45.876   2.498   8.147  0.00  0.00    +0.000 C 
ATOM     21  C   UNL     1      45.577   3.977   7.920  0.00  0.00    +0.000 C 
ATOM     22  C   UNL     1      45.376   4.723   9.238  0.00  0.00    +0.000 C 
ENDBRANCH  14  17
ENDBRANCH  12  14
ENDBRANCH   4  12
TORSDOF 4
ENDMDL
MODEL 3
REMARK VINA RESULT:    -6.174      3.776      6.092
REMARK INTER + INTRA:          -8.078
REMARK INTER:                  -8.597
REMARK INTRA:                   0.519
REMARK UNBOUND:                -0.461
REMARK  Name = 
REMARK  4 active torsions:
REMARK  status: ('A' for Active; 'I' for Inactive)
REMARK    1  A    between atoms: C_2  and  C_4
REMARK    2  A    between atoms: C_7  and  N_8
REMARK    3  A    between atoms: N_8  and  C_9
REMARK    4  A    between atoms: C_9  and  C_10
REMARK                            x       y       z     vdW  Elec       q    Type
REMARK                         _______ _______ _______ _____ _____    ______ ____
ROOT
ATOM      1  C   UNL     1      47.258   4.257  15.035  0.00  0.00    +0.000 A 
ATOM      2  N   UNL     1      46.837   3.269  14.214  0.00  0.00    +0.000 NA
ATOM      3  C   UNL     1      46.302   3.682  13.044  0.00  0.00    +0.000 A 
ATOM      4  C   UNL     1      46.193   5.002  12.633  0.00  0.00    +0.000 A 
ATOM      5  C   UNL     1      46.626   5.906  13.595  0.00  0.00    +0.000 A 
ATOM      6  N   UNL     1      47.171   5.576  14.785  0.00  0.00    +0.000 NA
ENDROOT
BRANCH   1   8
ATOM      7  N   UNL     1      47.060   3.137  17.195  0.00  0.00    +0.000 N 
ATOM      8  C   UNL     1      47.890   3.823  16.337  0.00  0.00    +0.000 C 
ATOM      9  O   UNL     1      49.057   4.039  16.644  0.00  0.00    +0.000 OA
ATOM     10  H   UNL     1      47.429   2.798  18.072  0.00  0.00    +0.000 HD
ATOM     11  H   UNL     1      46.103   2.935  16.922  0.00  0.00    +0.000 HD
ENDBRANCH   1   8
BRANCH   4  12
ATOM     12  N   UNL     1      45.605   5.441  11.443  0.00  0.00    +0.000 N 
ATOM     13  H   UNL     1      46.188   6.042  10.868  0.00  0.00    +0.000 HD
BRANCH  12  14
ATOM     14  C   UNL     1      44.395   4.851  10.834  0.00  0.00    +0.000 C 
ATOM     15  C   UNL     1      43.080   5.594  10.995  0.00  0.00    +0.000 C 
ATOM     16  C   UNL     1      43.308   4.335  11.764  0.00  0.00    +0.000 C 
BRANCH  14  17
ATOM     17  C   UNL     1      44.634   3.972   9.596  0.00  0.00    +0.000 C 
ATOM     18  C   UNL     1      44.991   2.524   9.987  0.00  0.00    +0.000 C 
ATOM     19  C   UNL     1      45.166   1.643   8.752  0.00  0.00    +0.000 C 
ATOM     20  C   UNL     1      46.208   2.219   7.798  0.00  0.00    +0.000 C 
ATOM     21  C   UNL     1      45.890   3.664   7.422  0.00  0.00    +0.000 C 
ATOM     22  C   UNL     1      45.706   4.543   8.658  0.00  0.00    +0.000 C 
ENDBRANCH  14  17
ENDBRANCH  12  14
ENDBRANCH   4  12
TORSDOF 4
ENDMDL
MODEL 4
REMARK VINA RESULT:    -5.823      3.049      5.205
REMARK INTER + INTRA:          -7.646
REMARK INTER:                  -7.238
REMARK INTRA:                  -0.408
REMARK UNBOUND:                -0.461
REMARK  Name = 
REMARK  4 active torsions:
REMARK  status: ('A' for Active; 'I' for Inactive)
REMARK    1  A    between atoms: C_2  and  C_4
REMARK    2  A    between atoms: C_7  and  N_8
REMARK    3  A    between atoms: N_8  and  C_9
REMARK    4  A    between atoms: C_9  and  C_10
REMARK                            x       y       z     vdW  Elec       q    Type
REMARK                         _______ _______ _______ _____ _____    ______ ____
ROOT
ATOM      1  C   UNL     1      44.541   4.027  11.620  0.00  0.00    +0.000 A 
ATOM      2  N   UNL     1      44.647   5.108  10.817  0.00  0.00    +0.000 NA
ATOM      3  C   UNL     1      45.233   6.188  11.380  0.00  0.00    +0.000 A 
ATOM      4  C   UNL     1      45.745   6.243  12.667  0.00  0.00    +0.000 A 
ATOM      5  C   UNL     1      45.527   5.076  13.387  0.00  0.00    +0.000 A 
ATOM      6  N   UNL     1      44.950   3.957  12.900  0.00  0.00    +0.000 NA
ENDROOT
BRANCH   1   8
ATOM      7  N   UNL     1      44.544   2.316   9.879  0.00  0.00    +0.000 N 
ATOM      8  C   UNL     1      43.917   2.794  11.007  0.00  0.00    +0.000 C 
ATOM      9  O   UNL     1      42.927   2.226  11.454  0.00  0.00    +0.000 OA
ATOM     10  H   UNL     1      44.190   1.481   9.436  0.00  0.00    +0.000 HD
ATOM     11  H   UNL     1      45.381   2.773   9.531  0.00  0.00    +0.000 HD
ENDBRANCH   1   8
BRANCH   4  12
ATOM     12  N   UNL     1      46.317   7.367  13.270  0.00  0.00    +0.000 N 
ATOM     13  H   UNL     1      45.767   7.784  14.017  0.00  0.00    +0.000 HD
BRANCH  12  14
ATOM     14  C   UNL     1      47.734   7.765  13.141  0.00  0.00    +0.000 C 
ATOM     15  C   UNL     1      48.758   6.680  12.866  0.00  0.00    +0.000 C 
ATOM     16  C   UNL     1      48.704   7.308  14.219  0.00  0.00    +0.000 C 
BRANCH  14  17
ATOM     17  C   UNL     1      47.979   9.199  12.640  0.00  0.00    +0.000 C 
ATOM     18  C   UNL     1      46.672   9.870  12.177  0.00  0.00    +0.000 C 
ATOM     19  C   UNL     1      46.915  11.314  11.739  0.00  0.00    +0.000 C 
ATOM     20  C   UNL     1      47.981  11.395  10.651  0.00  0.00    +0.000 C 
ATOM     21  C   UNL     1      49.275  10.707  11.077  0.00  0.00    +0.000 C 
ATOM     22  C   UNL     1      49.030   9.267  11.524  0.00  0.00    +0.000 C 
ENDBRANCH  14  17
ENDBRANCH  12  14
ENDBRANCH   4  12
TORSDOF 4
ENDMDL
MODEL 5
REMARK VINA RESULT:    -5.746      4.521      6.639
REMARK INTER + INTRA:          -7.550
REMARK INTER:                  -6.965
REMARK INTRA:                  -0.585
REMARK UNBOUND:                -0.461
REMARK  Name = 
REMARK  4 active torsions:
REMARK  status: ('A' for Active; 'I' for Inactive)
REMARK    1  A    between atoms: C_2  and  C_4
REMARK    2  A    between atoms: C_7  and  N_8
REMARK    3  A    between atoms: N_8  and  C_9
REMARK    4  A    between atoms: C_9  and  C_10
REMARK                            x       y       z     vdW  Elec       q    Type
REMARK                         _______ _______ _______ _____ _____    ______ ____
ROOT
ATOM      1  C   UNL     1      48.499   3.656  16.057  0.00  0.00    +0.000 A 
ATOM      2  N   UNL     1      47.563   3.260  15.167  0.00  0.00    +0.000 NA
ATOM      3  C   UNL     1      46.971   4.258  14.473  0.00  0.00    +0.000 A 
ATOM      4  C   UNL     1      47.277   5.605  14.586  0.00  0.00    +0.000 A 
ATOM      5  C   UNL     1      48.225   5.865  15.568  0.00  0.00    +0.000 A 
ATOM      6  N   UNL     1      48.860   4.929  16.304  0.00  0.00    +0.000 NA
ENDROOT
BRANCH   1   8
ATOM      7  N   UNL     1      49.233   2.726  18.192  0.00  0.00    +0.000 N 
ATOM      8  C   UNL     1      49.199   2.559  16.826  0.00  0.00    +0.000 C 
ATOM      9  O   UNL     1      49.708   1.571  16.310  0.00  0.00    +0.000 OA
ATOM     10  H   UNL     1      49.665   2.016  18.764  0.00  0.00    +0.000 HD
ATOM     11  H   UNL     1      48.783   3.532  18.616  0.00  0.00    +0.000 HD
ENDBRANCH   1   8
BRANCH   4  12
ATOM     12  N   UNL     1      46.643   6.646  13.902  0.00  0.00    +0.000 N 
ATOM     13  H   UNL     1      46.367   7.438  14.477  0.00  0.00    +0.000 HD
BRANCH  12  14
ATOM     14  C   UNL     1      46.651   6.819  12.434  0.00  0.00    +0.000 C 
ATOM     15  C   UNL     1      47.993   6.839  11.725  0.00  0.00    +0.000 C 
ATOM     16  C   UNL     1      47.225   8.111  11.872  0.00  0.00    +0.000 C 
BRANCH  14  17
ATOM     17  C   UNL     1      45.399   6.314  11.698  0.00  0.00    +0.000 C 
ATOM     18  C   UNL     1      44.284   5.911  12.683  0.00  0.00    +0.000 C 
ATOM     19  C   UNL     1      43.023   5.469  11.942  0.00  0.00    +0.000 C 
ATOM     20  C   UNL     1      43.319   4.335  10.965  0.00  0.00    +0.000 C 
ATOM     21  C   UNL     1      44.443   4.701  10.000  0.00  0.00    +0.000 C 
ATOM     22  C   UNL     1      45.700   5.153  10.741  0.00  0.00    +0.000 C 
ENDBRANCH  14  17
ENDBRANCH  12  14
ENDBRANCH   4  12
TORSDOF 4
ENDMDL
MODEL 6
REMARK VINA RESULT:    -5.214      3.239      5.264
REMARK INTER + INTRA:          -6.893
REMARK INTER:                  -6.973
REMARK INTRA:                   0.079
REMARK UNBOUND:                -0.461
REMARK  Name = 
REMARK  4 active torsions:
REMARK  status: ('A' for Active; 'I' for Inactive)
REMARK    1  A    between atoms: C_2  and  C_4
REMARK    2  A    between atoms: C_7  and  N_8
REMARK    3  A    between atoms: N_8  and  C_9
REMARK    4  A    between atoms: C_9  and  C_10
REMARK                            x       y       z     vdW  Elec       q    Type
REMARK                         _______ _______ _______ _____ _____    ______ ____
ROOT
ATOM      1  C   UNL     1      44.730   3.971  11.832  0.00  0.00    +0.000 A 
ATOM      2  N   UNL     1      45.525   3.672  12.883  0.00  0.00    +0.000 NA
ATOM      3  C   UNL     1      46.160   4.727  13.441  0.00  0.00    +0.000 A 
ATOM      4  C   UNL     1      46.025   6.048  13.043  0.00  0.00    +0.000 A 
ATOM      5  C   UNL     1      45.212   6.197  11.927  0.00  0.00    +0.000 A 
ATOM      6  N   UNL     1      44.545   5.198  11.311  0.00  0.00    +0.000 NA
ENDROOT
BRANCH   1   8
ATOM      7  N   UNL     1      44.553   2.293  10.067  0.00  0.00    +0.000 N 
ATOM      8  C   UNL     1      43.983   2.815  11.206  0.00  0.00    +0.000 C 
ATOM      9  O   UNL     1      42.945   2.341  11.654  0.00  0.00    +0.000 OA
ATOM     10  H   UNL     1      44.115   1.504   9.615  0.00  0.00    +0.000 HD
ATOM     11  H   UNL     1      45.428   2.671   9.719  0.00  0.00    +0.000 HD
ENDBRANCH   1   8
BRANCH   4  12
ATOM     12  N   UNL     1      46.708   7.139  13.589  0.00  0.00    +0.000 N 
ATOM     13  H   UNL     1      46.319   7.504  14.454  0.00  0.00    +0.000 HD
BRANCH  12  14
ATOM     14  C   UNL     1      48.072   7.558  13.205  0.00  0.00    +0.000 C 
ATOM     15  C   UNL     1      48.226   8.831  12.394  0.00  0.00    +0.000 C 
ATOM     16  C   UNL     1      48.443   7.513  11.731  0.00  0.00    +0.000 C 
BRANCH  14  17
ATOM     17  C   UNL     1      49.198   7.108  14.151  0.00  0.00    +0.000 C 
ATOM     18  C   UNL     1      48.646   6.674  15.524  0.00  0.00    +0.000 C 
ATOM     19  C   UNL     1      49.764   6.171  16.436  0.00  0.00    +0.000 C 
ATOM     20  C   UNL     1      50.865   7.215  16.599  0.00  0.00    +0.000 C 
ATOM     21  C   UNL     1      51.403   7.681  15.249  0.00  0.00    +0.000 C 
ATOM     22  C   UNL     1      50.284   8.175  14.334  0.00  0.00    +0.000 C 
ENDBRANCH  14  17
ENDBRANCH  12  14
ENDBRANCH   4  12
TORSDOF 4
ENDMDL
MODEL 7
REMARK VINA RESULT:    -5.082      5.251      6.779
REMARK INTER + INTRA:          -6.730
REMARK INTER:                  -6.018
REMARK INTRA:                  -0.713
REMARK UNBOUND:                -0.461
REMARK  Name = 
REMARK  4 active torsions:
REMARK  status: ('A' for Active; 'I' for Inactive)
REMARK    1  A    between atoms: C_2  and  C_4
REMARK    2  A    between atoms: C_7  and  N_8
REMARK    3  A    between atoms: N_8  and  C_9
REMARK    4  A    between atoms: C_9  and  C_10
REMARK                            x       y       z     vdW  Elec       q    Type
REMARK                         _______ _______ _______ _____ _____    ______ ____
ROOT
ATOM      1  C   UNL     1      47.616   4.453  16.132  0.00  0.00    +0.000 A 
ATOM      2  N   UNL     1      46.757   3.874  15.265  0.00  0.00    +0.000 NA
ATOM      3  C   UNL     1      46.667   4.474  14.057  0.00  0.00    +0.000 A 
ATOM      4  C   UNL     1      47.398   5.582  13.655  0.00  0.00    +0.000 A 
ATOM      5  C   UNL     1      48.206   6.093  14.664  0.00  0.00    +0.000 A 
ATOM      6  N   UNL     1      48.350   5.555  15.893  0.00  0.00    +0.000 NA
ENDROOT
BRANCH   1   8
ATOM      7  N   UNL     1      46.909   2.726  17.707  0.00  0.00    +0.000 N 
ATOM      8  C   UNL     1      47.759   3.785  17.480  0.00  0.00    +0.000 C 
ATOM      9  O   UNL     1      48.568   4.125  18.337  0.00  0.00    +0.000 OA
ATOM     10  H   UNL     1      46.971   2.222  18.579  0.00  0.00    +0.000 HD
ATOM     11  H   UNL     1      46.262   2.431  16.981  0.00  0.00    +0.000 HD
ENDBRANCH   1   8
BRANCH   4  12
ATOM     12  N   UNL     1      47.283   6.233  12.423  0.00  0.00    +0.000 N 
ATOM     13  H   UNL     1      47.380   5.635  11.607  0.00  0.00    +0.000 HD
BRANCH  12  14
ATOM     14  C   UNL     1      46.723   7.587  12.234  0.00  0.00    +0.000 C 
ATOM     15  C   UNL     1      45.372   7.894  12.854  0.00  0.00    +0.000 C 
ATOM     16  C   UNL     1      45.476   7.729  11.375  0.00  0.00    +0.000 C 
BRANCH  14  17
ATOM     17  C   UNL     1      47.753   8.712  12.039  0.00  0.00    +0.000 C 
ATOM     18  C   UNL     1      49.128   8.157  11.619  0.00  0.00    +0.000 C 
ATOM     19  C   UNL     1      50.127   9.285  11.368  0.00  0.00    +0.000 C 
ATOM     20  C   UNL     1      50.259  10.196  12.585  0.00  0.00    +0.000 C 
ATOM     21  C   UNL     1      48.904  10.731  13.037  0.00  0.00    +0.000 C 
ATOM     22  C   UNL     1      47.902   9.604  13.279  0.00  0.00    +0.000 C 
ENDBRANCH  14  17
ENDBRANCH  12  14
ENDBRANCH   4  12
TORSDOF 4
ENDMDL
MODEL 8
REMARK VINA RESULT:    -5.028      4.206      6.247
REMARK INTER + INTRA:          -6.664
REMARK INTER:                  -6.074
REMARK INTRA:                  -0.590
REMARK UNBOUND:                -0.461
REMARK  Name = 
REMARK  4 active torsions:
REMARK  status: ('A' for Active; 'I' for Inactive)
REMARK    1  A    between atoms: C_2  and  C_4
REMARK    2  A    between atoms: C_7  and  N_8
REMARK    3  A    between atoms: N_8  and  C_9
REMARK    4  A    between atoms: C_9  and  C_10
REMARK                            x       y       z     vdW  Elec       q    Type
REMARK                         _______ _______ _______ _____ _____    ______ ____
ROOT
ATOM      1  C   UNL     1      45.039   5.103  12.882  0.00  0.00    +0.000 A 
ATOM      2  N   UNL     1      45.206   5.952  11.844  0.00  0.00    +0.000 NA
ATOM      3  C   UNL     1      46.437   6.500  11.742  0.00  0.00    +0.000 A 
ATOM      4  C   UNL     1      47.509   6.230  12.580  0.00  0.00    +0.000 A 
ATOM      5  C   UNL     1      47.177   5.374  13.623  0.00  0.00    +0.000 A 
ATOM      6  N   UNL     1      45.974   4.787  13.797  0.00  0.00    +0.000 NA
ENDROOT
BRANCH   1   8
ATOM      7  N   UNL     1      43.679   3.076  12.929  0.00  0.00    +0.000 N 
ATOM      8  C   UNL     1      43.681   4.451  13.003  0.00  0.00    +0.000 C 
ATOM      9  O   UNL     1      42.632   5.065  13.164  0.00  0.00    +0.000 OA
ATOM     10  H   UNL     1      42.806   2.580  13.027  0.00  0.00    +0.000 HD
ATOM     11  H   UNL     1      44.554   2.573  12.825  0.00  0.00    +0.000 HD
ENDBRANCH   1   8
BRANCH   4  12
ATOM     12  N   UNL     1      48.773   6.822  12.505  0.00  0.00    +0.000 N 
ATOM     13  H   UNL     1      49.468   6.293  11.985  0.00  0.00    +0.000 HD
BRANCH  12  14
ATOM     14  C   UNL     1      49.061   8.237  12.818  0.00  0.00    +0.000 C 
ATOM     15  C   UNL     1      48.488   9.302  11.901  0.00  0.00    +0.000 C 
ATOM     16  C   UNL     1      49.951   9.011  11.859  0.00  0.00    +0.000 C 
BRANCH  14  17
ATOM     17  C   UNL     1      49.310   8.553  14.302  0.00  0.00    +0.000 C 
ATOM     18  C   UNL     1      49.997   7.378  15.026  0.00  0.00    +0.000 C 
ATOM     19  C   UNL     1      50.296   7.724  16.483  0.00  0.00    +0.000 C 
ATOM     20  C   UNL     1      49.034   8.155  17.225  0.00  0.00    +0.000 C 
ATOM     21  C   UNL     1      48.321   9.297  16.507  0.00  0.00    +0.000 C 
ATOM     22  C   UNL     1      48.030   8.954  15.047  0.00  0.00    +0.000 C 
ENDBRANCH  14  17
ENDBRANCH  12  14
ENDBRANCH   4  12
TORSDOF 4
ENDMDL
