MODEL 1
REMARK VINA RESULT:    -8.161      0.000      0.000
REMARK INTER + INTRA:         -12.031
REMARK INTER:                 -11.024
REMARK INTRA:                  -1.008
REMARK UNBOUND:                -1.008
REMARK  Name = 
REMARK  7 active torsions:
REMARK  status: ('A' for Active; 'I' for Inactive)
REMARK    1  A    between atoms: C_1  and  C_2
REMARK    2  A    between atoms: C_2  and  N_3
REMARK    3  A    between atoms: C_2  and  C_11
REMARK    4  A    between atoms: C_4  and  C_6
REMARK    5  A    between atoms: C_14  and  C_15
REMARK    6  A    between atoms: C_15  and  N_16
REMARK    7  A    between atoms: C_17  and  C_19
REMARK                            x       y       z     vdW  Elec       q    Type
REMARK                         _______ _______ _______ _____ _____    ______ ____
ROOT
ATOM      1  C   UNL     1      45.254   4.624  11.756  0.00  0.00    +0.000 A 
ATOM      2  C   UNL     1      45.865   4.244  12.957  0.00  0.00    +0.000 A 
ATOM      3  C   UNL     1      46.788   5.095  13.588  0.00  0.00    +0.000 A 
ATOM      4  C   UNL     1      47.104   6.350  13.041  0.00  0.00    +0.000 A 
ATOM      5  C   UNL     1      46.509   6.716  11.830  0.00  0.00    +0.000 A 
ATOM      6  C   UNL     1      45.585   5.876  11.213  0.00  0.00    +0.000 A 
ENDROOT
BRANCH   1   8
ATOM      7  C   UNL     1      43.708   2.702  12.072  0.00  0.00    +0.000 C 
ATOM      8  C   UNL     1      44.288   3.690  11.045  0.00  0.00    +0.000 C 
BRANCH   8   9
ATOM      9  N   UNL     1      44.965   3.037   9.935  0.00  0.00    +0.000 N 
ATOM     10  C   UNL     1      44.879   3.478   8.629  0.00  0.00    +0.000 C 
ATOM     11  O   UNL     1      44.204   4.450   8.281  0.00  0.00    +0.000 OA
ATOM     12  H   UNL     1      45.804   2.495  10.144  0.00  0.00    +0.000 HD
BRANCH  10  13
ATOM     13  C   UNL     1      45.662   2.642   7.600  0.00  0.00    +0.000 C 
ATOM     14  C   UNL     1      46.166   1.321   8.161  0.00  0.00    +0.000 C 
ATOM     15  C   UNL     1      47.356   0.994   7.276  0.00  0.00    +0.000 C 
ATOM     16  C   UNL     1      47.883   2.347   6.817  0.00  0.00    +0.000 C 
ATOM     17  N   UNL     1      46.910   3.347   7.244  0.00  0.00    +0.000 NA
ATOM     18  H   UNL     1      46.734   4.045   6.522  0.00  0.00    +0.000 HD
ENDBRANCH  10  13
ENDBRANCH   8   9
ENDBRANCH   1   8
BRANCH   4  19
ATOM     19  C   UNL     1      48.039   7.330  13.710  0.00  0.00    +0.000 C 
BRANCH  19  20
ATOM     20  N   UNL     1      47.993   7.249  15.145  0.00  0.00    +0.000 N 
ATOM     21  C   UNL     1      49.083   6.919  15.905  0.00  0.00    +0.000 C 
ATOM     22  O   UNL     1      50.186   6.653  15.434  0.00  0.00    +0.000 OA
ATOM     23  H   UNL     1      47.076   7.036  15.528  0.00  0.00    +0.000 HD
BRANCH  21  24
ATOM     24  C   UNL     1      48.827   6.929  17.353  0.00  0.00    +0.000 A 
ATOM     25  C   UNL     1      48.501   8.102  18.008  0.00  0.00    +0.000 A 
ATOM     26  S   UNL     1      48.127   7.872  19.663  0.00  0.00    +0.000 S 
ATOM     27  C   UNL     1      48.449   6.200  19.567  0.00  0.00    +0.000 A 
ATOM     28  N   UNL     1      48.338   5.391  20.648  0.00  0.00    +0.000 NA
ATOM     29  C   UNL     1      48.651   4.152  20.419  0.00  0.00    +0.000 A 
ATOM     30  N   UNL     1      49.050   3.663  19.220  0.00  0.00    +0.000 N 
ATOM     31  C   UNL     1      49.124   4.420  18.084  0.00  0.00    +0.000 A 
ATOM     32  O   UNL     1      49.408   3.912  17.004  0.00  0.00    +0.000 OA
ATOM     33  C   UNL     1      48.820   5.826  18.282  0.00  0.00    +0.000 A 
ATOM     34  H   UNL     1      49.259   2.677  19.096  0.00  0.00    +0.000 HD
ENDBRANCH  21  24
ENDBRANCH  19  20
ENDBRANCH   4  19
TORSDOF 6
ENDMDL
MODEL 2
REMARK VINA RESULT:    -8.104      1.376      2.056
REMARK INTER + INTRA:         -11.954
REMARK INTER:                 -10.861
REMARK INTRA:                  -1.093
REMARK UNBOUND:                -1.008
REMARK  Name = 
REMARK  7 active torsions:
REMARK  status: ('A' for Active; 'I' for Inactive)
REMARK    1  A    between atoms: C_1  and  C_2
REMARK    2  A    between atoms: C_2  and  N_3
REMARK    3  A    between atoms: C_2  and  C_11
REMARK    4  A    between atoms: C_4  and  C_6
REMARK    5  A    between atoms: C_14  and  C_15
REMARK    6  A    between atoms: C_15  and  N_16
REMARK    7  A    between atoms: C_17  and  C_19
REMARK                            x       y       z     vdW  Elec       q    Type
REMARK                         _______ _______ _______ _____ _____    ______ ____
ROOT
ATOM      1  C   UNL     1      45.182   4.450  11.841  0.00  0.00    +0.000 A 
ATOM      2  C   UNL     1      45.807   3.849  12.941  0.00  0.00    +0.000 A 
ATOM      3  C   UNL     1      46.777   4.548  13.679  0.00  0.00    +0.000 A 
ATOM      4  C   UNL     1      47.128   5.866  13.344  0.00  0.00    +0.000 A 
ATOM      5  C   UNL     1      46.518   6.454  12.233  0.00  0.00    +0.000 A 
ATOM      6  C   UNL     1      45.547   5.764  11.510  0.00  0.00    +0.000 A 
ENDROOT
BRANCH   1   8
ATOM      7  C   UNL     1      43.396   2.721  11.934  0.00  0.00    +0.000 C 
ATOM      8  C   UNL     1      44.164   3.685  11.012  0.00  0.00    +0.000 C 
BRANCH   8   9
ATOM      9  N   UNL     1      44.834   3.015   9.908  0.00  0.00    +0.000 N 
ATOM     10  C   UNL     1      45.023   3.597   8.670  0.00  0.00    +0.000 C 
ATOM     11  O   UNL     1      44.622   4.727   8.380  0.00  0.00    +0.000 OA
ATOM     12  H   UNL     1      45.505   2.280  10.136  0.00  0.00    +0.000 HD
BRANCH  10  13
ATOM     13  C   UNL     1      45.748   2.718   7.634  0.00  0.00    +0.000 C 
ATOM     14  C   UNL     1      46.163   1.363   8.185  0.00  0.00    +0.000 C 
ATOM     15  C   UNL     1      47.327   0.963   7.296  0.00  0.00    +0.000 C 
ATOM     16  C   UNL     1      47.943   2.281   6.845  0.00  0.00    +0.000 C 
ATOM     17  N   UNL     1      47.039   3.341   7.281  0.00  0.00    +0.000 NA
ATOM     18  H   UNL     1      46.910   4.054   6.564  0.00  0.00    +0.000 HD
ENDBRANCH  10  13
ENDBRANCH   8   9
ENDBRANCH   1   8
BRANCH   4  19
ATOM     19  C   UNL     1      48.116   6.685  14.142  0.00  0.00    +0.000 C 
BRANCH  19  20
ATOM     20  N   UNL     1      48.034   6.430  15.555  0.00  0.00    +0.000 N 
ATOM     21  C   UNL     1      49.140   6.255  16.342  0.00  0.00    +0.000 C 
ATOM     22  O   UNL     1      50.292   6.288  15.916  0.00  0.00    +0.000 OA
ATOM     23  H   UNL     1      47.172   5.984  15.856  0.00  0.00    +0.000 HD
BRANCH  21  24
ATOM     24  C   UNL     1      48.834   6.043  17.765  0.00  0.00    +0.000 A 
ATOM     25  C   UNL     1      49.075   4.822  18.369  0.00  0.00    +0.000 A 
ATOM     26  S   UNL     1      48.762   4.825  20.052  0.00  0.00    +0.000 S 
ATOM     27  C   UNL     1      48.237   6.447  20.013  0.00  0.00    +0.000 A 
ATOM     28  N   UNL     1      47.805   7.082  21.130  0.00  0.00    +0.000 NA
ATOM     29  C   UNL     1      47.406   8.301  20.928  0.00  0.00    +0.000 A 
ATOM     30  N   UNL     1      47.411   8.929  19.728  0.00  0.00    +0.000 N 
ATOM     31  C   UNL     1      47.889   8.358  18.581  0.00  0.00    +0.000 A 
ATOM     32  O   UNL     1      47.952   8.997  17.536  0.00  0.00    +0.000 OA
ATOM     33  C   UNL     1      48.318   6.978  18.733  0.00  0.00    +0.000 A 
ATOM     34  H   UNL     1      47.109   9.893  19.635  0.00  0.00    +0.000 HD
ENDBRANCH  21  24
ENDBRANCH  19  20
ENDBRANCH   4  19
TORSDOF 6
ENDMDL
MODEL 3
REMARK VINA RESULT:    -7.733      1.463      1.826
REMARK INTER + INTRA:         -11.453
REMARK INTER:                 -11.221
REMARK INTRA:                  -0.232
REMARK UNBOUND:                -1.008
REMARK  Name = 
REMARK  7 active torsions:
REMARK  status: ('A' for Active; 'I' for Inactive)
REMARK    1  A    between atoms: C_1  and  C_2
REMARK    2  A    between atoms: C_2  and  N_3
REMARK    3  A    between atoms: C_2  and  C_11
REMARK    4  A    between atoms: C_4  and  C_6
REMARK    5  A    between atoms: C_14  and  C_15
REMARK    6  A    between atoms: C_15  and  N_16
REMARK    7  A    between atoms: C_17  and  C_19
REMARK                            x       y       z     vdW  Elec       q    Type
REMARK                         _______ _______ _______ _____ _____    ______ ____
ROOT
ATOM      1  C   UNL     1      44.602   5.830  11.403  0.00  0.00    +0.000 A 
ATOM      2  C   UNL     1      44.548   7.229  11.396  0.00  0.00    +0.000 A 
ATOM      3  C   UNL     1      45.484   7.982  12.125  0.00  0.00    +0.000 A 
ATOM      4  C   UNL     1      46.502   7.352  12.859  0.00  0.00    +0.000 A 
ATOM      5  C   UNL     1      46.539   5.956  12.882  0.00  0.00    +0.000 A 
ATOM      6  C   UNL     1      45.618   5.211  12.148  0.00  0.00    +0.000 A 
ENDROOT
BRANCH   1   8
ATOM      7  C   UNL     1      43.037   3.906  11.586  0.00  0.00    +0.000 C 
ATOM      8  C   UNL     1      43.567   5.008  10.652  0.00  0.00    +0.000 C 
BRANCH   8   9
ATOM      9  N   UNL     1      44.148   4.492   9.423  0.00  0.00    +0.000 N 
ATOM     10  C   UNL     1      44.796   3.274   9.343  0.00  0.00    +0.000 C 
ATOM     11  O   UNL     1      44.959   2.525  10.309  0.00  0.00    +0.000 OA
ATOM     12  H   UNL     1      43.760   4.823   8.539  0.00  0.00    +0.000 HD
BRANCH  10  13
ATOM     13  C   UNL     1      45.349   2.915   7.951  0.00  0.00    +0.000 C 
ATOM     14  C   UNL     1      46.360   1.780   7.984  0.00  0.00    +0.000 C 
ATOM     15  C   UNL     1      47.189   2.011   6.732  0.00  0.00    +0.000 C 
ATOM     16  C   UNL     1      47.123   3.514   6.495  0.00  0.00    +0.000 C 
ATOM     17  N   UNL     1      46.139   4.048   7.431  0.00  0.00    +0.000 NA
ATOM     18  H   UNL     1      45.531   4.740   6.995  0.00  0.00    +0.000 HD
ENDBRANCH  10  13
ENDBRANCH   8   9
ENDBRANCH   1   8
BRANCH   4  19
ATOM     19  C   UNL     1      47.572   8.114  13.607  0.00  0.00    +0.000 C 
BRANCH  19  20
ATOM     20  N   UNL     1      47.933   7.486  14.849  0.00  0.00    +0.000 N 
ATOM     21  C   UNL     1      49.195   7.020  15.106  0.00  0.00    +0.000 C 
ATOM     22  O   UNL     1      50.121   7.085  14.301  0.00  0.00    +0.000 OA
ATOM     23  H   UNL     1      47.163   7.038  15.338  0.00  0.00    +0.000 HD
BRANCH  21  24
ATOM     24  C   UNL     1      49.359   6.447  16.449  0.00  0.00    +0.000 A 
ATOM     25  C   UNL     1      50.073   7.118  17.426  0.00  0.00    +0.000 A 
ATOM     26  S   UNL     1      50.041   6.334  18.948  0.00  0.00    +0.000 S 
ATOM     27  C   UNL     1      49.118   5.040  18.330  0.00  0.00    +0.000 A 
ATOM     28  N   UNL     1      48.746   3.996  19.110  0.00  0.00    +0.000 NA
ATOM     29  C   UNL     1      48.079   3.076  18.484  0.00  0.00    +0.000 A 
ATOM     30  N   UNL     1      47.750   3.116  17.170  0.00  0.00    +0.000 N 
ATOM     31  C   UNL     1      48.048   4.169  16.351  0.00  0.00    +0.000 A 
ATOM     32  O   UNL     1      47.654   4.197  15.189  0.00  0.00    +0.000 OA
ATOM     33  C   UNL     1      48.828   5.218  16.985  0.00  0.00    +0.000 A 
ATOM     34  H   UNL     1      47.204   2.376  16.740  0.00  0.00    +0.000 HD
ENDBRANCH  21  24
ENDBRANCH  19  20
ENDBRANCH   4  19
TORSDOF 6
ENDMDL
MODEL 4
REMARK VINA RESULT:    -6.715      5.369      7.977
REMARK INTER + INTRA:         -10.078
REMARK INTER:                  -8.996
REMARK INTRA:                  -1.081
REMARK UNBOUND:                -1.008
REMARK  Name = 
REMARK  7 active torsions:
REMARK  status: ('A' for Active; 'I' for Inactive)
REMARK    1  A    between atoms: C_1  and  C_2
REMARK    2  A    between atoms: C_2  and  N_3
REMARK    3  A    between atoms: C_2  and  C_11
REMARK    4  A    between atoms: C_4  and  C_6
REMARK    5  A    between atoms: C_14  and  C_15
REMARK    6  A    between atoms: C_15  and  N_16
REMARK    7  A    between atoms: C_17  and  C_19
REMARK                            x       y       z     vdW  Elec       q    Type
REMARK                         _______ _______ _______ _____ _____    ______ ____
ROOT
ATOM      1  C   UNL     1      47.566   6.456  12.987  0.00  0.00    +0.000 A 
ATOM      2  C   UNL     1      47.710   6.983  11.697  0.00  0.00    +0.000 A 
ATOM      3  C   UNL     1      48.858   7.714  11.350  0.00  0.00    +0.000 A 
ATOM      4  C   UNL     1      49.893   7.917  12.278  0.00  0.00    +0.000 A 
ATOM      5  C   UNL     1      49.736   7.408  13.570  0.00  0.00    +0.000 A 
ATOM      6  C   UNL     1      48.602   6.672  13.908  0.00  0.00    +0.000 A 
ENDROOT
BRANCH   1   8
ATOM      7  C   UNL     1      46.661   4.692  14.489  0.00  0.00    +0.000 C 
ATOM      8  C   UNL     1      46.307   5.701  13.383  0.00  0.00    +0.000 C 
BRANCH   8   9
ATOM      9  N   UNL     1      45.716   5.083  12.207  0.00  0.00    +0.000 N 
ATOM     10  C   UNL     1      44.353   4.966  12.015  0.00  0.00    +0.000 C 
ATOM     11  O   UNL     1      43.514   5.354  12.833  0.00  0.00    +0.000 OA
ATOM     12  H   UNL     1      46.265   5.078  11.346  0.00  0.00    +0.000 HD
BRANCH  10  13
ATOM     13  C   UNL     1      43.930   4.272  10.707  0.00  0.00    +0.000 C 
ATOM     14  C   UNL     1      44.430   2.840  10.601  0.00  0.00    +0.000 C 
ATOM     15  C   UNL     1      44.467   2.590   9.104  0.00  0.00    +0.000 C 
ATOM     16  C   UNL     1      44.705   3.962   8.486  0.00  0.00    +0.000 C 
ATOM     17  N   UNL     1      44.587   4.937   9.565  0.00  0.00    +0.000 NA
ATOM     18  H   UNL     1      44.061   5.763   9.280  0.00  0.00    +0.000 HD
ENDBRANCH  10  13
ENDBRANCH   8   9
ENDBRANCH   1   8
BRANCH   4  19
ATOM     19  C   UNL     1      51.176   8.639  11.938  0.00  0.00    +0.000 C 
BRANCH  19  20
ATOM     20  N   UNL     1      51.607   8.397  10.587  0.00  0.00    +0.000 N 
ATOM     21  C   UNL     1      52.837   8.778  10.122  0.00  0.00    +0.000 C 
ATOM     22  O   UNL     1      53.672   9.365  10.806  0.00  0.00    +0.000 OA
ATOM     23  H   UNL     1      50.854   8.324   9.908  0.00  0.00    +0.000 HD
BRANCH  21  24
ATOM     24  C   UNL     1      53.090   8.404   8.723  0.00  0.00    +0.000 A 
ATOM     25  C   UNL     1      53.124   9.362   7.726  0.00  0.00    +0.000 A 
ATOM     26  S   UNL     1      53.551   8.730   6.193  0.00  0.00    +0.000 S 
ATOM     27  C   UNL     1      53.646   7.141   6.807  0.00  0.00    +0.000 A 
ATOM     28  N   UNL     1      53.957   6.089   6.012  0.00  0.00    +0.000 NA
ATOM     29  C   UNL     1      53.953   4.943   6.621  0.00  0.00    +0.000 A 
ATOM     30  N   UNL     1      53.679   4.765   7.936  0.00  0.00    +0.000 N 
ATOM     31  C   UNL     1      53.417   5.795   8.796  0.00  0.00    +0.000 A 
ATOM     32  O   UNL     1      53.260   5.591   9.995  0.00  0.00    +0.000 OA
ATOM     33  C   UNL     1      53.370   7.103   8.167  0.00  0.00    +0.000 A 
ATOM     34  H   UNL     1      53.716   3.845   8.363  0.00  0.00    +0.000 HD
ENDBRANCH  21  24
ENDBRANCH  19  20
ENDBRANCH   4  19
TORSDOF 6
ENDMDL
MODEL 5
REMARK VINA RESULT:    -6.659      4.792      5.953
REMARK INTER + INTRA:         -10.003
REMARK INTER:                  -8.923
REMARK INTRA:                  -1.080
REMARK UNBOUND:                -1.008
REMARK  Name = 
REMARK  7 active torsions:
REMARK  status: ('A' for Active; 'I' for Inactive)
REMARK    1  A    between atoms: C_1  and  C_2
REMARK    2  A    between atoms: C_2  and  N_3
REMARK    3  A    between atoms: C_2  and  C_11
REMARK    4  A    between atoms: C_4  and  C_6
REMARK    5  A    between atoms: C_14  and  C_15
REMARK    6  A    between atoms: C_15  and  N_16
REMARK    7  A    between atoms: C_17  and  C_19
REMARK                            x       y       z     vdW  Elec       q    Type
REMARK                         _______ _______ _______ _____ _____    ______ ____
ROOT
ATOM      1  C   UNL     1      45.918   6.617  12.120  0.00  0.00    +0.000 A 
ATOM      2  C   UNL     1      45.302   7.783  12.593  0.00  0.00    +0.000 A 
ATOM      3  C   UNL     1      46.037   8.972  12.730  0.00  0.00    +0.000 A 
ATOM      4  C   UNL     1      47.396   9.026  12.379  0.00  0.00    +0.000 A 
ATOM      5  C   UNL     1      48.013   7.855  11.928  0.00  0.00    +0.000 A 
ATOM      6  C   UNL     1      47.279   6.680  11.781  0.00  0.00    +0.000 A 
ENDROOT
BRANCH   1   8
ATOM      7  C   UNL     1      45.565   4.387  13.162  0.00  0.00    +0.000 C 
ATOM      8  C   UNL     1      45.141   5.316  12.012  0.00  0.00    +0.000 C 
BRANCH   8   9
ATOM      9  N   UNL     1      45.344   4.732  10.695  0.00  0.00    +0.000 N 
ATOM     10  C   UNL     1      44.421   3.907  10.080  0.00  0.00    +0.000 C 
ATOM     11  O   UNL     1      43.354   3.573  10.599  0.00  0.00    +0.000 OA
ATOM     12  H   UNL     1      45.972   5.217  10.053  0.00  0.00    +0.000 HD
BRANCH  10  13
ATOM     13  C   UNL     1      44.831   3.386   8.690  0.00  0.00    +0.000 C 
ATOM     14  C   UNL     1      45.663   2.115   8.749  0.00  0.00    +0.000 C 
ATOM     15  C   UNL     1      46.440   2.142   7.445  0.00  0.00    +0.000 C 
ATOM     16  C   UNL     1      46.584   3.621   7.109  0.00  0.00    +0.000 C 
ATOM     17  N   UNL     1      45.748   4.353   8.054  0.00  0.00    +0.000 NA
ATOM     18  H   UNL     1      45.223   5.102   7.603  0.00  0.00    +0.000 HD
ENDBRANCH  10  13
ENDBRANCH   8   9
ENDBRANCH   1   8
BRANCH   4  19
ATOM     19  C   UNL     1      48.216  10.293  12.444  0.00  0.00    +0.000 C 
BRANCH  19  20
ATOM     20  N   UNL     1      49.631  10.040  12.413  0.00  0.00    +0.000 N 
ATOM     21  C   UNL     1      50.460  10.576  11.464  0.00  0.00    +0.000 C 
ATOM     22  O   UNL     1      50.072  11.306  10.555  0.00  0.00    +0.000 OA
ATOM     23  H   UNL     1      49.914   9.160  12.835  0.00  0.00    +0.000 HD
BRANCH  21  24
ATOM     24  C   UNL     1      51.875  10.220  11.636  0.00  0.00    +0.000 A 
ATOM     25  C   UNL     1      52.777  11.126  12.166  0.00  0.00    +0.000 A 
ATOM     26  S   UNL     1      54.342  10.470  12.392  0.00  0.00    +0.000 S 
ATOM     27  C   UNL     1      53.876   8.969  11.730  0.00  0.00    +0.000 A 
ATOM     28  N   UNL     1      54.752   7.942  11.609  0.00  0.00    +0.000 NA
ATOM     29  C   UNL     1      54.253   6.880  11.055  0.00  0.00    +0.000 A 
ATOM     30  N   UNL     1      52.973   6.758  10.628  0.00  0.00    +0.000 N 
ATOM     31  C   UNL     1      52.032   7.739  10.778  0.00  0.00    +0.000 A 
ATOM     32  O   UNL     1      50.865   7.548  10.453  0.00  0.00    +0.000 OA
ATOM     33  C   UNL     1      52.539   8.969  11.360  0.00  0.00    +0.000 A 
ATOM     34  H   UNL     1      52.632   5.892  10.223  0.00  0.00    +0.000 HD
ENDBRANCH  21  24
ENDBRANCH  19  20
ENDBRANCH   4  19
TORSDOF 6
ENDMDL
MODEL 6
REMARK VINA RESULT:    -6.477      5.061      8.445
REMARK INTER + INTRA:          -9.756
REMARK INTER:                  -8.669
REMARK INTRA:                  -1.087
REMARK UNBOUND:                -1.008
REMARK  Name = 
REMARK  7 active torsions:
REMARK  status: ('A' for Active; 'I' for Inactive)
REMARK    1  A    between atoms: C_1  and  C_2
REMARK    2  A    between atoms: C_2  and  N_3
REMARK    3  A    between atoms: C_2  and  C_11
REMARK    4  A    between atoms: C_4  and  C_6
REMARK    5  A    between atoms: C_14  and  C_15
REMARK    6  A    between atoms: C_15  and  N_16
REMARK    7  A    between atoms: C_17  and  C_19
REMARK                            x       y       z     vdW  Elec       q    Type
REMARK                         _______ _______ _______ _____ _____    ______ ____
ROOT
ATOM      1  C   UNL     1      50.510   8.731  11.925  0.00  0.00    +0.000 A 
ATOM      2  C   UNL     1      49.747   9.830  12.341  0.00  0.00    +0.000 A 
ATOM      3  C   UNL     1      48.350   9.730  12.444  0.00  0.00    +0.000 A 
ATOM      4  C   UNL     1      47.689   8.525  12.153  0.00  0.00    +0.000 A 
ATOM      5  C   UNL     1      48.451   7.437  11.718  0.00  0.00    +0.000 A 
ATOM      6  C   UNL     1      49.838   7.535  11.628  0.00  0.00    +0.000 A 
ENDROOT
BRANCH   1   8
ATOM      7  C   UNL     1      52.424  10.319  11.940  0.00  0.00    +0.000 C 
ATOM      8  C   UNL     1      52.017   8.845  11.769  0.00  0.00    +0.000 C 
BRANCH   8   9
ATOM      9  N   UNL     1      52.422   8.279  10.492  0.00  0.00    +0.000 N 
ATOM     10  C   UNL     1      53.486   7.410  10.350  0.00  0.00    +0.000 C 
ATOM     11  O   UNL     1      54.203   7.052  11.287  0.00  0.00    +0.000 OA
ATOM     12  H   UNL     1      51.713   8.203   9.761  0.00  0.00    +0.000 HD
BRANCH  10  13
ATOM     13  C   UNL     1      53.756   6.931   8.911  0.00  0.00    +0.000 C 
ATOM     14  C   UNL     1      52.485   6.662   8.121  0.00  0.00    +0.000 C 
ATOM     15  C   UNL     1      52.931   5.667   7.065  0.00  0.00    +0.000 C 
ATOM     16  C   UNL     1      54.094   4.917   7.703  0.00  0.00    +0.000 C 
ATOM     17  N   UNL     1      54.409   5.608   8.950  0.00  0.00    +0.000 NA
ATOM     18  H   UNL     1      55.414   5.707   9.090  0.00  0.00    +0.000 HD
ENDBRANCH  10  13
ENDBRANCH   8   9
ENDBRANCH   1   8
BRANCH   4  19
ATOM     19  C   UNL     1      46.197   8.344  12.309  0.00  0.00    +0.000 C 
BRANCH  19  20
ATOM     20  N   UNL     1      45.778   6.985  12.094  0.00  0.00    +0.000 N 
ATOM     21  C   UNL     1      44.594   6.661  11.486  0.00  0.00    +0.000 C 
ATOM     22  O   UNL     1      43.785   7.494  11.084  0.00  0.00    +0.000 OA
ATOM     23  H   UNL     1      46.163   6.313  12.751  0.00  0.00    +0.000 HD
BRANCH  21  24
ATOM     24  C   UNL     1      44.377   5.215  11.333  0.00  0.00    +0.000 A 
ATOM     25  C   UNL     1      43.654   4.502  12.272  0.00  0.00    +0.000 A 
ATOM     26  S   UNL     1      43.417   2.862  11.843  0.00  0.00    +0.000 S 
ATOM     27  C   UNL     1      44.328   3.042  10.412  0.00  0.00    +0.000 A 
ATOM     28  N   UNL     1      44.538   2.003   9.567  0.00  0.00    +0.000 NA
ATOM     29  C   UNL     1      45.279   2.293   8.542  0.00  0.00    +0.000 A 
ATOM     30  N   UNL     1      45.810   3.514   8.290  0.00  0.00    +0.000 N 
ATOM     31  C   UNL     1      45.583   4.610   9.076  0.00  0.00    +0.000 A 
ATOM     32  O   UNL     1      46.016   5.714   8.759  0.00  0.00    +0.000 OA
ATOM     33  C   UNL     1      44.788   4.342  10.261  0.00  0.00    +0.000 A 
ATOM     34  H   UNL     1      46.364   3.688   7.458  0.00  0.00    +0.000 HD
ENDBRANCH  21  24
ENDBRANCH  19  20
ENDBRANCH   4  19
TORSDOF 6
ENDMDL
MODEL 7
REMARK VINA RESULT:    -6.158      2.751      4.084
REMARK INTER + INTRA:          -9.325
REMARK INTER:                  -8.293
REMARK INTRA:                  -1.033
REMARK UNBOUND:                -1.008
REMARK  Name = 
REMARK  7 active torsions:
REMARK  status: ('A' for Active; 'I' for Inactive)
REMARK    1  A    between atoms: C_1  and  C_2
REMARK    2  A    between atoms: C_2  and  N_3
REMARK    3  A    between atoms: C_2  and  C_11
REMARK    4  A    between atoms: C_4  and  C_6
REMARK    5  A    between atoms: C_14  and  C_15
REMARK    6  A    between atoms: C_15  and  N_16
REMARK    7  A    between atoms: C_17  and  C_19
REMARK                            x       y       z     vdW  Elec       q    Type
REMARK                         _______ _______ _______ _____ _____    ______ ____
ROOT
ATOM      1  C   UNL     1      46.030   9.094  12.113  0.00  0.00    +0.000 A 
ATOM      2  C   UNL     1      47.020  10.067  11.925  0.00  0.00    +0.000 A 
ATOM      3  C   UNL     1      48.052  10.224  12.865  0.00  0.00    +0.000 A 
ATOM      4  C   UNL     1      48.127   9.400  14.000  0.00  0.00    +0.000 A 
ATOM      5  C   UNL     1      47.126   8.445  14.195  0.00  0.00    +0.000 A 
ATOM      6  C   UNL     1      46.110   8.282  13.255  0.00  0.00    +0.000 A 
ENDROOT
BRANCH   1   8
ATOM      7  C   UNL     1      43.997  10.200  11.204  0.00  0.00    +0.000 C 
ATOM      8  C   UNL     1      44.886   8.947  11.123  0.00  0.00    +0.000 C 
BRANCH   8   9
ATOM      9  N   UNL     1      44.166   7.711  11.386  0.00  0.00    +0.000 N 
ATOM     10  C   UNL     1      44.630   6.467  11.003  0.00  0.00    +0.000 C 
ATOM     11  O   UNL     1      45.683   6.293  10.386  0.00  0.00    +0.000 OA
ATOM     12  H   UNL     1      43.520   7.697  12.176  0.00  0.00    +0.000 HD
BRANCH  10  13
ATOM     13  C   UNL     1      43.714   5.284  11.368  0.00  0.00    +0.000 C 
ATOM     14  C   UNL     1      44.074   4.634  12.694  0.00  0.00    +0.000 C 
ATOM     15  C   UNL     1      43.530   3.223  12.555  0.00  0.00    +0.000 C 
ATOM     16  C   UNL     1      43.575   2.936  11.060  0.00  0.00    +0.000 C 
ATOM     17  N   UNL     1      43.916   4.190  10.397  0.00  0.00    +0.000 NA
ATOM     18  H   UNL     1      43.358   4.346   9.559  0.00  0.00    +0.000 HD
ENDBRANCH  10  13
ENDBRANCH   8   9
ENDBRANCH   1   8
BRANCH   4  19
ATOM     19  C   UNL     1      49.250   9.483  15.007  0.00  0.00    +0.000 C 
BRANCH  19  20
ATOM     20  N   UNL     1      49.242   8.386  15.938  0.00  0.00    +0.000 N 
ATOM     21  C   UNL     1      49.972   7.244  15.744  0.00  0.00    +0.000 C 
ATOM     22  O   UNL     1      50.684   7.049  14.762  0.00  0.00    +0.000 OA
ATOM     23  H   UNL     1      48.396   8.310  16.496  0.00  0.00    +0.000 HD
BRANCH  21  24
ATOM     24  C   UNL     1      49.849   6.264  16.833  0.00  0.00    +0.000 A 
ATOM     25  C   UNL     1      50.627   6.367  17.972  0.00  0.00    +0.000 A 
ATOM     26  S   UNL     1      50.242   5.198  19.163  0.00  0.00    +0.000 S 
ATOM     27  C   UNL     1      49.061   4.480  18.164  0.00  0.00    +0.000 A 
ATOM     28  N   UNL     1      48.347   3.401  18.568  0.00  0.00    +0.000 NA
ATOM     29  C   UNL     1      47.514   2.952  17.681  0.00  0.00    +0.000 A 
ATOM     30  N   UNL     1      47.330   3.486  16.449  0.00  0.00    +0.000 N 
ATOM     31  C   UNL     1      47.979   4.607  16.011  0.00  0.00    +0.000 A 
ATOM     32  O   UNL     1      47.716   5.103  14.920  0.00  0.00    +0.000 OA
ATOM     33  C   UNL     1      48.955   5.138  16.946  0.00  0.00    +0.000 A 
ATOM     34  H   UNL     1      46.645   3.105  15.805  0.00  0.00    +0.000 HD
ENDBRANCH  21  24
ENDBRANCH  19  20
ENDBRANCH   4  19
TORSDOF 6
ENDMDL
