MODEL 1
REMARK VINA RESULT:    -8.670      0.000      0.000
REMARK INTER + INTRA:         -11.862
REMARK INTER:                 -11.204
REMARK INTRA:                  -0.658
REMARK UNBOUND:                -0.658
REMARK  Name = 
REMARK  5 active torsions:
REMARK  status: ('A' for Active; 'I' for Inactive)
REMARK    1  A    between atoms: C_2  and  C_18
REMARK    2  A    between atoms: N_3  and  C_4
REMARK    3  A    between atoms: C_4  and  C_5
REMARK    4  A    between atoms: C_8  and  C_9
REMARK    5  A    between atoms: C_9  and  C_10
REMARK                            x       y       z     vdW  Elec       q    Type
REMARK                         _______ _______ _______ _____ _____    ______ ____
ROOT
ATOM      1  O   UNL     1      48.879   6.595  13.084  0.00  0.00    +0.000 OA
ATOM      2  C   UNL     1      48.125   6.563  14.053  0.00  0.00    +0.000 C 
ATOM      3  N   UNL     1      46.789   6.849  13.951  0.00  0.00    +0.000 N 
ATOM      4  H   UNL     1      46.243   6.973  14.797  0.00  0.00    +0.000 HD
ENDROOT
BRANCH   2   5
ATOM      5  C   UNL     1      48.606   6.171  15.383  0.00  0.00    +0.000 A 
ATOM      6  C   UNL     1      49.557   6.952  16.027  0.00  0.00    +0.000 A 
ATOM      7  S   UNL     1      50.002   6.359  17.561  0.00  0.00    +0.000 S 
ATOM      8  C   UNL     1      48.909   5.061  17.438  0.00  0.00    +0.000 A 
ATOM      9  N   UNL     1      48.759   4.174  18.457  0.00  0.00    +0.000 NA
ATOM     10  C   UNL     1      47.866   3.265  18.247  0.00  0.00    +0.000 A 
ATOM     11  N   UNL     1      47.120   3.152  17.103  0.00  0.00    +0.000 N 
ATOM     12  C   UNL     1      47.297   3.975  16.015  0.00  0.00    +0.000 A 
ATOM     13  O   UNL     1      46.724   3.755  14.954  0.00  0.00    +0.000 OA
ATOM     14  C   UNL     1      48.242   5.056  16.226  0.00  0.00    +0.000 A 
ATOM     15  H   UNL     1      46.466   2.393  16.987  0.00  0.00    +0.000 HD
ENDBRANCH   2   5
BRANCH   3  16
ATOM     16  C   UNL     1      46.189   7.309  12.726  0.00  0.00    +0.000 C 
BRANCH  16  17
ATOM     17  C   UNL     1      45.757   6.163  11.862  0.00  0.00    +0.000 A 
ATOM     18  C   UNL     1      45.105   5.053  12.400  0.00  0.00    +0.000 A 
ATOM     19  C   UNL     1      44.680   4.026  11.561  0.00  0.00    +0.000 A 
ATOM     20  C   UNL     1      44.935   4.125  10.195  0.00  0.00    +0.000 A 
ATOM     21  N   UNL     1      45.604   5.175   9.655  0.00  0.00    +0.000 NA
ATOM     22  C   UNL     1      46.002   6.158  10.495  0.00  0.00    +0.000 A 
BRANCH  20  23
ATOM     23  C   UNL     1      44.386   3.094   9.238  0.00  0.00    +0.000 C 
BRANCH  23  24
ATOM     24  C   UNL     1      45.461   2.487   8.375  0.00  0.00    +0.000 A 
ATOM     25  C   UNL     1      46.027   3.194   7.320  0.00  0.00    +0.000 A 
ATOM     26  C   UNL     1      46.962   2.563   6.514  0.00  0.00    +0.000 A 
ATOM     27  C   UNL     1      47.299   1.259   6.816  0.00  0.00    +0.000 A 
ATOM     28  N   UNL     1      46.761   0.593   7.855  0.00  0.00    +0.000 NA
ATOM     29  N   UNL     1      45.830   1.212   8.640  0.00  0.00    +0.000 NA
ENDBRANCH  23  24
ENDBRANCH  20  23
ENDBRANCH  16  17
ENDBRANCH   3  16
TORSDOF 5
ENDMDL
MODEL 2
REMARK VINA RESULT:    -8.260      1.656      2.293
REMARK INTER + INTRA:         -11.333
REMARK INTER:                 -10.897
REMARK INTRA:                  -0.436
REMARK UNBOUND:                -0.658
REMARK  Name = 
REMARK  5 active torsions:
REMARK  status: ('A' for Active; 'I' for Inactive)
REMARK    1  A    between atoms: C_2  and  C_18
REMARK    2  A    between atoms: N_3  and  C_4
REMARK    3  A    between atoms: C_4  and  C_5
REMARK    4  A    between atoms: C_8  and  C_9
REMARK    5  A    between atoms: C_9  and  C_10
REMARK                            x       y       z     vdW  Elec       q    Type
REMARK                         _______ _______ _______ _____ _____    ______ ____
ROOT
ATOM      1  O   UNL     1      48.560   6.190  14.170  0.00  0.00    +0.000 OA
ATOM      2  C   UNL     1      47.623   5.663  14.764  0.00  0.00    +0.000 C 
ATOM      3  N   UNL     1      46.351   5.640  14.253  0.00  0.00    +0.000 N 
ATOM      4  H   UNL     1      45.584   5.344  14.848  0.00  0.00    +0.000 HD
ENDROOT
BRANCH   2   5
ATOM      5  C   UNL     1      47.819   4.982  16.049  0.00  0.00    +0.000 A 
ATOM      6  C   UNL     1      47.537   3.626  16.157  0.00  0.00    +0.000 A 
ATOM      7  S   UNL     1      47.822   2.991  17.712  0.00  0.00    +0.000 S 
ATOM      8  C   UNL     1      48.374   4.495  18.286  0.00  0.00    +0.000 A 
ATOM      9  N   UNL     1      48.822   4.635  19.562  0.00  0.00    +0.000 NA
ATOM     10  C   UNL     1      49.250   5.818  19.850  0.00  0.00    +0.000 A 
ATOM     11  N   UNL     1      49.256   6.880  18.984  0.00  0.00    +0.000 N 
ATOM     12  C   UNL     1      48.736   6.806  17.712  0.00  0.00    +0.000 A 
ATOM     13  O   UNL     1      48.617   7.808  17.017  0.00  0.00    +0.000 OA
ATOM     14  C   UNL     1      48.303   5.478  17.316  0.00  0.00    +0.000 A 
ATOM     15  H   UNL     1      49.568   7.790  19.286  0.00  0.00    +0.000 HD
ENDBRANCH   2   5
BRANCH   3  16
ATOM     16  C   UNL     1      45.995   6.320  13.036  0.00  0.00    +0.000 C 
BRANCH  16  17
ATOM     17  C   UNL     1      45.562   5.356  11.974  0.00  0.00    +0.000 A 
ATOM     18  C   UNL     1      45.397   5.759  10.649  0.00  0.00    +0.000 A 
ATOM     19  C   UNL     1      45.035   4.826   9.681  0.00  0.00    +0.000 A 
ATOM     20  C   UNL     1      44.825   3.505  10.067  0.00  0.00    +0.000 A 
ATOM     21  N   UNL     1      44.939   3.097  11.357  0.00  0.00    +0.000 NA
ATOM     22  C   UNL     1      45.295   4.026  12.273  0.00  0.00    +0.000 A 
BRANCH  20  23
ATOM     23  C   UNL     1      44.550   2.440   9.031  0.00  0.00    +0.000 C 
BRANCH  23  24
ATOM     24  C   UNL     1      45.703   2.261   8.077  0.00  0.00    +0.000 A 
ATOM     25  C   UNL     1      45.995   3.215   7.109  0.00  0.00    +0.000 A 
ATOM     26  C   UNL     1      47.023   2.966   6.212  0.00  0.00    +0.000 A 
ATOM     27  C   UNL     1      47.720   1.783   6.340  0.00  0.00    +0.000 A 
ATOM     28  N   UNL     1      47.441   0.878   7.298  0.00  0.00    +0.000 NA
ATOM     29  N   UNL     1      46.420   1.118   8.173  0.00  0.00    +0.000 NA
ENDBRANCH  23  24
ENDBRANCH  20  23
ENDBRANCH  16  17
ENDBRANCH   3  16
TORSDOF 5
ENDMDL
MODEL 3
REMARK VINA RESULT:    -7.939      3.468      4.433
REMARK INTER + INTRA:         -10.918
REMARK INTER:                 -10.357
REMARK INTRA:                  -0.561
REMARK UNBOUND:                -0.658
REMARK  Name = 
REMARK  5 active torsions:
REMARK  status: ('A' for Active; 'I' for Inactive)
REMARK    1  A    between atoms: C_2  and  C_18
REMARK    2  A    between atoms: N_3  and  C_4
REMARK    3  A    between atoms: C_4  and  C_5
REMARK    4  A    between atoms: C_8  and  C_9
REMARK    5  A    between atoms: C_9  and  C_10
REMARK                            x       y       z     vdW  Elec       q    Type
REMARK                         _______ _______ _______ _____ _____    ______ ____
ROOT
ATOM      1  O   UNL     1      45.380   9.116  13.205  0.00  0.00    +0.000 OA
ATOM      2  C   UNL     1      46.329   8.520  12.701  0.00  0.00    +0.000 C 
ATOM      3  N   UNL     1      46.312   7.167  12.483  0.00  0.00    +0.000 N 
ATOM      4  H   UNL     1      47.173   6.697  12.222  0.00  0.00    +0.000 HD
ENDROOT
BRANCH   2   5
ATOM      5  C   UNL     1      47.531   9.234  12.257  0.00  0.00    +0.000 A 
ATOM      6  C   UNL     1      47.411  10.502  11.702  0.00  0.00    +0.000 A 
ATOM      7  S   UNL     1      48.901  11.191  11.243  0.00  0.00    +0.000 S 
ATOM      8  C   UNL     1      49.764   9.838  11.809  0.00  0.00    +0.000 A 
ATOM      9  N   UNL     1      51.122   9.801  11.752  0.00  0.00    +0.000 NA
ATOM     10  C   UNL     1      51.648   8.734  12.255  0.00  0.00    +0.000 A 
ATOM     11  N   UNL     1      50.940   7.693  12.794  0.00  0.00    +0.000 N 
ATOM     12  C   UNL     1      49.565   7.650  12.796  0.00  0.00    +0.000 A 
ATOM     13  O   UNL     1      48.963   6.641  13.146  0.00  0.00    +0.000 OA
ATOM     14  C   UNL     1      48.924   8.856  12.304  0.00  0.00    +0.000 A 
ATOM     15  H   UNL     1      51.412   6.869  13.134  0.00  0.00    +0.000 HD
ENDBRANCH   2   5
BRANCH   3  16
ATOM     16  C   UNL     1      45.229   6.327  12.923  0.00  0.00    +0.000 C 
BRANCH  16  17
ATOM     17  C   UNL     1      44.969   5.214  11.955  0.00  0.00    +0.000 A 
ATOM     18  C   UNL     1      44.317   5.442  10.743  0.00  0.00    +0.000 A 
ATOM     19  C   UNL     1      44.130   4.391   9.848  0.00  0.00    +0.000 A 
ATOM     20  C   UNL     1      44.587   3.122  10.197  0.00  0.00    +0.000 A 
ATOM     21  N   UNL     1      45.187   2.868  11.388  0.00  0.00    +0.000 NA
ATOM     22  C   UNL     1      45.356   3.909  12.235  0.00  0.00    +0.000 A 
BRANCH  20  23
ATOM     23  C   UNL     1      44.513   1.984   9.208  0.00  0.00    +0.000 C 
BRANCH  23  24
ATOM     24  C   UNL     1      45.652   2.011   8.222  0.00  0.00    +0.000 A 
ATOM     25  C   UNL     1      45.896   3.127   7.429  0.00  0.00    +0.000 A 
ATOM     26  C   UNL     1      46.913   3.072   6.489  0.00  0.00    +0.000 A 
ATOM     27  C   UNL     1      47.648   1.908   6.400  0.00  0.00    +0.000 A 
ATOM     28  N   UNL     1      47.416   0.842   7.190  0.00  0.00    +0.000 NA
ATOM     29  N   UNL     1      46.406   0.893   8.107  0.00  0.00    +0.000 NA
ENDBRANCH  23  24
ENDBRANCH  20  23
ENDBRANCH  16  17
ENDBRANCH   3  16
TORSDOF 5
ENDMDL
MODEL 4
REMARK VINA RESULT:    -7.887      2.494      4.149
REMARK INTER + INTRA:         -10.851
REMARK INTER:                  -9.923
REMARK INTRA:                  -0.928
REMARK UNBOUND:                -0.658
REMARK  Name = 
REMARK  5 active torsions:
REMARK  status: ('A' for Active; 'I' for Inactive)
REMARK    1  A    between atoms: C_2  and  C_18
REMARK    2  A    between atoms: N_3  and  C_4
REMARK    3  A    between atoms: C_4  and  C_5
REMARK    4  A    between atoms: C_8  and  C_9
REMARK    5  A    between atoms: C_9  and  C_10
REMARK                            x       y       z     vdW  Elec       q    Type
REMARK                         _______ _______ _______ _____ _____    ______ ____
ROOT
ATOM      1  O   UNL     1      48.957   5.907  15.486  0.00  0.00    +0.000 OA
ATOM      2  C   UNL     1      48.360   6.755  14.828  0.00  0.00    +0.000 C 
ATOM      3  N   UNL     1      47.184   6.483  14.179  0.00  0.00    +0.000 N 
ATOM      4  H   UNL     1      46.816   7.159  13.516  0.00  0.00    +0.000 HD
ENDROOT
BRANCH   2   5
ATOM      5  C   UNL     1      48.851   8.134  14.732  0.00  0.00    +0.000 A 
ATOM      6  C   UNL     1      48.919   8.919  15.875  0.00  0.00    +0.000 A 
ATOM      7  S   UNL     1      49.514  10.491  15.590  0.00  0.00    +0.000 S 
ATOM      8  C   UNL     1      49.742  10.164  13.936  0.00  0.00    +0.000 A 
ATOM      9  N   UNL     1      50.276  11.099  13.105  0.00  0.00    +0.000 NA
ATOM     10  C   UNL     1      50.433  10.703  11.886  0.00  0.00    +0.000 A 
ATOM     11  N   UNL     1      50.089   9.462  11.417  0.00  0.00    +0.000 N 
ATOM     12  C   UNL     1      49.470   8.516  12.200  0.00  0.00    +0.000 A 
ATOM     13  O   UNL     1      49.038   7.476  11.716  0.00  0.00    +0.000 OA
ATOM     14  C   UNL     1      49.332   8.887  13.597  0.00  0.00    +0.000 A 
ATOM     15  H   UNL     1      50.201   9.231  10.442  0.00  0.00    +0.000 HD
ENDBRANCH   2   5
BRANCH   3  16
ATOM     16  C   UNL     1      46.615   5.162  14.131  0.00  0.00    +0.000 C 
BRANCH  16  17
ATOM     17  C   UNL     1      46.034   4.862  12.783  0.00  0.00    +0.000 A 
ATOM     18  C   UNL     1      46.063   5.803  11.753  0.00  0.00    +0.000 A 
ATOM     19  C   UNL     1      45.552   5.475  10.500  0.00  0.00    +0.000 A 
ATOM     20  C   UNL     1      45.000   4.210  10.310  0.00  0.00    +0.000 A 
ATOM     21  N   UNL     1      44.922   3.293  11.308  0.00  0.00    +0.000 NA
ATOM     22  C   UNL     1      45.430   3.640  12.513  0.00  0.00    +0.000 A 
BRANCH  20  23
ATOM     23  C   UNL     1      44.546   3.773   8.938  0.00  0.00    +0.000 C 
BRANCH  23  24
ATOM     24  C   UNL     1      45.575   2.922   8.241  0.00  0.00    +0.000 A 
ATOM     25  C   UNL     1      46.389   3.443   7.242  0.00  0.00    +0.000 A 
ATOM     26  C   UNL     1      47.270   2.597   6.585  0.00  0.00    +0.000 A 
ATOM     27  C   UNL     1      47.306   1.274   6.973  0.00  0.00    +0.000 A 
ATOM     28  N   UNL     1      46.528   0.787   7.959  0.00  0.00    +0.000 NA
ATOM     29  N   UNL     1      45.651   1.618   8.596  0.00  0.00    +0.000 NA
ENDBRANCH  23  24
ENDBRANCH  20  23
ENDBRANCH  16  17
ENDBRANCH   3  16
TORSDOF 5
ENDMDL
MODEL 5
REMARK VINA RESULT:    -7.764      2.775      3.636
REMARK INTER + INTRA:         -10.691
REMARK INTER:                 -10.068
REMARK INTRA:                  -0.623
REMARK UNBOUND:                -0.658
REMARK  Name = 
REMARK  5 active torsions:
REMARK  status: ('A' for Active; 'I' for Inactive)
REMARK    1  A    between atoms: C_2  and  C_18
REMARK    2  A    between atoms: N_3  and  C_4
REMARK    3  A    between atoms: C_4  and  C_5
REMARK    4  A    between atoms: C_8  and  C_9
REMARK    5  A    between atoms: C_9  and  C_10
REMARK                            x       y       z     vdW  Elec       q    Type
REMARK                         _______ _______ _______ _____ _____    ______ ____
ROOT
ATOM      1  O   UNL     1      46.244   8.509  12.597  0.00  0.00    +0.000 OA
ATOM      2  C   UNL     1      47.198   7.763  12.804  0.00  0.00    +0.000 C 
ATOM      3  N   UNL     1      47.038   6.431  13.088  0.00  0.00    +0.000 N 
ATOM      4  H   UNL     1      47.836   5.896  13.414  0.00  0.00    +0.000 HD
ENDROOT
BRANCH   2   5
ATOM      5  C   UNL     1      48.580   8.247  12.716  0.00  0.00    +0.000 A 
ATOM      6  C   UNL     1      48.936   9.126  11.703  0.00  0.00    +0.000 A 
ATOM      7  S   UNL     1      50.575   9.592  11.747  0.00  0.00    +0.000 S 
ATOM      8  C   UNL     1      50.858   8.668  13.147  0.00  0.00    +0.000 A 
ATOM      9  N   UNL     1      52.079   8.660  13.745  0.00  0.00    +0.000 NA
ATOM     10  C   UNL     1      52.141   7.951  14.822  0.00  0.00    +0.000 A 
ATOM     11  N   UNL     1      51.097   7.235  15.348  0.00  0.00    +0.000 N 
ATOM     12  C   UNL     1      49.870   7.147  14.733  0.00  0.00    +0.000 A 
ATOM     13  O   UNL     1      49.008   6.380  15.145  0.00  0.00    +0.000 OA
ATOM     14  C   UNL     1      49.727   7.981  13.553  0.00  0.00    +0.000 A 
ATOM     15  H   UNL     1      51.224   6.668  16.173  0.00  0.00    +0.000 HD
ENDBRANCH   2   5
BRANCH   3  16
ATOM     16  C   UNL     1      45.743   5.830  13.269  0.00  0.00    +0.000 C 
BRANCH  16  17
ATOM     17  C   UNL     1      45.386   4.939  12.118  0.00  0.00    +0.000 A 
ATOM     18  C   UNL     1      45.280   5.436  10.819  0.00  0.00    +0.000 A 
ATOM     19  C   UNL     1      44.989   4.570   9.768  0.00  0.00    +0.000 A 
ATOM     20  C   UNL     1      44.789   3.220  10.045  0.00  0.00    +0.000 A 
ATOM     21  N   UNL     1      44.846   2.721  11.306  0.00  0.00    +0.000 NA
ATOM     22  C   UNL     1      45.134   3.585  12.305  0.00  0.00    +0.000 A 
BRANCH  20  23
ATOM     23  C   UNL     1      44.592   2.230   8.922  0.00  0.00    +0.000 C 
BRANCH  23  24
ATOM     24  C   UNL     1      45.756   2.212   7.966  0.00  0.00    +0.000 A 
ATOM     25  C   UNL     1      45.921   3.207   7.008  0.00  0.00    +0.000 A 
ATOM     26  C   UNL     1      46.971   3.103   6.109  0.00  0.00    +0.000 A 
ATOM     27  C   UNL     1      47.815   2.018   6.222  0.00  0.00    +0.000 A 
ATOM     28  N   UNL     1      47.657   1.073   7.170  0.00  0.00    +0.000 NA
ATOM     29  N   UNL     1      46.615   1.170   8.048  0.00  0.00    +0.000 NA
ENDBRANCH  23  24
ENDBRANCH  20  23
ENDBRANCH  16  17
ENDBRANCH   3  16
TORSDOF 5
ENDMDL
MODEL 6
REMARK VINA RESULT:    -7.335      2.171      2.964
REMARK INTER + INTRA:         -10.137
REMARK INTER:                  -9.885
REMARK INTRA:                  -0.252
REMARK UNBOUND:                -0.658
REMARK  Name = 
REMARK  5 active torsions:
REMARK  status: ('A' for Active; 'I' for Inactive)
REMARK    1  A    between atoms: C_2  and  C_18
REMARK    2  A    between atoms: N_3  and  C_4
REMARK    3  A    between atoms: C_4  and  C_5
REMARK    4  A    between atoms: C_8  and  C_9
REMARK    5  A    between atoms: C_9  and  C_10
REMARK                            x       y       z     vdW  Elec       q    Type
REMARK                         _______ _______ _______ _____ _____    ______ ____
ROOT
ATOM      1  O   UNL     1      47.602   5.123  16.520  0.00  0.00    +0.000 OA
ATOM      2  C   UNL     1      47.912   5.744  15.506  0.00  0.00    +0.000 C 
ATOM      3  N   UNL     1      47.212   5.626  14.333  0.00  0.00    +0.000 N 
ATOM      4  H   UNL     1      47.599   6.025  13.484  0.00  0.00    +0.000 HD
ENDROOT
BRANCH   2   5
ATOM      5  C   UNL     1      49.031   6.692  15.502  0.00  0.00    +0.000 A 
ATOM      6  C   UNL     1      48.904   7.903  14.834  0.00  0.00    +0.000 A 
ATOM      7  S   UNL     1      50.293   8.886  14.931  0.00  0.00    +0.000 S 
ATOM      8  C   UNL     1      51.099   7.747  15.903  0.00  0.00    +0.000 A 
ATOM      9  N   UNL     1      52.348   7.995  16.381  0.00  0.00    +0.000 NA
ATOM     10  C   UNL     1      52.823   7.065  17.140  0.00  0.00    +0.000 A 
ATOM     11  N   UNL     1      52.171   5.901  17.451  0.00  0.00    +0.000 N 
ATOM     12  C   UNL     1      50.944   5.571  16.925  0.00  0.00    +0.000 A 
ATOM     13  O   UNL     1      50.456   4.461  17.101  0.00  0.00    +0.000 OA
ATOM     14  C   UNL     1      50.335   6.614  16.118  0.00  0.00    +0.000 A 
ATOM     15  H   UNL     1      52.617   5.196  18.019  0.00  0.00    +0.000 HD
ENDBRANCH   2   5
BRANCH   3  16
ATOM     16  C   UNL     1      46.131   4.690  14.170  0.00  0.00    +0.000 C 
BRANCH  16  17
ATOM     17  C   UNL     1      45.719   4.573  12.734  0.00  0.00    +0.000 A 
ATOM     18  C   UNL     1      45.979   5.591  11.817  0.00  0.00    +0.000 A 
ATOM     19  C   UNL     1      45.621   5.429  10.481  0.00  0.00    +0.000 A 
ATOM     20  C   UNL     1      44.987   4.251  10.094  0.00  0.00    +0.000 A 
ATOM     21  N   UNL     1      44.686   3.263  10.976  0.00  0.00    +0.000 NA
ATOM     22  C   UNL     1      45.050   3.449  12.265  0.00  0.00    +0.000 A 
BRANCH  20  23
ATOM     23  C   UNL     1      44.691   3.985   8.637  0.00  0.00    +0.000 C 
BRANCH  23  24
ATOM     24  C   UNL     1      45.711   3.074   8.005  0.00  0.00    +0.000 A 
ATOM     25  C   UNL     1      46.495   3.495   6.937  0.00  0.00    +0.000 A 
ATOM     26  C   UNL     1      47.368   2.593   6.349  0.00  0.00    +0.000 A 
ATOM     27  C   UNL     1      47.426   1.317   6.870  0.00  0.00    +0.000 A 
ATOM     28  N   UNL     1      46.677   0.928   7.920  0.00  0.00    +0.000 NA
ATOM     29  N   UNL     1      45.809   1.814   8.491  0.00  0.00    +0.000 NA
ENDBRANCH  23  24
ENDBRANCH  20  23
ENDBRANCH  16  17
ENDBRANCH   3  16
TORSDOF 5
ENDMDL
MODEL 7
REMARK VINA RESULT:    -7.263      2.813      3.843
REMARK INTER + INTRA:         -10.044
REMARK INTER:                  -9.389
REMARK INTRA:                  -0.654
REMARK UNBOUND:                -0.658
REMARK  Name = 
REMARK  5 active torsions:
REMARK  status: ('A' for Active; 'I' for Inactive)
REMARK    1  A    between atoms: C_2  and  C_18
REMARK    2  A    between atoms: N_3  and  C_4
REMARK    3  A    between atoms: C_4  and  C_5
REMARK    4  A    between atoms: C_8  and  C_9
REMARK    5  A    between atoms: C_9  and  C_10
REMARK                            x       y       z     vdW  Elec       q    Type
REMARK                         _______ _______ _______ _____ _____    ______ ____
ROOT
ATOM      1  O   UNL     1      48.990   5.740  15.833  0.00  0.00    +0.000 OA
ATOM      2  C   UNL     1      48.493   6.576  15.081  0.00  0.00    +0.000 C 
ATOM      3  N   UNL     1      47.378   6.314  14.329  0.00  0.00    +0.000 N 
ATOM      4  H   UNL     1      47.104   6.970  13.605  0.00  0.00    +0.000 HD
ENDROOT
BRANCH   2   5
ATOM      5  C   UNL     1      49.044   7.932  14.977  0.00  0.00    +0.000 A 
ATOM      6  C   UNL     1      49.732   8.307  13.830  0.00  0.00    +0.000 A 
ATOM      7  S   UNL     1      50.301   9.913  13.870  0.00  0.00    +0.000 S 
ATOM      8  C   UNL     1      49.611  10.178  15.402  0.00  0.00    +0.000 A 
ATOM      9  N   UNL     1      49.698  11.393  16.007  0.00  0.00    +0.000 NA
ATOM     10  C   UNL     1      49.094  11.466  17.146  0.00  0.00    +0.000 A 
ATOM     11  N   UNL     1      48.426  10.430  17.744  0.00  0.00    +0.000 N 
ATOM     12  C   UNL     1      48.384   9.164  17.210  0.00  0.00    +0.000 A 
ATOM     13  O   UNL     1      47.910   8.225  17.839  0.00  0.00    +0.000 OA
ATOM     14  C   UNL     1      48.990   9.045  15.896  0.00  0.00    +0.000 A 
ATOM     15  H   UNL     1      48.009  10.544  18.656  0.00  0.00    +0.000 HD
ENDBRANCH   2   5
BRANCH   3  16
ATOM     16  C   UNL     1      46.767   5.011  14.281  0.00  0.00    +0.000 C 
BRANCH  16  17
ATOM     17  C   UNL     1      46.120   4.757  12.955  0.00  0.00    +0.000 A 
ATOM     18  C   UNL     1      46.031   5.756  11.985  0.00  0.00    +0.000 A 
ATOM     19  C   UNL     1      45.461   5.472  10.747  0.00  0.00    +0.000 A 
ATOM     20  C   UNL     1      44.970   4.190  10.512  0.00  0.00    +0.000 A 
ATOM     21  N   UNL     1      45.008   3.213  11.454  0.00  0.00    +0.000 NA
ATOM     22  C   UNL     1      45.570   3.519  12.645  0.00  0.00    +0.000 A 
BRANCH  20  23
ATOM     23  C   UNL     1      44.455   3.807   9.144  0.00  0.00    +0.000 C 
BRANCH  23  24
ATOM     24  C   UNL     1      45.500   3.104   8.318  0.00  0.00    +0.000 A 
ATOM     25  C   UNL     1      45.743   1.743   8.465  0.00  0.00    +0.000 A 
ATOM     26  C   UNL     1      46.764   1.161   7.729  0.00  0.00    +0.000 A 
ATOM     27  C   UNL     1      47.481   1.967   6.869  0.00  0.00    +0.000 A 
ATOM     28  N   UNL     1      47.220   3.280   6.719  0.00  0.00    +0.000 NA
ATOM     29  N   UNL     1      46.222   3.854   7.454  0.00  0.00    +0.000 NA
ENDBRANCH  23  24
ENDBRANCH  20  23
ENDBRANCH  16  17
ENDBRANCH   3  16
TORSDOF 5
ENDMDL
MODEL 8
REMARK VINA RESULT:    -6.986      3.828      8.527
REMARK INTER + INTRA:          -9.686
REMARK INTER:                  -8.871
REMARK INTRA:                  -0.815
REMARK UNBOUND:                -0.658
REMARK  Name = 
REMARK  5 active torsions:
REMARK  status: ('A' for Active; 'I' for Inactive)
REMARK    1  A    between atoms: C_2  and  C_18
REMARK    2  A    between atoms: N_3  and  C_4
REMARK    3  A    between atoms: C_4  and  C_5
REMARK    4  A    between atoms: C_8  and  C_9
REMARK    5  A    between atoms: C_9  and  C_10
REMARK                            x       y       z     vdW  Elec       q    Type
REMARK                         _______ _______ _______ _____ _____    ______ ____
ROOT
ATOM      1  O   UNL     1      47.255   3.227  13.767  0.00  0.00    +0.000 OA
ATOM      2  C   UNL     1      46.760   4.224  14.287  0.00  0.00    +0.000 C 
ATOM      3  N   UNL     1      46.803   4.442  15.640  0.00  0.00    +0.000 N 
ATOM      4  H   UNL     1      46.242   5.187  16.040  0.00  0.00    +0.000 HD
ENDROOT
BRANCH   2   5
ATOM      5  C   UNL     1      46.128   5.273  13.481  0.00  0.00    +0.000 A 
ATOM      6  C   UNL     1      46.819   6.449  13.219  0.00  0.00    +0.000 A 
ATOM      7  S   UNL     1      45.943   7.559  12.267  0.00  0.00    +0.000 S 
ATOM      8  C   UNL     1      44.626   6.491  12.135  0.00  0.00    +0.000 A 
ATOM      9  N   UNL     1      43.531   6.819  11.398  0.00  0.00    +0.000 NA
ATOM     10  C   UNL     1      42.626   5.899  11.349  0.00  0.00    +0.000 A 
ATOM     11  N   UNL     1      42.708   4.688  11.984  0.00  0.00    +0.000 N 
ATOM     12  C   UNL     1      43.756   4.347  12.806  0.00  0.00    +0.000 A 
ATOM     13  O   UNL     1      43.728   3.322  13.477  0.00  0.00    +0.000 OA
ATOM     14  C   UNL     1      44.833   5.319  12.841  0.00  0.00    +0.000 A 
ATOM     15  H   UNL     1      41.945   4.029  11.937  0.00  0.00    +0.000 HD
ENDBRANCH   2   5
BRANCH   3  16
ATOM     16  C   UNL     1      47.335   3.472  16.562  0.00  0.00    +0.000 C 
BRANCH  16  17
ATOM     17  C   UNL     1      48.649   3.916  17.128  0.00  0.00    +0.000 A 
ATOM     18  C   UNL     1      49.709   3.024  17.292  0.00  0.00    +0.000 A 
ATOM     19  C   UNL     1      50.930   3.481  17.782  0.00  0.00    +0.000 A 
ATOM     20  C   UNL     1      51.057   4.827  18.118  0.00  0.00    +0.000 A 
ATOM     21  N   UNL     1      50.028   5.705  18.007  0.00  0.00    +0.000 NA
ATOM     22  C   UNL     1      48.856   5.231  17.526  0.00  0.00    +0.000 A 
BRANCH  20  23
ATOM     23  C   UNL     1      52.396   5.386  18.537  0.00  0.00    +0.000 C 
BRANCH  23  24
ATOM     24  C   UNL     1      53.351   5.508  17.379  0.00  0.00    +0.000 A 
ATOM     25  C   UNL     1      54.505   4.736  17.309  0.00  0.00    +0.000 A 
ATOM     26  C   UNL     1      55.385   4.939  16.256  0.00  0.00    +0.000 A 
ATOM     27  C   UNL     1      55.056   5.893  15.315  0.00  0.00    +0.000 A 
ATOM     28  N   UNL     1      53.923   6.618  15.383  0.00  0.00    +0.000 NA
ATOM     29  N   UNL     1      53.064   6.426  16.427  0.00  0.00    +0.000 NA
ENDBRANCH  23  24
ENDBRANCH  20  23
ENDBRANCH  16  17
ENDBRANCH   3  16
TORSDOF 5
ENDMDL
MODEL 9
REMARK VINA RESULT:    -6.671      2.357      3.187
REMARK INTER + INTRA:          -9.279
REMARK INTER:                  -8.372
REMARK INTRA:                  -0.908
REMARK UNBOUND:                -0.658
REMARK  Name = 
REMARK  5 active torsions:
REMARK  status: ('A' for Active; 'I' for Inactive)
REMARK    1  A    between atoms: C_2  and  C_18
REMARK    2  A    between atoms: N_3  and  C_4
REMARK    3  A    between atoms: C_4  and  C_5
REMARK    4  A    between atoms: C_8  and  C_9
REMARK    5  A    between atoms: C_9  and  C_10
REMARK                            x       y       z     vdW  Elec       q    Type
REMARK                         _______ _______ _______ _____ _____    ______ ____
ROOT
ATOM      1  O   UNL     1      48.301   8.655  16.189  0.00  0.00    +0.000 OA
ATOM      2  C   UNL     1      48.697   7.508  15.996  0.00  0.00    +0.000 C 
ATOM      3  N   UNL     1      48.862   6.993  14.736  0.00  0.00    +0.000 N 
ATOM      4  H   UNL     1      49.029   5.998  14.627  0.00  0.00    +0.000 HD
ENDROOT
BRANCH   2   5
ATOM      5  C   UNL     1      49.065   6.629  17.111  0.00  0.00    +0.000 A 
ATOM      6  C   UNL     1      48.107   6.280  18.054  0.00  0.00    +0.000 A 
ATOM      7  S   UNL     1      48.698   5.251  19.278  0.00  0.00    +0.000 S 
ATOM      8  C   UNL     1      50.243   5.201  18.568  0.00  0.00    +0.000 A 
ATOM      9  N   UNL     1      51.236   4.445  19.107  0.00  0.00    +0.000 NA
ATOM     10  C   UNL     1      52.343   4.466  18.442  0.00  0.00    +0.000 A 
ATOM     11  N   UNL     1      52.553   5.187  17.297  0.00  0.00    +0.000 N 
ATOM     12  C   UNL     1      51.606   6.030  16.763  0.00  0.00    +0.000 A 
ATOM     13  O   UNL     1      51.875   6.774  15.828  0.00  0.00    +0.000 OA
ATOM     14  C   UNL     1      50.320   5.991  17.435  0.00  0.00    +0.000 A 
ATOM     15  H   UNL     1      53.457   5.191  16.849  0.00  0.00    +0.000 HD
ENDBRANCH   2   5
BRANCH   3  16
ATOM     16  C   UNL     1      48.483   7.716  13.550  0.00  0.00    +0.000 C 
BRANCH  16  17
ATOM     17  C   UNL     1      47.345   7.048  12.841  0.00  0.00    +0.000 A 
ATOM     18  C   UNL     1      46.443   7.778  12.066  0.00  0.00    +0.000 A 
ATOM     19  C   UNL     1      45.422   7.119  11.386  0.00  0.00    +0.000 A 
ATOM     20  C   UNL     1      45.314   5.736  11.513  0.00  0.00    +0.000 A 
ATOM     21  N   UNL     1      46.153   5.010  12.295  0.00  0.00    +0.000 NA
ATOM     22  C   UNL     1      47.136   5.678  12.940  0.00  0.00    +0.000 A 
BRANCH  20  23
ATOM     23  C   UNL     1      44.298   4.971  10.699  0.00  0.00    +0.000 C 
BRANCH  23  24
ATOM     24  C   UNL     1      44.940   4.154   9.608  0.00  0.00    +0.000 A 
ATOM     25  C   UNL     1      44.861   2.766   9.602  0.00  0.00    +0.000 A 
ATOM     26  C   UNL     1      45.530   2.061   8.613  0.00  0.00    +0.000 A 
ATOM     27  C   UNL     1      46.231   2.781   7.668  0.00  0.00    +0.000 A 
ATOM     28  N   UNL     1      46.281   4.127   7.673  0.00  0.00    +0.000 NA
ATOM     29  N   UNL     1      45.632   4.820   8.654  0.00  0.00    +0.000 NA
ENDBRANCH  23  24
ENDBRANCH  20  23
ENDBRANCH  16  17
ENDBRANCH   3  16
TORSDOF 5
ENDMDL
