MODEL 1
REMARK VINA RESULT:    -8.270      0.000      0.000
REMARK INTER + INTRA:         -14.799
REMARK INTER:                 -13.104
REMARK INTRA:                  -1.694
REMARK UNBOUND:                -1.694
REMARK  Name = 
REMARK  12 active torsions:
REMARK  status: ('A' for Active; 'I' for Inactive)
REMARK    1  A    between atoms: C_1  and  O_2
REMARK    2  A    between atoms: O_2  and  C_3
REMARK    3  A    between atoms: C_3  and  C_4
REMARK    4  A    between atoms: C_4  and  N_5
REMARK    5  A    between atoms: C_4  and  C_28
REMARK    6  A    between atoms: N_5  and  C_6
REMARK    7  A    between atoms: C_6  and  C_7
REMARK    8  A    between atoms: C_10  and  C_11
REMARK    9  A    between atoms: C_11  and  N_12
REMARK   10  A    between atoms: C_13  and  C_15
REMARK   11  A    between atoms: C_22  and  O_23
REMARK   12  A    between atoms: O_23  and  C_24
REMARK                            x       y       z     vdW  Elec       q    Type
REMARK                         _______ _______ _______ _____ _____    ______ ____
ROOT
ATOM      1  C   UNL     1      45.355   6.627  11.183  0.00  0.00    +0.000 A 
ATOM      2  C   UNL     1      46.686   6.233  11.360  0.00  0.00    +0.000 A 
ATOM      3  C   UNL     1      47.496   6.873  12.301  0.00  0.00    +0.000 A 
ATOM      4  C   UNL     1      46.989   7.914  13.090  0.00  0.00    +0.000 A 
ATOM      5  C   UNL     1      45.668   8.330  12.889  0.00  0.00    +0.000 A 
ATOM      6  C   UNL     1      44.857   7.693  11.948  0.00  0.00    +0.000 A 
ENDROOT
BRANCH   1   7
ATOM      7  C   UNL     1      44.468   5.938  10.170  0.00  0.00    +0.000 C 
BRANCH   7   8
ATOM      8  N   UNL     1      45.240   5.148   9.212  0.00  0.00    +0.000 NA
ATOM      9  H   UNL     1      45.077   5.529   8.278  0.00  0.00    +0.000 HD
BRANCH   8  10
ATOM     10  C   UNL     1      44.848   3.717   9.164  0.00  0.00    +0.000 C 
BRANCH  10  11
ATOM     11  C   UNL     1      45.683   2.943   8.149  0.00  0.00    +0.000 A 
ATOM     12  C   UNL     1      46.211   3.608   7.031  0.00  0.00    +0.000 A 
ATOM     13  C   UNL     1      47.084   2.945   6.162  0.00  0.00    +0.000 A 
ATOM     14  C   UNL     1      47.441   1.618   6.399  0.00  0.00    +0.000 A 
ATOM     15  C   UNL     1      46.913   0.943   7.493  0.00  0.00    +0.000 A 
ATOM     16  C   UNL     1      46.032   1.597   8.355  0.00  0.00    +0.000 A 
ENDBRANCH  10  11
BRANCH  10  17
ATOM     17  C   UNL     1      44.783   3.034  10.555  0.00  0.00    +0.000 C 
BRANCH  17  19
ATOM     18  C   UNL     1      43.385   3.226  12.427  0.00  0.00    +0.000 C 
ATOM     19  O   UNL     1      43.436   2.922  11.034  0.00  0.00    +0.000 OA
ENDBRANCH  17  19
ENDBRANCH  10  17
ENDBRANCH   8  10
ENDBRANCH   7   8
ENDBRANCH   1   7
BRANCH   4  20
ATOM     20  C   UNL     1      47.861   8.607  14.103  0.00  0.00    +0.000 C 
BRANCH  20  21
ATOM     21  N   UNL     1      48.148   7.731  15.209  0.00  0.00    +0.000 N 
ATOM     22  C   UNL     1      49.376   7.149  15.376  0.00  0.00    +0.000 C 
ATOM     23  O   UNL     1      50.339   7.424  14.666  0.00  0.00    +0.000 OA
ATOM     24  H   UNL     1      47.355   7.364  15.717  0.00  0.00    +0.000 HD
BRANCH  22  25
ATOM     25  C   UNL     1      49.491   6.225  16.510  0.00  0.00    +0.000 A 
ATOM     26  C   UNL     1      50.453   6.444  17.487  0.00  0.00    +0.000 A 
ATOM     27  S   UNL     1      50.361   5.341  18.783  0.00  0.00    +0.000 S 
ATOM     28  C   UNL     1      49.078   4.506  18.046  0.00  0.00    +0.000 A 
ATOM     29  N   UNL     1      48.530   3.441  18.659  0.00  0.00    +0.000 NA
ATOM     30  C   UNL     1      47.555   2.881  17.942  0.00  0.00    +0.000 A 
ATOM     31  N   UNL     1      47.121   3.251  16.731  0.00  0.00    +0.000 NA
ATOM     32  C   UNL     1      47.705   4.318  16.154  0.00  0.00    +0.000 A 
ATOM     33  C   UNL     1      48.715   5.034  16.816  0.00  0.00    +0.000 A 
BRANCH  32  34
ATOM     34  O   UNL     1      47.299   4.710  14.894  0.00  0.00    +0.000 OA
ATOM     35  C   UNL     1      47.028   3.630  14.008  0.00  0.00    +0.000 C 
ENDBRANCH  32  34
ENDBRANCH  22  25
ENDBRANCH  20  21
ENDBRANCH   4  20
TORSDOF 10
ENDMDL
MODEL 2
REMARK VINA RESULT:    -7.021      1.850      2.253
REMARK INTER + INTRA:         -12.820
REMARK INTER:                 -11.428
REMARK INTRA:                  -1.392
REMARK UNBOUND:                -1.694
REMARK  Name = 
REMARK  12 active torsions:
REMARK  status: ('A' for Active; 'I' for Inactive)
REMARK    1  A    between atoms: C_1  and  O_2
REMARK    2  A    between atoms: O_2  and  C_3
REMARK    3  A    between atoms: C_3  and  C_4
REMARK    4  A    between atoms: C_4  and  N_5
REMARK    5  A    between atoms: C_4  and  C_28
REMARK    6  A    between atoms: N_5  and  C_6
REMARK    7  A    between atoms: C_6  and  C_7
REMARK    8  A    between atoms: C_10  and  C_11
REMARK    9  A    between atoms: C_11  and  N_12
REMARK   10  A    between atoms: C_13  and  C_15
REMARK   11  A    between atoms: C_22  and  O_23
REMARK   12  A    between atoms: O_23  and  C_24
REMARK                            x       y       z     vdW  Elec       q    Type
REMARK                         _______ _______ _______ _____ _____    ______ ____
ROOT
ATOM      1  C   UNL     1      46.432   6.821  12.211  0.00  0.00    +0.000 A 
ATOM      2  C   UNL     1      46.483   8.170  12.580  0.00  0.00    +0.000 A 
ATOM      3  C   UNL     1      47.227   8.575  13.690  0.00  0.00    +0.000 A 
ATOM      4  C   UNL     1      47.944   7.640  14.449  0.00  0.00    +0.000 A 
ATOM      5  C   UNL     1      47.865   6.287  14.100  0.00  0.00    +0.000 A 
ATOM      6  C   UNL     1      47.120   5.881  12.993  0.00  0.00    +0.000 A 
ENDROOT
BRANCH   1   7
ATOM      7  C   UNL     1      45.633   6.373  11.009  0.00  0.00    +0.000 C 
BRANCH   7   8
ATOM      8  N   UNL     1      45.950   4.998  10.621  0.00  0.00    +0.000 NA
ATOM      9  H   UNL     1      46.815   5.011  10.078  0.00  0.00    +0.000 HD
BRANCH   8  10
ATOM     10  C   UNL     1      44.915   4.366   9.764  0.00  0.00    +0.000 C 
BRANCH  10  11
ATOM     11  C   UNL     1      45.542   3.459   8.711  0.00  0.00    +0.000 A 
ATOM     12  C   UNL     1      46.146   4.024   7.577  0.00  0.00    +0.000 A 
ATOM     13  C   UNL     1      46.838   3.216   6.668  0.00  0.00    +0.000 A 
ATOM     14  C   UNL     1      46.936   1.841   6.881  0.00  0.00    +0.000 A 
ATOM     15  C   UNL     1      46.330   1.266   7.991  0.00  0.00    +0.000 A 
ATOM     16  C   UNL     1      45.629   2.067   8.893  0.00  0.00    +0.000 A 
ENDBRANCH  10  11
BRANCH  10  17
ATOM     17  C   UNL     1      43.768   3.686  10.557  0.00  0.00    +0.000 C 
BRANCH  17  19
ATOM     18  C   UNL     1      43.412   3.985  12.855  0.00  0.00    +0.000 C 
ATOM     19  O   UNL     1      44.184   3.297  11.873  0.00  0.00    +0.000 OA
ENDBRANCH  17  19
ENDBRANCH  10  17
ENDBRANCH   8  10
ENDBRANCH   7   8
ENDBRANCH   1   7
BRANCH   4  20
ATOM     20  C   UNL     1      48.745   8.074  15.648  0.00  0.00    +0.000 C 
BRANCH  20  21
ATOM     21  N   UNL     1      49.695   7.057  16.018  0.00  0.00    +0.000 N 
ATOM     22  C   UNL     1      49.654   6.431  17.235  0.00  0.00    +0.000 C 
ATOM     23  O   UNL     1      48.743   6.610  18.039  0.00  0.00    +0.000 OA
ATOM     24  H   UNL     1      50.534   6.993  15.458  0.00  0.00    +0.000 HD
BRANCH  22  25
ATOM     25  C   UNL     1      50.733   5.470  17.490  0.00  0.00    +0.000 A 
ATOM     26  C   UNL     1      51.964   5.918  17.951  0.00  0.00    +0.000 A 
ATOM     27  S   UNL     1      53.052   4.654  18.302  0.00  0.00    +0.000 S 
ATOM     28  C   UNL     1      51.934   3.482  17.789  0.00  0.00    +0.000 A 
ATOM     29  N   UNL     1      52.256   2.177  17.842  0.00  0.00    +0.000 NA
ATOM     30  C   UNL     1      51.286   1.388  17.381  0.00  0.00    +0.000 A 
ATOM     31  N   UNL     1      50.103   1.764  16.879  0.00  0.00    +0.000 NA
ATOM     32  C   UNL     1      49.827   3.081  16.840  0.00  0.00    +0.000 A 
ATOM     33  C   UNL     1      50.740   4.025  17.336  0.00  0.00    +0.000 A 
BRANCH  32  34
ATOM     34  O   UNL     1      48.627   3.503  16.304  0.00  0.00    +0.000 OA
ATOM     35  C   UNL     1      47.510   3.331  17.169  0.00  0.00    +0.000 C 
ENDBRANCH  32  34
ENDBRANCH  22  25
ENDBRANCH  20  21
ENDBRANCH   4  20
TORSDOF 10
ENDMDL
MODEL 3
REMARK VINA RESULT:    -6.517      1.924      2.359
REMARK INTER + INTRA:         -12.022
REMARK INTER:                 -11.084
REMARK INTRA:                  -0.938
REMARK UNBOUND:                -1.694
REMARK  Name = 
REMARK  12 active torsions:
REMARK  status: ('A' for Active; 'I' for Inactive)
REMARK    1  A    between atoms: C_1  and  O_2
REMARK    2  A    between atoms: O_2  and  C_3
REMARK    3  A    between atoms: C_3  and  C_4
REMARK    4  A    between atoms: C_4  and  N_5
REMARK    5  A    between atoms: C_4  and  C_28
REMARK    6  A    between atoms: N_5  and  C_6
REMARK    7  A    between atoms: C_6  and  C_7
REMARK    8  A    between atoms: C_10  and  C_11
REMARK    9  A    between atoms: C_11  and  N_12
REMARK   10  A    between atoms: C_13  and  C_15
REMARK   11  A    between atoms: C_22  and  O_23
REMARK   12  A    between atoms: O_23  and  C_24
REMARK                            x       y       z     vdW  Elec       q    Type
REMARK                         _______ _______ _______ _____ _____    ______ ____
ROOT
ATOM      1  C   UNL     1      46.463   6.564  11.613  0.00  0.00    +0.000 A 
ATOM      2  C   UNL     1      47.761   6.582  12.134  0.00  0.00    +0.000 A 
ATOM      3  C   UNL     1      48.135   7.542  13.077  0.00  0.00    +0.000 A 
ATOM      4  C   UNL     1      47.214   8.499  13.525  0.00  0.00    +0.000 A 
ATOM      5  C   UNL     1      45.926   8.502  12.978  0.00  0.00    +0.000 A 
ATOM      6  C   UNL     1      45.552   7.544  12.034  0.00  0.00    +0.000 A 
ENDROOT
BRANCH   1   7
ATOM      7  C   UNL     1      46.047   5.527  10.595  0.00  0.00    +0.000 C 
BRANCH   7   8
ATOM      8  N   UNL     1      44.647   5.679  10.197  0.00  0.00    +0.000 NA
ATOM      9  H   UNL     1      44.127   6.050  10.993  0.00  0.00    +0.000 HD
BRANCH   8  10
ATOM     10  C   UNL     1      43.993   4.401   9.817  0.00  0.00    +0.000 C 
BRANCH  10  11
ATOM     11  C   UNL     1      44.886   3.566   8.907  0.00  0.00    +0.000 A 
ATOM     12  C   UNL     1      45.620   4.191   7.887  0.00  0.00    +0.000 A 
ATOM     13  C   UNL     1      46.542   3.461   7.129  0.00  0.00    +0.000 A 
ATOM     14  C   UNL     1      46.741   2.103   7.381  0.00  0.00    +0.000 A 
ATOM     15  C   UNL     1      46.010   1.467   8.376  0.00  0.00    +0.000 A 
ATOM     16  C   UNL     1      45.081   2.190   9.126  0.00  0.00    +0.000 A 
ENDBRANCH  10  11
BRANCH  10  17
ATOM     17  C   UNL     1      43.421   3.604  11.018  0.00  0.00    +0.000 C 
BRANCH  17  19
ATOM     18  C   UNL     1      43.377   4.337  13.245  0.00  0.00    +0.000 C 
ATOM     19  O   UNL     1      42.762   4.458  11.963  0.00  0.00    +0.000 OA
ENDBRANCH  17  19
ENDBRANCH  10  17
ENDBRANCH   8  10
ENDBRANCH   7   8
ENDBRANCH   1   7
BRANCH   4  20
ATOM     20  C   UNL     1      47.615   9.537  14.540  0.00  0.00    +0.000 C 
BRANCH  20  21
ATOM     21  N   UNL     1      47.527   9.002  15.874  0.00  0.00    +0.000 N 
ATOM     22  C   UNL     1      48.546   9.133  16.779  0.00  0.00    +0.000 C 
ATOM     23  O   UNL     1      49.545   9.809  16.554  0.00  0.00    +0.000 OA
ATOM     24  H   UNL     1      46.800   8.320  16.044  0.00  0.00    +0.000 HD
BRANCH  22  25
ATOM     25  C   UNL     1      48.334   8.472  18.071  0.00  0.00    +0.000 A 
ATOM     26  C   UNL     1      47.842   9.198  19.148  0.00  0.00    +0.000 A 
ATOM     27  S   UNL     1      47.550   8.243  20.528  0.00  0.00    +0.000 S 
ATOM     28  C   UNL     1      48.131   6.849  19.748  0.00  0.00    +0.000 A 
ATOM     29  N   UNL     1      48.145   5.672  20.398  0.00  0.00    +0.000 NA
ATOM     30  C   UNL     1      48.653   4.684  19.662  0.00  0.00    +0.000 A 
ATOM     31  N   UNL     1      49.143   4.766  18.418  0.00  0.00    +0.000 NA
ATOM     32  C   UNL     1      49.115   5.967  17.810  0.00  0.00    +0.000 A 
ATOM     33  C   UNL     1      48.564   7.088  18.452  0.00  0.00    +0.000 A 
BRANCH  32  34
ATOM     34  O   UNL     1      49.636   6.092  16.538  0.00  0.00    +0.000 OA
ATOM     35  C   UNL     1      51.025   6.397  16.506  0.00  0.00    +0.000 C 
ENDBRANCH  32  34
ENDBRANCH  22  25
ENDBRANCH  20  21
ENDBRANCH   4  20
TORSDOF 10
ENDMDL
MODEL 4
REMARK VINA RESULT:    -6.456      3.259      5.281
REMARK INTER + INTRA:         -11.925
REMARK INTER:                 -10.508
REMARK INTRA:                  -1.417
REMARK UNBOUND:                -1.694
REMARK  Name = 
REMARK  12 active torsions:
REMARK  status: ('A' for Active; 'I' for Inactive)
REMARK    1  A    between atoms: C_1  and  O_2
REMARK    2  A    between atoms: O_2  and  C_3
REMARK    3  A    between atoms: C_3  and  C_4
REMARK    4  A    between atoms: C_4  and  N_5
REMARK    5  A    between atoms: C_4  and  C_28
REMARK    6  A    between atoms: N_5  and  C_6
REMARK    7  A    between atoms: C_6  and  C_7
REMARK    8  A    between atoms: C_10  and  C_11
REMARK    9  A    between atoms: C_11  and  N_12
REMARK   10  A    between atoms: C_13  and  C_15
REMARK   11  A    between atoms: C_22  and  O_23
REMARK   12  A    between atoms: O_23  and  C_24
REMARK                            x       y       z     vdW  Elec       q    Type
REMARK                         _______ _______ _______ _____ _____    ______ ____
ROOT
ATOM      1  C   UNL     1      47.602   5.890  14.512  0.00  0.00    +0.000 A 
ATOM      2  C   UNL     1      48.431   6.264  15.576  0.00  0.00    +0.000 A 
ATOM      3  C   UNL     1      48.640   5.398  16.652  0.00  0.00    +0.000 A 
ATOM      4  C   UNL     1      48.031   4.136  16.682  0.00  0.00    +0.000 A 
ATOM      5  C   UNL     1      47.176   3.776  15.635  0.00  0.00    +0.000 A 
ATOM      6  C   UNL     1      46.964   4.641  14.560  0.00  0.00    +0.000 A 
ENDROOT
BRANCH   1   7
ATOM      7  C   UNL     1      47.373   6.817  13.341  0.00  0.00    +0.000 C 
BRANCH   7   8
ATOM      8  N   UNL     1      47.235   6.086  12.081  0.00  0.00    +0.000 NA
ATOM      9  H   UNL     1      48.054   6.284  11.504  0.00  0.00    +0.000 HD
BRANCH   8  10
ATOM     10  C   UNL     1      46.045   6.485  11.287  0.00  0.00    +0.000 C 
BRANCH  10  11
ATOM     11  C   UNL     1      45.443   5.295  10.548  0.00  0.00    +0.000 A 
ATOM     12  C   UNL     1      45.677   5.137   9.173  0.00  0.00    +0.000 A 
ATOM     13  C   UNL     1      45.241   3.986   8.509  0.00  0.00    +0.000 A 
ATOM     14  C   UNL     1      44.572   2.981   9.207  0.00  0.00    +0.000 A 
ATOM     15  C   UNL     1      44.320   3.130  10.565  0.00  0.00    +0.000 A 
ATOM     16  C   UNL     1      44.742   4.283  11.229  0.00  0.00    +0.000 A 
ENDBRANCH  10  11
BRANCH  10  17
ATOM     17  C   UNL     1      45.000   7.306  12.086  0.00  0.00    +0.000 C 
BRANCH  17  19
ATOM     18  C   UNL     1      45.082   9.648  12.154  0.00  0.00    +0.000 C 
ATOM     19  O   UNL     1      44.638   8.517  11.408  0.00  0.00    +0.000 OA
ENDBRANCH  17  19
ENDBRANCH  10  17
ENDBRANCH   8  10
ENDBRANCH   7   8
ENDBRANCH   1   7
BRANCH   4  20
ATOM     20  C   UNL     1      48.253   3.203  17.842  0.00  0.00    +0.000 C 
BRANCH  20  21
ATOM     21  N   UNL     1      49.659   2.977  18.050  0.00  0.00    +0.000 N 
ATOM     22  C   UNL     1      50.396   2.167  17.228  0.00  0.00    +0.000 C 
ATOM     23  O   UNL     1      49.937   1.678  16.200  0.00  0.00    +0.000 OA
ATOM     24  H   UNL     1      50.032   3.232  18.955  0.00  0.00    +0.000 HD
BRANCH  22  25
ATOM     25  C   UNL     1      51.799   1.981  17.614  0.00  0.00    +0.000 A 
ATOM     26  C   UNL     1      52.341   0.703  17.658  0.00  0.00    +0.000 A 
ATOM     27  S   UNL     1      54.008   0.690  18.009  0.00  0.00    +0.000 S 
ATOM     28  C   UNL     1      54.037   2.381  18.176  0.00  0.00    +0.000 A 
ATOM     29  N   UNL     1      55.190   3.007  18.474  0.00  0.00    +0.000 NA
ATOM     30  C   UNL     1      55.042   4.326  18.596  0.00  0.00    +0.000 A 
ATOM     31  N   UNL     1      53.910   5.032  18.478  0.00  0.00    +0.000 NA
ATOM     32  C   UNL     1      52.780   4.361  18.186  0.00  0.00    +0.000 A 
ATOM     33  C   UNL     1      52.797   2.971  17.984  0.00  0.00    +0.000 A 
BRANCH  32  34
ATOM     34  O   UNL     1      51.591   5.054  18.084  0.00  0.00    +0.000 OA
ATOM     35  C   UNL     1      51.667   6.407  18.519  0.00  0.00    +0.000 C 
ENDBRANCH  32  34
ENDBRANCH  22  25
ENDBRANCH  20  21
ENDBRANCH   4  20
TORSDOF 10
ENDMDL
MODEL 5
REMARK VINA RESULT:    -6.441      1.939      2.511
REMARK INTER + INTRA:         -11.901
REMARK INTER:                 -10.635
REMARK INTRA:                  -1.267
REMARK UNBOUND:                -1.694
REMARK  Name = 
REMARK  12 active torsions:
REMARK  status: ('A' for Active; 'I' for Inactive)
REMARK    1  A    between atoms: C_1  and  O_2
REMARK    2  A    between atoms: O_2  and  C_3
REMARK    3  A    between atoms: C_3  and  C_4
REMARK    4  A    between atoms: C_4  and  N_5
REMARK    5  A    between atoms: C_4  and  C_28
REMARK    6  A    between atoms: N_5  and  C_6
REMARK    7  A    between atoms: C_6  and  C_7
REMARK    8  A    between atoms: C_10  and  C_11
REMARK    9  A    between atoms: C_11  and  N_12
REMARK   10  A    between atoms: C_13  and  C_15
REMARK   11  A    between atoms: C_22  and  O_23
REMARK   12  A    between atoms: O_23  and  C_24
REMARK                            x       y       z     vdW  Elec       q    Type
REMARK                         _______ _______ _______ _____ _____    ______ ____
ROOT
ATOM      1  C   UNL     1      46.444   7.588  12.341  0.00  0.00    +0.000 A 
ATOM      2  C   UNL     1      47.620   7.094  11.766  0.00  0.00    +0.000 A 
ATOM      3  C   UNL     1      48.862   7.363  12.346  0.00  0.00    +0.000 A 
ATOM      4  C   UNL     1      48.952   8.125  13.518  0.00  0.00    +0.000 A 
ATOM      5  C   UNL     1      47.779   8.648  14.074  0.00  0.00    +0.000 A 
ATOM      6  C   UNL     1      46.537   8.381  13.494  0.00  0.00    +0.000 A 
ENDROOT
BRANCH   1   7
ATOM      7  C   UNL     1      45.095   7.299  11.724  0.00  0.00    +0.000 C 
BRANCH   7   8
ATOM      8  N   UNL     1      45.200   6.413  10.564  0.00  0.00    +0.000 NA
ATOM      9  H   UNL     1      44.605   6.785   9.822  0.00  0.00    +0.000 HD
BRANCH   8  10
ATOM     10  C   UNL     1      44.737   5.027  10.828  0.00  0.00    +0.000 C 
BRANCH  10  11
ATOM     11  C   UNL     1      45.122   4.085   9.692  0.00  0.00    +0.000 A 
ATOM     12  C   UNL     1      45.783   4.590   8.562  0.00  0.00    +0.000 A 
ATOM     13  C   UNL     1      46.258   3.722   7.573  0.00  0.00    +0.000 A 
ATOM     14  C   UNL     1      46.080   2.344   7.702  0.00  0.00    +0.000 A 
ATOM     15  C   UNL     1      45.414   1.831   8.807  0.00  0.00    +0.000 A 
ATOM     16  C   UNL     1      44.928   2.695   9.790  0.00  0.00    +0.000 A 
ENDBRANCH  10  11
BRANCH  10  17
ATOM     17  C   UNL     1      45.124   4.489  12.231  0.00  0.00    +0.000 C 
BRANCH  17  19
ATOM     18  C   UNL     1      42.970   4.736  13.125  0.00  0.00    +0.000 C 
ATOM     19  O   UNL     1      44.029   3.815  12.866  0.00  0.00    +0.000 OA
ENDBRANCH  17  19
ENDBRANCH  10  17
ENDBRANCH   8  10
ENDBRANCH   7   8
ENDBRANCH   1   7
BRANCH   4  20
ATOM     20  C   UNL     1      50.289   8.419  14.144  0.00  0.00    +0.000 C 
BRANCH  20  21
ATOM     21  N   UNL     1      50.181   8.454  15.579  0.00  0.00    +0.000 N 
ATOM     22  C   UNL     1      50.415   7.350  16.354  0.00  0.00    +0.000 C 
ATOM     23  O   UNL     1      50.842   6.297  15.890  0.00  0.00    +0.000 OA
ATOM     24  H   UNL     1      49.692   9.244  15.979  0.00  0.00    +0.000 HD
BRANCH  22  25
ATOM     25  C   UNL     1      50.193   7.528  17.794  0.00  0.00    +0.000 A 
ATOM     26  C   UNL     1      51.065   8.314  18.536  0.00  0.00    +0.000 A 
ATOM     27  S   UNL     1      50.585   8.501  20.161  0.00  0.00    +0.000 S 
ATOM     28  C   UNL     1      49.240   7.488  19.932  0.00  0.00    +0.000 A 
ATOM     29  N   UNL     1      48.404   7.240  20.957  0.00  0.00    +0.000 NA
ATOM     30  C   UNL     1      47.416   6.409  20.625  0.00  0.00    +0.000 A 
ATOM     31  N   UNL     1      47.214   5.818  19.440  0.00  0.00    +0.000 NA
ATOM     32  C   UNL     1      48.081   6.091  18.446  0.00  0.00    +0.000 A 
ATOM     33  C   UNL     1      49.144   6.987  18.642  0.00  0.00    +0.000 A 
BRANCH  32  34
ATOM     34  O   UNL     1      47.917   5.479  17.221  0.00  0.00    +0.000 OA
ATOM     35  C   UNL     1      47.346   4.177  17.292  0.00  0.00    +0.000 C 
ENDBRANCH  32  34
ENDBRANCH  22  25
ENDBRANCH  20  21
ENDBRANCH   4  20
TORSDOF 10
ENDMDL
MODEL 6
REMARK VINA RESULT:    -6.349      1.735      2.684
REMARK INTER + INTRA:         -11.756
REMARK INTER:                 -10.425
REMARK INTRA:                  -1.331
REMARK UNBOUND:                -1.694
REMARK  Name = 
REMARK  12 active torsions:
REMARK  status: ('A' for Active; 'I' for Inactive)
REMARK    1  A    between atoms: C_1  and  O_2
REMARK    2  A    between atoms: O_2  and  C_3
REMARK    3  A    between atoms: C_3  and  C_4
REMARK    4  A    between atoms: C_4  and  N_5
REMARK    5  A    between atoms: C_4  and  C_28
REMARK    6  A    between atoms: N_5  and  C_6
REMARK    7  A    between atoms: C_6  and  C_7
REMARK    8  A    between atoms: C_10  and  C_11
REMARK    9  A    between atoms: C_11  and  N_12
REMARK   10  A    between atoms: C_13  and  C_15
REMARK   11  A    between atoms: C_22  and  O_23
REMARK   12  A    between atoms: O_23  and  C_24
REMARK                            x       y       z     vdW  Elec       q    Type
REMARK                         _______ _______ _______ _____ _____    ______ ____
ROOT
ATOM      1  C   UNL     1      45.521   6.603  11.397  0.00  0.00    +0.000 A 
ATOM      2  C   UNL     1      45.269   7.890  11.885  0.00  0.00    +0.000 A 
ATOM      3  C   UNL     1      46.127   8.477  12.817  0.00  0.00    +0.000 A 
ATOM      4  C   UNL     1      47.261   7.793  13.275  0.00  0.00    +0.000 A 
ATOM      5  C   UNL     1      47.494   6.492  12.813  0.00  0.00    +0.000 A 
ATOM      6  C   UNL     1      46.637   5.903  11.883  0.00  0.00    +0.000 A 
ENDROOT
BRANCH   1   7
ATOM      7  C   UNL     1      44.602   5.960  10.385  0.00  0.00    +0.000 C 
BRANCH   7   8
ATOM      8  N   UNL     1      45.341   5.193   9.382  0.00  0.00    +0.000 NA
ATOM      9  H   UNL     1      45.175   5.618   8.468  0.00  0.00    +0.000 HD
BRANCH   8  10
ATOM     10  C   UNL     1      44.911   3.776   9.277  0.00  0.00    +0.000 C 
BRANCH  10  11
ATOM     11  C   UNL     1      45.748   3.012   8.257  0.00  0.00    +0.000 A 
ATOM     12  C   UNL     1      46.429   3.714   7.250  0.00  0.00    +0.000 A 
ATOM     13  C   UNL     1      47.303   3.044   6.388  0.00  0.00    +0.000 A 
ATOM     14  C   UNL     1      47.508   1.670   6.522  0.00  0.00    +0.000 A 
ATOM     15  C   UNL     1      46.829   0.960   7.504  0.00  0.00    +0.000 A 
ATOM     16  C   UNL     1      45.947   1.623   8.358  0.00  0.00    +0.000 A 
ENDBRANCH  10  11
BRANCH  10  17
ATOM     17  C   UNL     1      44.793   3.050  10.643  0.00  0.00    +0.000 C 
BRANCH  17  19
ATOM     18  C   UNL     1      43.392   2.929  12.519  0.00  0.00    +0.000 C 
ATOM     19  O   UNL     1      43.434   2.972  11.094  0.00  0.00    +0.000 OA
ENDBRANCH  17  19
ENDBRANCH  10  17
ENDBRANCH   8  10
ENDBRANCH   7   8
ENDBRANCH   1   7
BRANCH   4  20
ATOM     20  C   UNL     1      48.186   8.422  14.282  0.00  0.00    +0.000 C 
BRANCH  20  21
ATOM     21  N   UNL     1      48.159   7.690  15.522  0.00  0.00    +0.000 N 
ATOM     22  C   UNL     1      49.128   6.780  15.851  0.00  0.00    +0.000 C 
ATOM     23  O   UNL     1      50.136   6.615  15.170  0.00  0.00    +0.000 OA
ATOM     24  H   UNL     1      47.284   7.684  16.028  0.00  0.00    +0.000 HD
BRANCH  22  25
ATOM     25  C   UNL     1      48.922   6.065  17.115  0.00  0.00    +0.000 A 
ATOM     26  C   UNL     1      48.766   4.685  17.112  0.00  0.00    +0.000 A 
ATOM     27  S   UNL     1      48.657   4.015  18.675  0.00  0.00    +0.000 S 
ATOM     28  C   UNL     1      48.750   5.552  19.394  0.00  0.00    +0.000 A 
ATOM     29  N   UNL     1      48.716   5.671  20.733  0.00  0.00    +0.000 NA
ATOM     30  C   UNL     1      48.772   6.939  21.139  0.00  0.00    +0.000 A 
ATOM     31  N   UNL     1      48.831   8.036  20.373  0.00  0.00    +0.000 NA
ATOM     32  C   UNL     1      48.856   7.868  19.037  0.00  0.00    +0.000 A 
ATOM     33  C   UNL     1      48.849   6.584  18.471  0.00  0.00    +0.000 A 
BRANCH  32  34
ATOM     34  O   UNL     1      48.890   8.978  18.219  0.00  0.00    +0.000 OA
ATOM     35  C   UNL     1      50.172   9.588  18.118  0.00  0.00    +0.000 C 
ENDBRANCH  32  34
ENDBRANCH  22  25
ENDBRANCH  20  21
ENDBRANCH   4  20
TORSDOF 10
ENDMDL
MODEL 7
REMARK VINA RESULT:    -6.263      5.010      6.786
REMARK INTER + INTRA:         -11.619
REMARK INTER:                 -10.092
REMARK INTRA:                  -1.527
REMARK UNBOUND:                -1.694
REMARK  Name = 
REMARK  12 active torsions:
REMARK  status: ('A' for Active; 'I' for Inactive)
REMARK    1  A    between atoms: C_1  and  O_2
REMARK    2  A    between atoms: O_2  and  C_3
REMARK    3  A    between atoms: C_3  and  C_4
REMARK    4  A    between atoms: C_4  and  N_5
REMARK    5  A    between atoms: C_4  and  C_28
REMARK    6  A    between atoms: N_5  and  C_6
REMARK    7  A    between atoms: C_6  and  C_7
REMARK    8  A    between atoms: C_10  and  C_11
REMARK    9  A    between atoms: C_11  and  N_12
REMARK   10  A    between atoms: C_13  and  C_15
REMARK   11  A    between atoms: C_22  and  O_23
REMARK   12  A    between atoms: O_23  and  C_24
REMARK                            x       y       z     vdW  Elec       q    Type
REMARK                         _______ _______ _______ _____ _____    ______ ____
ROOT
ATOM      1  C   UNL     1      47.047   6.209  13.111  0.00  0.00    +0.000 A 
ATOM      2  C   UNL     1      47.451   6.771  11.895  0.00  0.00    +0.000 A 
ATOM      3  C   UNL     1      48.669   7.447  11.796  0.00  0.00    +0.000 A 
ATOM      4  C   UNL     1      49.513   7.567  12.909  0.00  0.00    +0.000 A 
ATOM      5  C   UNL     1      49.092   7.033  14.133  0.00  0.00    +0.000 A 
ATOM      6  C   UNL     1      47.874   6.359  14.234  0.00  0.00    +0.000 A 
ENDROOT
BRANCH   1   7
ATOM      7  C   UNL     1      45.732   5.471  13.228  0.00  0.00    +0.000 C 
BRANCH   7   8
ATOM      8  N   UNL     1      45.659   4.332  12.314  0.00  0.00    +0.000 NA
ATOM      9  H   UNL     1      46.556   4.251  11.831  0.00  0.00    +0.000 HD
BRANCH   8  10
ATOM     10  C   UNL     1      44.620   4.475  11.263  0.00  0.00    +0.000 C 
BRANCH  10  11
ATOM     11  C   UNL     1      45.070   3.856   9.944  0.00  0.00    +0.000 A 
ATOM     12  C   UNL     1      45.621   4.673   8.945  0.00  0.00    +0.000 A 
ATOM     13  C   UNL     1      46.158   4.105   7.784  0.00  0.00    +0.000 A 
ATOM     14  C   UNL     1      46.153   2.721   7.610  0.00  0.00    +0.000 A 
ATOM     15  C   UNL     1      45.596   1.901   8.584  0.00  0.00    +0.000 A 
ATOM     16  C   UNL     1      45.049   2.465   9.737  0.00  0.00    +0.000 A 
ENDBRANCH  10  11
BRANCH  10  17
ATOM     17  C   UNL     1      43.207   4.014  11.707  0.00  0.00    +0.000 C 
BRANCH  17  19
ATOM     18  C   UNL     1      42.719   6.282  11.366  0.00  0.00    +0.000 C 
ATOM     19  O   UNL     1      42.389   5.118  12.121  0.00  0.00    +0.000 OA
ENDBRANCH  17  19
ENDBRANCH  10  17
ENDBRANCH   8  10
ENDBRANCH   7   8
ENDBRANCH   1   7
BRANCH   4  20
ATOM     20  C   UNL     1      50.825   8.297  12.806  0.00  0.00    +0.000 C 
BRANCH  20  21
ATOM     21  N   UNL     1      51.190   8.492  11.427  0.00  0.00    +0.000 N 
ATOM     22  C   UNL     1      52.298   9.209  11.061  0.00  0.00    +0.000 C 
ATOM     23  O   UNL     1      53.110   9.630  11.879  0.00  0.00    +0.000 OA
ATOM     24  H   UNL     1      50.478   8.298  10.736  0.00  0.00    +0.000 HD
BRANCH  22  25
ATOM     25  C   UNL     1      52.494   9.379   9.617  0.00  0.00    +0.000 A 
ATOM     26  C   UNL     1      52.348  10.634   9.042  0.00  0.00    +0.000 A 
ATOM     27  S   UNL     1      52.728  10.663   7.381  0.00  0.00    +0.000 S 
ATOM     28  C   UNL     1      53.036   8.991   7.372  0.00  0.00    +0.000 A 
ATOM     29  N   UNL     1      53.416   8.385   6.233  0.00  0.00    +0.000 NA
ATOM     30  C   UNL     1      53.592   7.072   6.384  0.00  0.00    +0.000 A 
ATOM     31  N   UNL     1      53.409   6.350   7.497  0.00  0.00    +0.000 NA
ATOM     32  C   UNL     1      53.021   6.999   8.610  0.00  0.00    +0.000 A 
ATOM     33  C   UNL     1      52.842   8.392   8.608  0.00  0.00    +0.000 A 
BRANCH  32  34
ATOM     34  O   UNL     1      52.798   6.281   9.767  0.00  0.00    +0.000 OA
ATOM     35  C   UNL     1      53.936   5.570  10.240  0.00  0.00    +0.000 C 
ENDBRANCH  32  34
ENDBRANCH  22  25
ENDBRANCH  20  21
ENDBRANCH   4  20
TORSDOF 10
ENDMDL
MODEL 8
REMARK VINA RESULT:    -6.064      2.290      3.001
REMARK INTER + INTRA:         -11.304
REMARK INTER:                  -9.998
REMARK INTRA:                  -1.306
REMARK UNBOUND:                -1.694
REMARK  Name = 
REMARK  12 active torsions:
REMARK  status: ('A' for Active; 'I' for Inactive)
REMARK    1  A    between atoms: C_1  and  O_2
REMARK    2  A    between atoms: O_2  and  C_3
REMARK    3  A    between atoms: C_3  and  C_4
REMARK    4  A    between atoms: C_4  and  N_5
REMARK    5  A    between atoms: C_4  and  C_28
REMARK    6  A    between atoms: N_5  and  C_6
REMARK    7  A    between atoms: C_6  and  C_7
REMARK    8  A    between atoms: C_10  and  C_11
REMARK    9  A    between atoms: C_11  and  N_12
REMARK   10  A    between atoms: C_13  and  C_15
REMARK   11  A    between atoms: C_22  and  O_23
REMARK   12  A    between atoms: O_23  and  C_24
REMARK                            x       y       z     vdW  Elec       q    Type
REMARK                         _______ _______ _______ _____ _____    ______ ____
ROOT
ATOM      1  C   UNL     1      46.650   6.564  12.400  0.00  0.00    +0.000 A 
ATOM      2  C   UNL     1      45.883   7.683  12.745  0.00  0.00    +0.000 A 
ATOM      3  C   UNL     1      46.491   8.831  13.257  0.00  0.00    +0.000 A 
ATOM      4  C   UNL     1      47.881   8.887  13.427  0.00  0.00    +0.000 A 
ATOM      5  C   UNL     1      48.644   7.756  13.115  0.00  0.00    +0.000 A 
ATOM      6  C   UNL     1      48.037   6.608  12.605  0.00  0.00    +0.000 A 
ENDROOT
BRANCH   1   7
ATOM      7  C   UNL     1      46.002   5.319  11.841  0.00  0.00    +0.000 C 
BRANCH   7   8
ATOM      8  N   UNL     1      45.530   5.514  10.470  0.00  0.00    +0.000 NA
ATOM      9  H   UNL     1      44.917   6.332  10.456  0.00  0.00    +0.000 HD
BRANCH   8  10
ATOM     10  C   UNL     1      44.734   4.376   9.944  0.00  0.00    +0.000 C 
BRANCH  10  11
ATOM     11  C   UNL     1      45.532   3.556   8.936  0.00  0.00    +0.000 A 
ATOM     12  C   UNL     1      45.559   2.157   9.042  0.00  0.00    +0.000 A 
ATOM     13  C   UNL     1      46.177   1.384   8.053  0.00  0.00    +0.000 A 
ATOM     14  C   UNL     1      46.770   1.997   6.949  0.00  0.00    +0.000 A 
ATOM     15  C   UNL     1      46.765   3.382   6.839  0.00  0.00    +0.000 A 
ATOM     16  C   UNL     1      46.160   4.156   7.830  0.00  0.00    +0.000 A 
ENDBRANCH  10  11
BRANCH  10  17
ATOM     17  C   UNL     1      44.064   3.513  11.045  0.00  0.00    +0.000 C 
BRANCH  17  19
ATOM     18  C   UNL     1      42.516   5.108  11.791  0.00  0.00    +0.000 C 
ATOM     19  O   UNL     1      42.672   3.822  11.194  0.00  0.00    +0.000 OA
ENDBRANCH  17  19
ENDBRANCH  10  17
ENDBRANCH   8  10
ENDBRANCH   7   8
ENDBRANCH   1   7
BRANCH   4  20
ATOM     20  C   UNL     1      48.539  10.122  13.982  0.00  0.00    +0.000 C 
BRANCH  20  21
ATOM     21  N   UNL     1      48.732   9.999  15.404  0.00  0.00    +0.000 N 
ATOM     22  C   UNL     1      49.971   9.816  15.957  0.00  0.00    +0.000 C 
ATOM     23  O   UNL     1      51.003   9.862  15.294  0.00  0.00    +0.000 OA
ATOM     24  H   UNL     1      47.910   9.805  15.960  0.00  0.00    +0.000 HD
BRANCH  22  25
ATOM     25  C   UNL     1      49.995   9.636  17.413  0.00  0.00    +0.000 A 
ATOM     26  C   UNL     1      50.637  10.569  18.215  0.00  0.00    +0.000 A 
ATOM     27  S   UNL     1      50.461  10.260  19.882  0.00  0.00    +0.000 S 
ATOM     28  C   UNL     1      49.579   8.840  19.576  0.00  0.00    +0.000 A 
ATOM     29  N   UNL     1      49.124   8.098  20.601  0.00  0.00    +0.000 NA
ATOM     30  C   UNL     1      48.477   7.005  20.197  0.00  0.00    +0.000 A 
ATOM     31  N   UNL     1      48.276   6.597  18.937  0.00  0.00    +0.000 NA
ATOM     32  C   UNL     1      48.757   7.369  17.944  0.00  0.00    +0.000 A 
ATOM     33  C   UNL     1      49.420   8.575  18.223  0.00  0.00    +0.000 A 
BRANCH  32  34
ATOM     34  O   UNL     1      48.591   6.965  16.635  0.00  0.00    +0.000 OA
ATOM     35  C   UNL     1      48.580   5.553  16.459  0.00  0.00    +0.000 C 
ENDBRANCH  32  34
ENDBRANCH  22  25
ENDBRANCH  20  21
ENDBRANCH   4  20
TORSDOF 10
ENDMDL
MODEL 9
REMARK VINA RESULT:    -5.656      3.611      8.130
REMARK INTER + INTRA:         -10.657
REMARK INTER:                  -8.713
REMARK INTRA:                  -1.944
REMARK UNBOUND:                -1.694
REMARK  Name = 
REMARK  12 active torsions:
REMARK  status: ('A' for Active; 'I' for Inactive)
REMARK    1  A    between atoms: C_1  and  O_2
REMARK    2  A    between atoms: O_2  and  C_3
REMARK    3  A    between atoms: C_3  and  C_4
REMARK    4  A    between atoms: C_4  and  N_5
REMARK    5  A    between atoms: C_4  and  C_28
REMARK    6  A    between atoms: N_5  and  C_6
REMARK    7  A    between atoms: C_6  and  C_7
REMARK    8  A    between atoms: C_10  and  C_11
REMARK    9  A    between atoms: C_11  and  N_12
REMARK   10  A    between atoms: C_13  and  C_15
REMARK   11  A    between atoms: C_22  and  O_23
REMARK   12  A    between atoms: O_23  and  C_24
REMARK                            x       y       z     vdW  Elec       q    Type
REMARK                         _______ _______ _______ _____ _____    ______ ____
ROOT
ATOM      1  C   UNL     1      50.942   7.385  16.756  0.00  0.00    +0.000 A 
ATOM      2  C   UNL     1      50.916   7.301  15.359  0.00  0.00    +0.000 A 
ATOM      3  C   UNL     1      49.880   7.891  14.631  0.00  0.00    +0.000 A 
ATOM      4  C   UNL     1      48.853   8.585  15.284  0.00  0.00    +0.000 A 
ATOM      5  C   UNL     1      48.861   8.640  16.683  0.00  0.00    +0.000 A 
ATOM      6  C   UNL     1      49.894   8.049  17.412  0.00  0.00    +0.000 A 
ENDROOT
BRANCH   1   7
ATOM      7  C   UNL     1      52.060   6.754  17.553  0.00  0.00    +0.000 C 
BRANCH   7   8
ATOM      8  N   UNL     1      51.560   5.781  18.524  0.00  0.00    +0.000 NA
ATOM      9  H   UNL     1      52.362   5.341  18.978  0.00  0.00    +0.000 HD
BRANCH   8  10
ATOM     10  C   UNL     1      50.760   4.688  17.916  0.00  0.00    +0.000 C 
BRANCH  10  11
ATOM     11  C   UNL     1      51.564   3.395  17.819  0.00  0.00    +0.000 A 
ATOM     12  C   UNL     1      52.885   3.360  18.293  0.00  0.00    +0.000 A 
ATOM     13  C   UNL     1      53.591   2.153  18.332  0.00  0.00    +0.000 A 
ATOM     14  C   UNL     1      52.987   0.971  17.902  0.00  0.00    +0.000 A 
ATOM     15  C   UNL     1      51.686   0.993  17.416  0.00  0.00    +0.000 A 
ATOM     16  C   UNL     1      50.983   2.198  17.364  0.00  0.00    +0.000 A 
ENDBRANCH  10  11
BRANCH  10  17
ATOM     17  C   UNL     1      49.362   4.496  18.559  0.00  0.00    +0.000 C 
BRANCH  17  19
ATOM     18  C   UNL     1      48.158   5.864  20.034  0.00  0.00    +0.000 C 
ATOM     19  O   UNL     1      49.306   5.030  19.888  0.00  0.00    +0.000 OA
ENDBRANCH  17  19
ENDBRANCH  10  17
ENDBRANCH   8  10
ENDBRANCH   7   8
ENDBRANCH   1   7
BRANCH   4  20
ATOM     20  C   UNL     1      47.734   9.219  14.502  0.00  0.00    +0.000 C 
BRANCH  20  21
ATOM     21  N   UNL     1      46.843   8.213  13.984  0.00  0.00    +0.000 N 
ATOM     22  C   UNL     1      46.691   7.998  12.641  0.00  0.00    +0.000 C 
ATOM     23  O   UNL     1      47.384   8.563  11.799  0.00  0.00    +0.000 OA
ATOM     24  H   UNL     1      46.155   7.841  14.625  0.00  0.00    +0.000 HD
BRANCH  22  25
ATOM     25  C   UNL     1      45.694   6.988  12.270  0.00  0.00    +0.000 A 
ATOM     26  C   UNL     1      44.566   7.360  11.551  0.00  0.00    +0.000 A 
ATOM     27  S   UNL     1      43.582   6.041  11.109  0.00  0.00    +0.000 S 
ATOM     28  C   UNL     1      44.599   4.947  11.920  0.00  0.00    +0.000 A 
ATOM     29  N   UNL     1      44.311   3.634  11.918  0.00  0.00    +0.000 NA
ATOM     30  C   UNL     1      45.187   2.913  12.618  0.00  0.00    +0.000 A 
ATOM     31  N   UNL     1      46.249   3.363  13.299  0.00  0.00    +0.000 NA
ATOM     32  C   UNL     1      46.494   4.687  13.278  0.00  0.00    +0.000 A 
ATOM     33  C   UNL     1      45.678   5.560  12.542  0.00  0.00    +0.000 A 
BRANCH  32  34
ATOM     34  O   UNL     1      47.564   5.186  13.991  0.00  0.00    +0.000 OA
ATOM     35  C   UNL     1      47.583   4.800  15.361  0.00  0.00    +0.000 C 
ENDBRANCH  32  34
ENDBRANCH  22  25
ENDBRANCH  20  21
ENDBRANCH   4  20
TORSDOF 10
ENDMDL
