MODEL 1
REMARK VINA RESULT:    -7.552      0.000      0.000
REMARK INTER + INTRA:         -10.563
REMARK INTER:                 -10.201
REMARK INTRA:                  -0.362
REMARK UNBOUND:                -0.362
REMARK  Name = 
REMARK  7 active torsions:
REMARK  status: ('A' for Active; 'I' for Inactive)
REMARK    1  A    between atoms: N_1  and  C_2
REMARK    2  A    between atoms: C_2  and  C_3
REMARK    3  A    between atoms: C_7  and  C_8
REMARK    4  A    between atoms: C_8  and  O_9
REMARK    5  A    between atoms: O_9  and  C_10
REMARK    6  A    between atoms: C_13  and  S_14
REMARK    7  A    between atoms: S_14  and  N_15
REMARK                            x       y       z     vdW  Elec       q    Type
REMARK                         _______ _______ _______ _____ _____    ______ ____
ROOT
ATOM      1  O   UNL     1      43.695   3.848  10.748  0.00  0.00    +0.000 OA
ENDROOT
BRANCH   1   2
ATOM      2  C   UNL     1      44.505   3.560   9.688  0.00  0.00    +0.000 A 
ATOM      3  C   UNL     1      45.055   4.476   8.791  0.00  0.00    +0.000 A 
ATOM      4  C   UNL     1      45.866   4.022   7.749  0.00  0.00    +0.000 A 
ATOM      5  C   UNL     1      46.091   2.657   7.658  0.00  0.00    +0.000 A 
ATOM      6  N   UNL     1      45.582   1.718   8.502  0.00  0.00    +0.000 NA
ATOM      7  C   UNL     1      44.801   2.209   9.496  0.00  0.00    +0.000 A 
BRANCH   5   8
ATOM      8  S   UNL     1      47.143   2.016   6.358  0.00  0.00    +0.000 S 
ATOM      9  O   UNL     1      47.283   0.592   6.577  0.00  0.00    +0.000 OA
ATOM     10  O   UNL     1      46.679   2.575   5.110  0.00  0.00    +0.000 OA
BRANCH   8  11
ATOM     11  N   UNL     1      48.650   2.715   6.680  0.00  0.00    +0.000 NA
ATOM     12  H   UNL     1      48.602   3.727   6.565  0.00  0.00    +0.000 HD
ATOM     13  H   UNL     1      49.362   2.294   6.082  0.00  0.00    +0.000 HD
ENDBRANCH   8  11
ENDBRANCH   5   8
ENDBRANCH   1   2
BRANCH   1  14
ATOM     14  C   UNL     1      43.616   5.216  11.155  0.00  0.00    +0.000 C 
BRANCH  14  19
ATOM     15  C   UNL     1      46.495   5.193  13.677  0.00  0.00    +0.000 A 
ATOM     16  C   UNL     1      47.296   6.228  13.172  0.00  0.00    +0.000 A 
ATOM     17  C   UNL     1      46.902   6.941  12.040  0.00  0.00    +0.000 A 
ATOM     18  C   UNL     1      45.706   6.627  11.392  0.00  0.00    +0.000 A 
ATOM     19  C   UNL     1      44.883   5.601  11.880  0.00  0.00    +0.000 A 
ATOM     20  C   UNL     1      45.284   4.902  13.030  0.00  0.00    +0.000 A 
BRANCH  15  21
ATOM     21  C   UNL     1      46.914   4.418  14.901  0.00  0.00    +0.000 C 
BRANCH  21  22
ATOM     22  N   UNL     1      47.537   3.144  14.548  0.00  0.00    +0.000 NA
ATOM     23  H   UNL     1      48.098   2.821  15.334  0.00  0.00    +0.000 HD
ATOM     24  H   UNL     1      48.183   3.296  13.776  0.00  0.00    +0.000 HD
ENDBRANCH  21  22
ENDBRANCH  15  21
ENDBRANCH  14  19
ENDBRANCH   1  14
TORSDOF 7
ENDMDL
MODEL 2
REMARK VINA RESULT:    -7.474      3.366      6.755
REMARK INTER + INTRA:         -10.457
REMARK INTER:                  -9.892
REMARK INTRA:                  -0.565
REMARK UNBOUND:                -0.362
REMARK  Name = 
REMARK  7 active torsions:
REMARK  status: ('A' for Active; 'I' for Inactive)
REMARK    1  A    between atoms: N_1  and  C_2
REMARK    2  A    between atoms: C_2  and  C_3
REMARK    3  A    between atoms: C_7  and  C_8
REMARK    4  A    between atoms: C_8  and  O_9
REMARK    5  A    between atoms: O_9  and  C_10
REMARK    6  A    between atoms: C_13  and  S_14
REMARK    7  A    between atoms: S_14  and  N_15
REMARK                            x       y       z     vdW  Elec       q    Type
REMARK                         _______ _______ _______ _____ _____    ______ ____
ROOT
ATOM      1  O   UNL     1      44.236   4.326  10.678  0.00  0.00    +0.000 OA
ENDROOT
BRANCH   1   2
ATOM      2  C   UNL     1      45.213   4.999  11.353  0.00  0.00    +0.000 A 
ATOM      3  C   UNL     1      45.953   6.083  10.880  0.00  0.00    +0.000 A 
ATOM      4  C   UNL     1      46.926   6.665  11.694  0.00  0.00    +0.000 A 
ATOM      5  C   UNL     1      47.111   6.127  12.959  0.00  0.00    +0.000 A 
ATOM      6  N   UNL     1      46.420   5.074  13.474  0.00  0.00    +0.000 NA
ATOM      7  C   UNL     1      45.487   4.543  12.645  0.00  0.00    +0.000 A 
BRANCH   5   8
ATOM      8  S   UNL     1      48.327   6.846  14.060  0.00  0.00    +0.000 S 
ATOM      9  O   UNL     1      47.927   8.214  14.313  0.00  0.00    +0.000 OA
ATOM     10  O   UNL     1      48.572   5.892  15.116  0.00  0.00    +0.000 OA
BRANCH   8  11
ATOM     11  N   UNL     1      49.732   6.909  13.118  0.00  0.00    +0.000 NA
ATOM     12  H   UNL     1      49.766   6.114  12.481  0.00  0.00    +0.000 HD
ATOM     13  H   UNL     1      50.552   6.953  13.724  0.00  0.00    +0.000 HD
ENDBRANCH   8  11
ENDBRANCH   5   8
ENDBRANCH   1   2
BRANCH   1  14
ATOM     14  C   UNL     1      44.203   4.479   9.257  0.00  0.00    +0.000 C 
BRANCH  14  19
ATOM     15  C   UNL     1      46.659   2.650   6.960  0.00  0.00    +0.000 A 
ATOM     16  C   UNL     1      46.580   1.348   7.474  0.00  0.00    +0.000 A 
ATOM     17  C   UNL     1      45.727   1.056   8.539  0.00  0.00    +0.000 A 
ATOM     18  C   UNL     1      44.946   2.063   9.110  0.00  0.00    +0.000 A 
ATOM     19  C   UNL     1      45.001   3.372   8.611  0.00  0.00    +0.000 A 
ATOM     20  C   UNL     1      45.852   3.648   7.529  0.00  0.00    +0.000 A 
BRANCH  15  21
ATOM     21  C   UNL     1      47.577   2.973   5.809  0.00  0.00    +0.000 C 
BRANCH  21  22
ATOM     22  N   UNL     1      48.529   1.893   5.556  0.00  0.00    +0.000 NA
ATOM     23  H   UNL     1      49.275   2.243   4.959  0.00  0.00    +0.000 HD
ATOM     24  H   UNL     1      48.060   1.158   5.030  0.00  0.00    +0.000 HD
ENDBRANCH  21  22
ENDBRANCH  15  21
ENDBRANCH  14  19
ENDBRANCH   1  14
TORSDOF 7
ENDMDL
MODEL 3
REMARK VINA RESULT:    -7.335      1.956      2.584
REMARK INTER + INTRA:         -10.269
REMARK INTER:                  -9.709
REMARK INTRA:                  -0.560
REMARK UNBOUND:                -0.362
REMARK  Name = 
REMARK  7 active torsions:
REMARK  status: ('A' for Active; 'I' for Inactive)
REMARK    1  A    between atoms: N_1  and  C_2
REMARK    2  A    between atoms: C_2  and  C_3
REMARK    3  A    between atoms: C_7  and  C_8
REMARK    4  A    between atoms: C_8  and  O_9
REMARK    5  A    between atoms: O_9  and  C_10
REMARK    6  A    between atoms: C_13  and  S_14
REMARK    7  A    between atoms: S_14  and  N_15
REMARK                            x       y       z     vdW  Elec       q    Type
REMARK                         _______ _______ _______ _____ _____    ______ ____
ROOT
ATOM      1  O   UNL     1      43.963   4.733  10.601  0.00  0.00    +0.000 OA
ENDROOT
BRANCH   1   2
ATOM      2  C   UNL     1      44.657   3.996   9.685  0.00  0.00    +0.000 A 
ATOM      3  C   UNL     1      44.701   2.604   9.601  0.00  0.00    +0.000 A 
ATOM      4  C   UNL     1      45.466   1.995   8.604  0.00  0.00    +0.000 A 
ATOM      5  C   UNL     1      46.156   2.820   7.729  0.00  0.00    +0.000 A 
ATOM      6  N   UNL     1      46.151   4.181   7.763  0.00  0.00    +0.000 NA
ATOM      7  C   UNL     1      45.394   4.724   8.749  0.00  0.00    +0.000 A 
BRANCH   5   8
ATOM      8  S   UNL     1      47.135   2.099   6.415  0.00  0.00    +0.000 S 
ATOM      9  O   UNL     1      47.273   0.687   6.703  0.00  0.00    +0.000 OA
ATOM     10  O   UNL     1      46.613   2.596   5.163  0.00  0.00    +0.000 OA
BRANCH   8  11
ATOM     11  N   UNL     1      48.663   2.797   6.623  0.00  0.00    +0.000 NA
ATOM     12  H   UNL     1      49.136   2.378   7.422  0.00  0.00    +0.000 HD
ATOM     13  H   UNL     1      48.571   3.809   6.716  0.00  0.00    +0.000 HD
ENDBRANCH   8  11
ENDBRANCH   5   8
ENDBRANCH   1   2
BRANCH   1  14
ATOM     14  C   UNL     1      44.260   4.504  11.980  0.00  0.00    +0.000 C 
BRANCH  14  19
ATOM     15  C   UNL     1      46.176   7.739  12.698  0.00  0.00    +0.000 A 
ATOM     16  C   UNL     1      47.308   7.235  13.354  0.00  0.00    +0.000 A 
ATOM     17  C   UNL     1      47.463   5.862  13.545  0.00  0.00    +0.000 A 
ATOM     18  C   UNL     1      46.486   4.974  13.091  0.00  0.00    +0.000 A 
ATOM     19  C   UNL     1      45.348   5.451  12.426  0.00  0.00    +0.000 A 
ATOM     20  C   UNL     1      45.212   6.834  12.226  0.00  0.00    +0.000 A 
BRANCH  15  21
ATOM     21  C   UNL     1      46.001   9.222  12.486  0.00  0.00    +0.000 C 
BRANCH  21  22
ATOM     22  N   UNL     1      44.622   9.644  12.719  0.00  0.00    +0.000 NA
ATOM     23  H   UNL     1      44.459   9.704  13.722  0.00  0.00    +0.000 HD
ATOM     24  H   UNL     1      43.994   8.924  12.368  0.00  0.00    +0.000 HD
ENDBRANCH  21  22
ENDBRANCH  15  21
ENDBRANCH  14  19
ENDBRANCH   1  14
TORSDOF 7
ENDMDL
MODEL 4
REMARK VINA RESULT:    -7.263      3.358      6.566
REMARK INTER + INTRA:         -10.173
REMARK INTER:                  -9.602
REMARK INTRA:                  -0.570
REMARK UNBOUND:                -0.362
REMARK  Name = 
REMARK  7 active torsions:
REMARK  status: ('A' for Active; 'I' for Inactive)
REMARK    1  A    between atoms: N_1  and  C_2
REMARK    2  A    between atoms: C_2  and  C_3
REMARK    3  A    between atoms: C_7  and  C_8
REMARK    4  A    between atoms: C_8  and  O_9
REMARK    5  A    between atoms: O_9  and  C_10
REMARK    6  A    between atoms: C_13  and  S_14
REMARK    7  A    between atoms: S_14  and  N_15
REMARK                            x       y       z     vdW  Elec       q    Type
REMARK                         _______ _______ _______ _____ _____    ______ ____
ROOT
ATOM      1  O   UNL     1      44.823   5.736  10.811  0.00  0.00    +0.000 OA
ENDROOT
BRANCH   1   2
ATOM      2  C   UNL     1      45.553   5.421  11.920  0.00  0.00    +0.000 A 
ATOM      3  C   UNL     1      46.785   5.966  12.285  0.00  0.00    +0.000 A 
ATOM      4  C   UNL     1      47.412   5.534  13.456  0.00  0.00    +0.000 A 
ATOM      5  C   UNL     1      46.766   4.569  14.213  0.00  0.00    +0.000 A 
ATOM      6  N   UNL     1      45.567   4.003  13.907  0.00  0.00    +0.000 NA
ATOM      7  C   UNL     1      44.998   4.454  12.762  0.00  0.00    +0.000 A 
BRANCH   5   8
ATOM      8  S   UNL     1      47.509   3.993  15.737  0.00  0.00    +0.000 S 
ATOM      9  O   UNL     1      46.482   4.022  16.757  0.00  0.00    +0.000 OA
ATOM     10  O   UNL     1      48.273   2.808  15.427  0.00  0.00    +0.000 OA
BRANCH   8  11
ATOM     11  N   UNL     1      48.622   5.208  16.125  0.00  0.00    +0.000 NA
ATOM     12  H   UNL     1      49.569   4.899  15.913  0.00  0.00    +0.000 HD
ATOM     13  H   UNL     1      48.515   5.475  17.104  0.00  0.00    +0.000 HD
ENDBRANCH   8  11
ENDBRANCH   5   8
ENDBRANCH   1   2
BRANCH   1  14
ATOM     14  C   UNL     1      44.135   4.666  10.159  0.00  0.00    +0.000 C 
BRANCH  14  19
ATOM     15  C   UNL     1      45.929   1.927   8.178  0.00  0.00    +0.000 A 
ATOM     16  C   UNL     1      46.706   2.700   7.303  0.00  0.00    +0.000 A 
ATOM     17  C   UNL     1      46.669   4.093   7.365  0.00  0.00    +0.000 A 
ATOM     18  C   UNL     1      45.848   4.734   8.296  0.00  0.00    +0.000 A 
ATOM     19  C   UNL     1      45.067   3.984   9.187  0.00  0.00    +0.000 A 
ATOM     20  C   UNL     1      45.127   2.582   9.125  0.00  0.00    +0.000 A 
BRANCH  15  21
ATOM     21  C   UNL     1      45.966   0.420   8.118  0.00  0.00    +0.000 C 
BRANCH  21  22
ATOM     22  N   UNL     1      47.290  -0.075   7.748  0.00  0.00    +0.000 NA
ATOM     23  H   UNL     1      47.246  -1.086   7.637  0.00  0.00    +0.000 HD
ATOM     24  H   UNL     1      47.934   0.101   8.517  0.00  0.00    +0.000 HD
ENDBRANCH  21  22
ENDBRANCH  15  21
ENDBRANCH  14  19
ENDBRANCH   1  14
TORSDOF 7
ENDMDL
MODEL 5
REMARK VINA RESULT:    -7.056      3.351      6.887
REMARK INTER + INTRA:          -9.893
REMARK INTER:                  -9.565
REMARK INTRA:                  -0.328
REMARK UNBOUND:                -0.362
REMARK  Name = 
REMARK  7 active torsions:
REMARK  status: ('A' for Active; 'I' for Inactive)
REMARK    1  A    between atoms: N_1  and  C_2
REMARK    2  A    between atoms: C_2  and  C_3
REMARK    3  A    between atoms: C_7  and  C_8
REMARK    4  A    between atoms: C_8  and  O_9
REMARK    5  A    between atoms: O_9  and  C_10
REMARK    6  A    between atoms: C_13  and  S_14
REMARK    7  A    between atoms: S_14  and  N_15
REMARK                            x       y       z     vdW  Elec       q    Type
REMARK                         _______ _______ _______ _____ _____    ______ ____
ROOT
ATOM      1  O   UNL     1      45.230   5.815  10.759  0.00  0.00    +0.000 OA
ENDROOT
BRANCH   1   2
ATOM      2  C   UNL     1      45.859   5.547  11.940  0.00  0.00    +0.000 A 
ATOM      3  C   UNL     1      46.905   6.275  12.509  0.00  0.00    +0.000 A 
ATOM      4  C   UNL     1      47.448   5.868  13.728  0.00  0.00    +0.000 A 
ATOM      5  C   UNL     1      46.911   4.739  14.327  0.00  0.00    +0.000 A 
ATOM      6  N   UNL     1      45.893   3.990  13.821  0.00  0.00    +0.000 NA
ATOM      7  C   UNL     1      45.399   4.426  12.635  0.00  0.00    +0.000 A 
BRANCH   5   8
ATOM      8  S   UNL     1      47.549   4.182  15.904  0.00  0.00    +0.000 S 
ATOM      9  O   UNL     1      48.605   5.093  16.291  0.00  0.00    +0.000 OA
ATOM     10  O   UNL     1      46.417   3.889  16.752  0.00  0.00    +0.000 OA
BRANCH   8  11
ATOM     11  N   UNL     1      48.285   2.702  15.539  0.00  0.00    +0.000 NA
ATOM     12  H   UNL     1      48.580   2.686  14.564  0.00  0.00    +0.000 HD
ATOM     13  H   UNL     1      47.649   1.935  15.762  0.00  0.00    +0.000 HD
ENDBRANCH   8  11
ENDBRANCH   5   8
ENDBRANCH   1   2
BRANCH   1  14
ATOM     14  C   UNL     1      44.232   4.888  10.328  0.00  0.00    +0.000 C 
BRANCH  14  19
ATOM     15  C   UNL     1      46.385   3.322   7.578  0.00  0.00    +0.000 A 
ATOM     16  C   UNL     1      46.119   1.960   7.778  0.00  0.00    +0.000 A 
ATOM     17  C   UNL     1      45.235   1.550   8.777  0.00  0.00    +0.000 A 
ATOM     18  C   UNL     1      44.613   2.494   9.596  0.00  0.00    +0.000 A 
ATOM     19  C   UNL     1      44.857   3.862   9.413  0.00  0.00    +0.000 A 
ATOM     20  C   UNL     1      45.735   4.262   8.393  0.00  0.00    +0.000 A 
BRANCH  15  21
ATOM     21  C   UNL     1      47.338   3.773   6.499  0.00  0.00    +0.000 C 
BRANCH  21  22
ATOM     22  N   UNL     1      47.192   2.979   5.281  0.00  0.00    +0.000 NA
ATOM     23  H   UNL     1      47.760   3.393   4.546  0.00  0.00    +0.000 HD
ATOM     24  H   UNL     1      46.225   3.037   4.965  0.00  0.00    +0.000 HD
ENDBRANCH  21  22
ENDBRANCH  15  21
ENDBRANCH  14  19
ENDBRANCH   1  14
TORSDOF 7
ENDMDL
MODEL 6
REMARK VINA RESULT:    -6.787      3.796      7.294
REMARK INTER + INTRA:          -9.530
REMARK INTER:                  -9.313
REMARK INTRA:                  -0.217
REMARK UNBOUND:                -0.362
REMARK  Name = 
REMARK  7 active torsions:
REMARK  status: ('A' for Active; 'I' for Inactive)
REMARK    1  A    between atoms: N_1  and  C_2
REMARK    2  A    between atoms: C_2  and  C_3
REMARK    3  A    between atoms: C_7  and  C_8
REMARK    4  A    between atoms: C_8  and  O_9
REMARK    5  A    between atoms: O_9  and  C_10
REMARK    6  A    between atoms: C_13  and  S_14
REMARK    7  A    between atoms: S_14  and  N_15
REMARK                            x       y       z     vdW  Elec       q    Type
REMARK                         _______ _______ _______ _____ _____    ______ ____
ROOT
ATOM      1  O   UNL     1      46.641   6.029  11.504  0.00  0.00    +0.000 OA
ENDROOT
BRANCH   1   2
ATOM      2  C   UNL     1      46.944   5.718  12.798  0.00  0.00    +0.000 A 
ATOM      3  C   UNL     1      47.872   6.368  13.613  0.00  0.00    +0.000 A 
ATOM      4  C   UNL     1      48.072   5.926  14.921  0.00  0.00    +0.000 A 
ATOM      5  C   UNL     1      47.324   4.843  15.356  0.00  0.00    +0.000 A 
ATOM      6  N   UNL     1      46.407   4.170  14.608  0.00  0.00    +0.000 NA
ATOM      7  C   UNL     1      46.248   4.637  13.345  0.00  0.00    +0.000 A 
BRANCH   5   8
ATOM      8  S   UNL     1      47.519   4.245  17.032  0.00  0.00    +0.000 S 
ATOM      9  O   UNL     1      46.547   3.191  17.232  0.00  0.00    +0.000 OA
ATOM     10  O   UNL     1      48.933   4.062  17.266  0.00  0.00    +0.000 OA
BRANCH   8  11
ATOM     11  N   UNL     1      47.029   5.554  17.985  0.00  0.00    +0.000 NA
ATOM     12  H   UNL     1      46.351   6.124  17.481  0.00  0.00    +0.000 HD
ATOM     13  H   UNL     1      47.844   6.094  18.277  0.00  0.00    +0.000 HD
ENDBRANCH   8  11
ENDBRANCH   5   8
ENDBRANCH   1   2
BRANCH   1  14
ATOM     14  C   UNL     1      45.270   5.921  11.112  0.00  0.00    +0.000 C 
BRANCH  14  19
ATOM     15  C   UNL     1      45.671   3.622   8.079  0.00  0.00    +0.000 A 
ATOM     16  C   UNL     1      44.897   2.523   8.477  0.00  0.00    +0.000 A 
ATOM     17  C   UNL     1      44.233   2.531   9.704  0.00  0.00    +0.000 A 
ATOM     18  C   UNL     1      44.340   3.633  10.554  0.00  0.00    +0.000 A 
ATOM     19  C   UNL     1      45.103   4.748  10.177  0.00  0.00    +0.000 A 
ATOM     20  C   UNL     1      45.752   4.733   8.932  0.00  0.00    +0.000 A 
BRANCH  15  21
ATOM     21  C   UNL     1      46.390   3.621   6.753  0.00  0.00    +0.000 C 
BRANCH  21  22
ATOM     22  N   UNL     1      47.807   3.298   6.906  0.00  0.00    +0.000 NA
ATOM     23  H   UNL     1      48.363   4.063   6.531  0.00  0.00    +0.000 HD
ATOM     24  H   UNL     1      48.021   2.481   6.336  0.00  0.00    +0.000 HD
ENDBRANCH  21  22
ENDBRANCH  15  21
ENDBRANCH  14  19
ENDBRANCH   1  14
TORSDOF 7
ENDMDL
MODEL 7
REMARK VINA RESULT:    -6.377      3.786      5.681
REMARK INTER + INTRA:          -8.976
REMARK INTER:                  -8.552
REMARK INTRA:                  -0.424
REMARK UNBOUND:                -0.362
REMARK  Name = 
REMARK  7 active torsions:
REMARK  status: ('A' for Active; 'I' for Inactive)
REMARK    1  A    between atoms: N_1  and  C_2
REMARK    2  A    between atoms: C_2  and  C_3
REMARK    3  A    between atoms: C_7  and  C_8
REMARK    4  A    between atoms: C_8  and  O_9
REMARK    5  A    between atoms: O_9  and  C_10
REMARK    6  A    between atoms: C_13  and  S_14
REMARK    7  A    between atoms: S_14  and  N_15
REMARK                            x       y       z     vdW  Elec       q    Type
REMARK                         _______ _______ _______ _____ _____    ______ ____
ROOT
ATOM      1  O   UNL     1      48.396   5.793  13.801  0.00  0.00    +0.000 OA
ENDROOT
BRANCH   1   2
ATOM      2  C   UNL     1      47.234   5.591  13.112  0.00  0.00    +0.000 A 
ATOM      3  C   UNL     1      46.793   6.308  12.000  0.00  0.00    +0.000 A 
ATOM      4  C   UNL     1      45.572   5.981  11.406  0.00  0.00    +0.000 A 
ATOM      5  C   UNL     1      44.845   4.939  11.961  0.00  0.00    +0.000 A 
ATOM      6  N   UNL     1      45.225   4.206  13.044  0.00  0.00    +0.000 NA
ATOM      7  C   UNL     1      46.416   4.561  13.585  0.00  0.00    +0.000 A 
BRANCH   5   8
ATOM      8  S   UNL     1      43.284   4.457  11.230  0.00  0.00    +0.000 S 
ATOM      9  O   UNL     1      43.162   3.022  11.376  0.00  0.00    +0.000 OA
ATOM     10  O   UNL     1      42.280   5.382  11.702  0.00  0.00    +0.000 OA
BRANCH   8  11
ATOM     11  N   UNL     1      43.501   4.768   9.580  0.00  0.00    +0.000 NA
ATOM     12  H   UNL     1      43.213   5.720   9.359  0.00  0.00    +0.000 HD
ATOM     13  H   UNL     1      42.995   4.074   9.028  0.00  0.00    +0.000 HD
ENDBRANCH   8  11
ENDBRANCH   5   8
ENDBRANCH   1   2
BRANCH   1  14
ATOM     14  C   UNL     1      48.362   6.741  14.869  0.00  0.00    +0.000 C 
BRANCH  14  19
ATOM     15  C   UNL     1      48.737   4.314  17.804  0.00  0.00    +0.000 A 
ATOM     16  C   UNL     1      49.894   4.817  18.416  0.00  0.00    +0.000 A 
ATOM     17  C   UNL     1      50.537   5.943  17.900  0.00  0.00    +0.000 A 
ATOM     18  C   UNL     1      50.038   6.576  16.760  0.00  0.00    +0.000 A 
ATOM     19  C   UNL     1      48.879   6.098  16.133  0.00  0.00    +0.000 A 
ATOM     20  C   UNL     1      48.233   4.974  16.673  0.00  0.00    +0.000 A 
BRANCH  15  21
ATOM     21  C   UNL     1      48.037   3.099  18.357  0.00  0.00    +0.000 C 
BRANCH  21  22
ATOM     22  N   UNL     1      46.750   2.870  17.703  0.00  0.00    +0.000 NA
ATOM     23  H   UNL     1      46.505   1.886  17.789  0.00  0.00    +0.000 HD
ATOM     24  H   UNL     1      46.851   3.055  16.706  0.00  0.00    +0.000 HD
ENDBRANCH  21  22
ENDBRANCH  15  21
ENDBRANCH  14  19
ENDBRANCH   1  14
TORSDOF 7
ENDMDL
MODEL 8
REMARK VINA RESULT:    -6.373      3.844      5.942
REMARK INTER + INTRA:          -8.971
REMARK INTER:                  -8.609
REMARK INTRA:                  -0.362
REMARK UNBOUND:                -0.362
REMARK  Name = 
REMARK  7 active torsions:
REMARK  status: ('A' for Active; 'I' for Inactive)
REMARK    1  A    between atoms: N_1  and  C_2
REMARK    2  A    between atoms: C_2  and  C_3
REMARK    3  A    between atoms: C_7  and  C_8
REMARK    4  A    between atoms: C_8  and  O_9
REMARK    5  A    between atoms: O_9  and  C_10
REMARK    6  A    between atoms: C_13  and  S_14
REMARK    7  A    between atoms: S_14  and  N_15
REMARK                            x       y       z     vdW  Elec       q    Type
REMARK                         _______ _______ _______ _____ _____    ______ ____
ROOT
ATOM      1  O   UNL     1      47.730   5.153  15.020  0.00  0.00    +0.000 OA
ENDROOT
BRANCH   1   2
ATOM      2  C   UNL     1      46.873   4.893  13.989  0.00  0.00    +0.000 A 
ATOM      3  C   UNL     1      46.215   5.836  13.198  0.00  0.00    +0.000 A 
ATOM      4  C   UNL     1      45.363   5.410  12.178  0.00  0.00    +0.000 A 
ATOM      5  C   UNL     1      45.211   4.044  11.996  0.00  0.00    +0.000 A 
ATOM      6  N   UNL     1      45.825   3.080  12.735  0.00  0.00    +0.000 NA
ATOM      7  C   UNL     1      46.642   3.544  13.713  0.00  0.00    +0.000 A 
BRANCH   5   8
ATOM      8  S   UNL     1      44.150   3.435  10.689  0.00  0.00    +0.000 S 
ATOM      9  O   UNL     1      44.998   2.794   9.706  0.00  0.00    +0.000 OA
ATOM     10  O   UNL     1      43.031   2.769  11.313  0.00  0.00    +0.000 OA
BRANCH   8  11
ATOM     11  N   UNL     1      43.546   4.845   9.973  0.00  0.00    +0.000 NA
ATOM     12  H   UNL     1      42.650   5.095  10.387  0.00  0.00    +0.000 HD
ATOM     13  H   UNL     1      43.482   4.719   8.962  0.00  0.00    +0.000 HD
ENDBRANCH   8  11
ENDBRANCH   5   8
ENDBRANCH   1   2
BRANCH   1  14
ATOM     14  C   UNL     1      47.573   4.374  16.207  0.00  0.00    +0.000 C 
BRANCH  14  19
ATOM     15  C   UNL     1      50.733   2.586  17.418  0.00  0.00    +0.000 A 
ATOM     16  C   UNL     1      51.487   3.672  17.888  0.00  0.00    +0.000 A 
ATOM     17  C   UNL     1      50.972   4.968  17.834  0.00  0.00    +0.000 A 
ATOM     18  C   UNL     1      49.702   5.198  17.303  0.00  0.00    +0.000 A 
ATOM     19  C   UNL     1      48.925   4.130  16.834  0.00  0.00    +0.000 A 
ATOM     20  C   UNL     1      49.448   2.829  16.909  0.00  0.00    +0.000 A 
BRANCH  15  21
ATOM     21  C   UNL     1      51.282   1.183  17.475  0.00  0.00    +0.000 C 
BRANCH  21  22
ATOM     22  N   UNL     1      52.499   1.109  18.280  0.00  0.00    +0.000 NA
ATOM     23  H   UNL     1      53.217   1.687  17.850  0.00  0.00    +0.000 HD
ATOM     24  H   UNL     1      52.849   0.153  18.259  0.00  0.00    +0.000 HD
ENDBRANCH  21  22
ENDBRANCH  15  21
ENDBRANCH  14  19
ENDBRANCH   1  14
TORSDOF 7
ENDMDL
MODEL 9
REMARK VINA RESULT:    -6.020      3.906      5.807
REMARK INTER + INTRA:          -8.494
REMARK INTER:                  -8.126
REMARK INTRA:                  -0.368
REMARK UNBOUND:                -0.362
REMARK  Name = 
REMARK  7 active torsions:
REMARK  status: ('A' for Active; 'I' for Inactive)
REMARK    1  A    between atoms: N_1  and  C_2
REMARK    2  A    between atoms: C_2  and  C_3
REMARK    3  A    between atoms: C_7  and  C_8
REMARK    4  A    between atoms: C_8  and  O_9
REMARK    5  A    between atoms: O_9  and  C_10
REMARK    6  A    between atoms: C_13  and  S_14
REMARK    7  A    between atoms: S_14  and  N_15
REMARK                            x       y       z     vdW  Elec       q    Type
REMARK                         _______ _______ _______ _____ _____    ______ ____
ROOT
ATOM      1  O   UNL     1      47.945   5.333  14.712  0.00  0.00    +0.000 OA
ENDROOT
BRANCH   1   2
ATOM      2  C   UNL     1      47.056   5.035  13.720  0.00  0.00    +0.000 A 
ATOM      3  C   UNL     1      46.580   5.909  12.742  0.00  0.00    +0.000 A 
ATOM      4  C   UNL     1      45.665   5.451  11.792  0.00  0.00    +0.000 A 
ATOM      5  C   UNL     1      45.267   4.125  11.869  0.00  0.00    +0.000 A 
ATOM      6  N   UNL     1      45.697   3.229  12.799  0.00  0.00    +0.000 NA
ATOM      7  C   UNL     1      46.584   3.720  13.699  0.00  0.00    +0.000 A 
BRANCH   5   8
ATOM      8  S   UNL     1      44.114   3.473  10.665  0.00  0.00    +0.000 S 
ATOM      9  O   UNL     1      44.876   2.688   9.716  0.00  0.00    +0.000 OA
ATOM     10  O   UNL     1      42.983   2.944  11.390  0.00  0.00    +0.000 OA
BRANCH   8  11
ATOM     11  N   UNL     1      43.572   4.849   9.842  0.00  0.00    +0.000 NA
ATOM     12  H   UNL     1      43.015   4.580   9.033  0.00  0.00    +0.000 HD
ATOM     13  H   UNL     1      44.368   5.434   9.585  0.00  0.00    +0.000 HD
ENDBRANCH   8  11
ENDBRANCH   5   8
ENDBRANCH   1   2
BRANCH   1  14
ATOM     14  C   UNL     1      47.735   4.713  15.983  0.00  0.00    +0.000 C 
BRANCH  14  19
ATOM     15  C   UNL     1      49.278   5.637  19.361  0.00  0.00    +0.000 A 
ATOM     16  C   UNL     1      50.042   6.758  19.004  0.00  0.00    +0.000 A 
ATOM     17  C   UNL     1      50.044   7.225  17.689  0.00  0.00    +0.000 A 
ATOM     18  C   UNL     1      49.289   6.575  16.711  0.00  0.00    +0.000 A 
ATOM     19  C   UNL     1      48.511   5.456  17.043  0.00  0.00    +0.000 A 
ATOM     20  C   UNL     1      48.506   5.007  18.373  0.00  0.00    +0.000 A 
BRANCH  15  21
ATOM     21  C   UNL     1      49.270   5.127  20.780  0.00  0.00    +0.000 C 
BRANCH  21  22
ATOM     22  N   UNL     1      48.446   3.929  20.921  0.00  0.00    +0.000 NA
ATOM     23  H   UNL     1      48.623   3.511  21.831  0.00  0.00    +0.000 HD
ATOM     24  H   UNL     1      48.741   3.244  20.227  0.00  0.00    +0.000 HD
ENDBRANCH  21  22
ENDBRANCH  15  21
ENDBRANCH  14  19
ENDBRANCH   1  14
TORSDOF 7
ENDMDL
