MODEL 1
REMARK VINA RESULT:    -8.079      0.000      0.000
REMARK INTER + INTRA:         -14.238
REMARK INTER:                 -13.274
REMARK INTRA:                  -0.964
REMARK UNBOUND:                -0.964
REMARK  Name = 
REMARK  13 active torsions:
REMARK  status: ('A' for Active; 'I' for Inactive)
REMARK    1  A    between atoms: C_1  and  N_2
REMARK    2  A    between atoms: N_2  and  C_3
REMARK    3  A    between atoms: N_2  and  C_4
REMARK    4  A    between atoms: C_4  and  C_5
REMARK    5  A    between atoms: C_5  and  C_6
REMARK    6  A    between atoms: C_6  and  C_7
REMARK    7  A    between atoms: N_9  and  C_10
REMARK    8  A    between atoms: C_10  and  C_11
REMARK    9  A    between atoms: C_11  and  C_12
REMARK   10  A    between atoms: C_11  and  C_23
REMARK   11  A    between atoms: C_12  and  O_13
REMARK   12  A    between atoms: O_13  and  C_14
REMARK   13  A    between atoms: C_17  and  C_18
REMARK                            x       y       z     vdW  Elec       q    Type
REMARK                         _______ _______ _______ _____ _____    ______ ____
ROOT
ATOM      1  C   UNL     1      45.288   5.123  11.831  0.00  0.00    +0.000 C 
ENDROOT
BRANCH   1   2
ATOM      2  C   UNL     1      45.898   6.507  12.046  0.00  0.00    +0.000 A 
ATOM      3  C   UNL     1      45.080   7.579  12.423  0.00  0.00    +0.000 A 
ATOM      4  C   UNL     1      45.656   8.835  12.592  0.00  0.00    +0.000 A 
ATOM      5  N   UNL     1      46.965   9.090  12.418  0.00  0.00    +0.000 NA
ATOM      6  C   UNL     1      47.744   8.046  12.065  0.00  0.00    +0.000 A 
ATOM      7  C   UNL     1      47.266   6.757  11.886  0.00  0.00    +0.000 A 
ENDBRANCH   1   2
BRANCH   1   8
ATOM      8  C   UNL     1      44.873   4.412  13.133  0.00  0.00    +0.000 C 
BRANCH   8  11
ATOM      9  C   UNL     1      46.863   4.145  14.558  0.00  0.00    +0.000 C 
ATOM     10  O   UNL     1      47.279   3.183  13.921  0.00  0.00    +0.000 OA
ATOM     11  N   UNL     1      45.690   4.797  14.267  0.00  0.00    +0.000 N 
ATOM     12  H   UNL     1      45.479   5.651  14.782  0.00  0.00    +0.000 HD
BRANCH   9  13
ATOM     13  C   UNL     1      47.626   4.742  15.717  0.00  0.00    +0.000 C 
BRANCH  13  14
ATOM     14  C   UNL     1      47.323   4.012  17.025  0.00  0.00    +0.000 C 
BRANCH  14  15
ATOM     15  C   UNL     1      48.299   2.874  17.372  0.00  0.00    +0.000 C 
BRANCH  15  17
ATOM     16  C   UNL     1      50.273   4.111  18.047  0.00  0.00    +0.000 C 
ATOM     17  N   UNL     1      49.706   3.186  17.057  0.00  0.00    +0.000 NA
ATOM     18  C   UNL     1      50.506   1.957  17.038  0.00  0.00    +0.000 C 
ENDBRANCH  15  17
ENDBRANCH  14  15
ENDBRANCH  13  14
ENDBRANCH   9  13
ENDBRANCH   8  11
ENDBRANCH   1   8
BRANCH   1  19
ATOM     19  C   UNL     1      44.088   5.228  10.872  0.00  0.00    +0.000 C 
BRANCH  19  20
ATOM     20  O   UNL     1      43.774   3.953  10.291  0.00  0.00    +0.000 OA
BRANCH  20  21
ATOM     21  C   UNL     1      44.689   3.470   9.392  0.00  0.00    +0.000 A 
ATOM     22  C   UNL     1      45.100   2.141   9.292  0.00  0.00    +0.000 A 
ATOM     23  C   UNL     1      46.014   1.769   8.310  0.00  0.00    +0.000 A 
ATOM     24  C   UNL     1      46.499   2.745   7.452  0.00  0.00    +0.000 A 
ATOM     25  N   UNL     1      46.142   4.057   7.522  0.00  0.00    +0.000 NA
ATOM     26  C   UNL     1      45.249   4.379   8.497  0.00  0.00    +0.000 A 
BRANCH  24  27
ATOM     27  C   UNL     1      47.453   2.345   6.368  0.00  0.00    +0.000 C 
ATOM     28  N   UNL     1      47.401   3.094   5.225  0.00  0.00    +0.000 N 
ATOM     29  O   UNL     1      48.226   1.403   6.486  0.00  0.00    +0.000 OA
ATOM     30  H   UNL     1      46.740   3.858   5.155  0.00  0.00    +0.000 HD
ATOM     31  H   UNL     1      48.005   2.858   4.450  0.00  0.00    +0.000 HD
ENDBRANCH  24  27
ENDBRANCH  20  21
ENDBRANCH  19  20
ENDBRANCH   1  19
TORSDOF 11
ENDMDL
MODEL 2
REMARK VINA RESULT:    -7.724      0.908      1.508
REMARK INTER + INTRA:         -13.655
REMARK INTER:                 -12.716
REMARK INTRA:                  -0.938
REMARK UNBOUND:                -0.964
REMARK  Name = 
REMARK  13 active torsions:
REMARK  status: ('A' for Active; 'I' for Inactive)
REMARK    1  A    between atoms: C_1  and  N_2
REMARK    2  A    between atoms: N_2  and  C_3
REMARK    3  A    between atoms: N_2  and  C_4
REMARK    4  A    between atoms: C_4  and  C_5
REMARK    5  A    between atoms: C_5  and  C_6
REMARK    6  A    between atoms: C_6  and  C_7
REMARK    7  A    between atoms: N_9  and  C_10
REMARK    8  A    between atoms: C_10  and  C_11
REMARK    9  A    between atoms: C_11  and  C_12
REMARK   10  A    between atoms: C_11  and  C_23
REMARK   11  A    between atoms: C_12  and  O_13
REMARK   12  A    between atoms: O_13  and  C_14
REMARK   13  A    between atoms: C_17  and  C_18
REMARK                            x       y       z     vdW  Elec       q    Type
REMARK                         _______ _______ _______ _____ _____    ______ ____
ROOT
ATOM      1  C   UNL     1      45.457   5.228  11.812  0.00  0.00    +0.000 C 
ENDROOT
BRANCH   1   2
ATOM      2  C   UNL     1      46.069   6.583  12.160  0.00  0.00    +0.000 A 
ATOM      3  C   UNL     1      47.452   6.774  12.047  0.00  0.00    +0.000 A 
ATOM      4  C   UNL     1      47.988   8.011  12.390  0.00  0.00    +0.000 A 
ATOM      5  N   UNL     1      47.257   9.052  12.827  0.00  0.00    +0.000 NA
ATOM      6  C   UNL     1      45.925   8.858  12.922  0.00  0.00    +0.000 A 
ATOM      7  C   UNL     1      45.296   7.667  12.591  0.00  0.00    +0.000 A 
ENDBRANCH   1   2
BRANCH   1   8
ATOM      8  C   UNL     1      45.190   4.328  13.033  0.00  0.00    +0.000 C 
BRANCH   8  11
ATOM      9  C   UNL     1      46.910   4.196  14.790  0.00  0.00    +0.000 C 
ATOM     10  O   UNL     1      47.400   3.168  14.333  0.00  0.00    +0.000 OA
ATOM     11  N   UNL     1      45.818   4.824  14.243  0.00  0.00    +0.000 N 
ATOM     12  H   UNL     1      45.548   5.729  14.624  0.00  0.00    +0.000 HD
BRANCH   9  13
ATOM     13  C   UNL     1      47.487   4.906  15.993  0.00  0.00    +0.000 C 
BRANCH  13  14
ATOM     14  C   UNL     1      48.459   4.011  16.761  0.00  0.00    +0.000 C 
BRANCH  14  15
ATOM     15  C   UNL     1      49.803   4.670  17.115  0.00  0.00    +0.000 C 
BRANCH  15  17
ATOM     16  C   UNL     1      51.566   3.899  18.591  0.00  0.00    +0.000 C 
ATOM     17  N   UNL     1      50.906   3.706  17.294  0.00  0.00    +0.000 NA
ATOM     18  C   UNL     1      50.396   2.333  17.216  0.00  0.00    +0.000 C 
ENDBRANCH  15  17
ENDBRANCH  14  15
ENDBRANCH  13  14
ENDBRANCH   9  13
ENDBRANCH   8  11
ENDBRANCH   1   8
BRANCH   1  19
ATOM     19  C   UNL     1      44.161   5.435  11.006  0.00  0.00    +0.000 C 
BRANCH  19  20
ATOM     20  O   UNL     1      43.738   4.215  10.380  0.00  0.00    +0.000 OA
BRANCH  20  21
ATOM     21  C   UNL     1      44.610   3.682   9.468  0.00  0.00    +0.000 A 
ATOM     22  C   UNL     1      45.293   4.400   8.486  0.00  0.00    +0.000 A 
ATOM     23  C   UNL     1      46.181   3.744   7.638  0.00  0.00    +0.000 A 
ATOM     24  C   UNL     1      46.359   2.377   7.792  0.00  0.00    +0.000 A 
ATOM     25  N   UNL     1      45.702   1.631   8.722  0.00  0.00    +0.000 NA
ATOM     26  C   UNL     1      44.842   2.308   9.529  0.00  0.00    +0.000 A 
BRANCH  24  27
ATOM     27  C   UNL     1      47.343   1.672   6.909  0.00  0.00    +0.000 C 
ATOM     28  N   UNL     1      48.418   2.415   6.506  0.00  0.00    +0.000 N 
ATOM     29  O   UNL     1      47.196   0.508   6.559  0.00  0.00    +0.000 OA
ATOM     30  H   UNL     1      48.501   3.379   6.803  0.00  0.00    +0.000 HD
ATOM     31  H   UNL     1      49.104   2.000   5.891  0.00  0.00    +0.000 HD
ENDBRANCH  24  27
ENDBRANCH  20  21
ENDBRANCH  19  20
ENDBRANCH   1  19
TORSDOF 11
ENDMDL
MODEL 3
REMARK VINA RESULT:    -6.771      2.200      7.365
REMARK INTER + INTRA:         -12.089
REMARK INTER:                 -11.419
REMARK INTRA:                  -0.670
REMARK UNBOUND:                -0.964
REMARK  Name = 
REMARK  13 active torsions:
REMARK  status: ('A' for Active; 'I' for Inactive)
REMARK    1  A    between atoms: C_1  and  N_2
REMARK    2  A    between atoms: N_2  and  C_3
REMARK    3  A    between atoms: N_2  and  C_4
REMARK    4  A    between atoms: C_4  and  C_5
REMARK    5  A    between atoms: C_5  and  C_6
REMARK    6  A    between atoms: C_6  and  C_7
REMARK    7  A    between atoms: N_9  and  C_10
REMARK    8  A    between atoms: C_10  and  C_11
REMARK    9  A    between atoms: C_11  and  C_12
REMARK   10  A    between atoms: C_11  and  C_23
REMARK   11  A    between atoms: C_12  and  O_13
REMARK   12  A    between atoms: O_13  and  C_14
REMARK   13  A    between atoms: C_17  and  C_18
REMARK                            x       y       z     vdW  Elec       q    Type
REMARK                         _______ _______ _______ _____ _____    ______ ____
ROOT
ATOM      1  C   UNL     1      45.007   6.929  11.984  0.00  0.00    +0.000 C 
ENDROOT
BRANCH   1   2
ATOM      2  C   UNL     1      44.936   8.418  11.652  0.00  0.00    +0.000 A 
ATOM      3  C   UNL     1      45.911   9.291  12.150  0.00  0.00    +0.000 A 
ATOM      4  C   UNL     1      45.813  10.646  11.851  0.00  0.00    +0.000 A 
ATOM      5  N   UNL     1      44.832  11.181  11.103  0.00  0.00    +0.000 NA
ATOM      6  C   UNL     1      43.905  10.328  10.621  0.00  0.00    +0.000 A 
ATOM      7  C   UNL     1      43.924   8.962  10.852  0.00  0.00    +0.000 A 
ENDBRANCH   1   2
BRANCH   1   8
ATOM      8  C   UNL     1      43.884   6.090  11.345  0.00  0.00    +0.000 C 
BRANCH   8  11
ATOM      9  C   UNL     1      43.899   3.793  10.458  0.00  0.00    +0.000 C 
ATOM     10  O   UNL     1      43.048   3.404  11.251  0.00  0.00    +0.000 OA
ATOM     11  N   UNL     1      44.389   5.076  10.440  0.00  0.00    +0.000 N 
ATOM     12  H   UNL     1      45.014   5.337   9.678  0.00  0.00    +0.000 HD
BRANCH   9  13
ATOM     13  C   UNL     1      44.476   2.901   9.384  0.00  0.00    +0.000 C 
BRANCH  13  14
ATOM     14  C   UNL     1      44.783   3.683   8.107  0.00  0.00    +0.000 C 
BRANCH  14  15
ATOM     15  C   UNL     1      46.226   3.544   7.594  0.00  0.00    +0.000 C 
BRANCH  15  17
ATOM     16  C   UNL     1      47.119   2.861   5.445  0.00  0.00    +0.000 C 
ATOM     17  N   UNL     1      46.414   2.421   6.656  0.00  0.00    +0.000 NA
ATOM     18  C   UNL     1      47.187   1.350   7.296  0.00  0.00    +0.000 C 
ENDBRANCH  15  17
ENDBRANCH  14  15
ENDBRANCH  13  14
ENDBRANCH   9  13
ENDBRANCH   8  11
ENDBRANCH   1   8
BRANCH   1  19
ATOM     19  C   UNL     1      46.385   6.372  11.585  0.00  0.00    +0.000 C 
BRANCH  19  20
ATOM     20  O   UNL     1      47.399   6.773  12.519  0.00  0.00    +0.000 OA
BRANCH  20  21
ATOM     21  C   UNL     1      47.511   5.996  13.642  0.00  0.00    +0.000 A 
ATOM     22  C   UNL     1      48.172   6.359  14.815  0.00  0.00    +0.000 A 
ATOM     23  C   UNL     1      48.186   5.490  15.902  0.00  0.00    +0.000 A 
ATOM     24  C   UNL     1      47.537   4.270  15.784  0.00  0.00    +0.000 A 
ATOM     25  N   UNL     1      46.895   3.863  14.655  0.00  0.00    +0.000 NA
ATOM     26  C   UNL     1      46.907   4.740  13.614  0.00  0.00    +0.000 A 
BRANCH  24  27
ATOM     27  C   UNL     1      47.514   3.346  16.963  0.00  0.00    +0.000 C 
ATOM     28  N   UNL     1      48.736   2.978  17.453  0.00  0.00    +0.000 N 
ATOM     29  O   UNL     1      46.472   2.935  17.458  0.00  0.00    +0.000 OA
ATOM     30  H   UNL     1      49.579   3.325  17.012  0.00  0.00    +0.000 HD
ATOM     31  H   UNL     1      48.786   2.339  18.234  0.00  0.00    +0.000 HD
ENDBRANCH  24  27
ENDBRANCH  20  21
ENDBRANCH  19  20
ENDBRANCH   1  19
TORSDOF 11
ENDMDL
MODEL 4
REMARK VINA RESULT:    -6.744      1.896      7.964
REMARK INTER + INTRA:         -12.046
REMARK INTER:                 -11.048
REMARK INTRA:                  -0.997
REMARK UNBOUND:                -0.964
REMARK  Name = 
REMARK  13 active torsions:
REMARK  status: ('A' for Active; 'I' for Inactive)
REMARK    1  A    between atoms: C_1  and  N_2
REMARK    2  A    between atoms: N_2  and  C_3
REMARK    3  A    between atoms: N_2  and  C_4
REMARK    4  A    between atoms: C_4  and  C_5
REMARK    5  A    between atoms: C_5  and  C_6
REMARK    6  A    between atoms: C_6  and  C_7
REMARK    7  A    between atoms: N_9  and  C_10
REMARK    8  A    between atoms: C_10  and  C_11
REMARK    9  A    between atoms: C_11  and  C_12
REMARK   10  A    between atoms: C_11  and  C_23
REMARK   11  A    between atoms: C_12  and  O_13
REMARK   12  A    between atoms: O_13  and  C_14
REMARK   13  A    between atoms: C_17  and  C_18
REMARK                            x       y       z     vdW  Elec       q    Type
REMARK                         _______ _______ _______ _____ _____    ______ ____
ROOT
ATOM      1  C   UNL     1      45.624   5.692  13.380  0.00  0.00    +0.000 C 
ENDROOT
BRANCH   1   2
ATOM      2  C   UNL     1      46.375   6.914  12.856  0.00  0.00    +0.000 A 
ATOM      3  C   UNL     1      47.666   6.769  12.334  0.00  0.00    +0.000 A 
ATOM      4  C   UNL     1      48.338   7.901  11.883  0.00  0.00    +0.000 A 
ATOM      5  N   UNL     1      47.823   9.143  11.914  0.00  0.00    +0.000 NA
ATOM      6  C   UNL     1      46.574   9.268  12.410  0.00  0.00    +0.000 A 
ATOM      7  C   UNL     1      45.820   8.199  12.871  0.00  0.00    +0.000 A 
ENDBRANCH   1   2
BRANCH   1   8
ATOM      8  C   UNL     1      44.521   5.181  12.433  0.00  0.00    +0.000 C 
BRANCH   8  11
ATOM      9  C   UNL     1      44.262   3.390  10.764  0.00  0.00    +0.000 C 
ATOM     10  O   UNL     1      43.109   3.143  11.101  0.00  0.00    +0.000 OA
ATOM     11  N   UNL     1      45.041   4.346  11.367  0.00  0.00    +0.000 N 
ATOM     12  H   UNL     1      45.947   4.556  10.950  0.00  0.00    +0.000 HD
BRANCH   9  13
ATOM     13  C   UNL     1      44.940   2.683   9.613  0.00  0.00    +0.000 C 
BRANCH  13  14
ATOM     14  C   UNL     1      44.926   3.534   8.344  0.00  0.00    +0.000 C 
BRANCH  14  15
ATOM     15  C   UNL     1      46.266   3.595   7.590  0.00  0.00    +0.000 C 
BRANCH  15  17
ATOM     16  C   UNL     1      46.987   2.955   5.365  0.00  0.00    +0.000 C 
ATOM     17  N   UNL     1      46.468   2.475   6.652  0.00  0.00    +0.000 NA
ATOM     18  C   UNL     1      47.413   1.505   7.217  0.00  0.00    +0.000 C 
ENDBRANCH  15  17
ENDBRANCH  14  15
ENDBRANCH  13  14
ENDBRANCH   9  13
ENDBRANCH   8  11
ENDBRANCH   1   8
BRANCH   1  19
ATOM     19  C   UNL     1      46.624   4.564  13.695  0.00  0.00    +0.000 C 
BRANCH  19  20
ATOM     20  O   UNL     1      46.367   3.988  14.985  0.00  0.00    +0.000 OA
BRANCH  20  21
ATOM     21  C   UNL     1      47.409   4.035  15.874  0.00  0.00    +0.000 A 
ATOM     22  C   UNL     1      47.746   3.030  16.780  0.00  0.00    +0.000 A 
ATOM     23  C   UNL     1      48.853   3.186  17.610  0.00  0.00    +0.000 A 
ATOM     24  C   UNL     1      49.596   4.354  17.512  0.00  0.00    +0.000 A 
ATOM     25  N   UNL     1      49.297   5.370  16.657  0.00  0.00    +0.000 NA
ATOM     26  C   UNL     1      48.206   5.180  15.866  0.00  0.00    +0.000 A 
BRANCH  24  27
ATOM     27  C   UNL     1      50.812   4.511  18.374  0.00  0.00    +0.000 C 
ATOM     28  N   UNL     1      51.585   3.393  18.519  0.00  0.00    +0.000 N 
ATOM     29  O   UNL     1      51.097   5.567  18.924  0.00  0.00    +0.000 OA
ATOM     30  H   UNL     1      51.313   2.531  18.062  0.00  0.00    +0.000 HD
ATOM     31  H   UNL     1      52.406   3.431  19.107  0.00  0.00    +0.000 HD
ENDBRANCH  24  27
ENDBRANCH  20  21
ENDBRANCH  19  20
ENDBRANCH   1  19
TORSDOF 11
ENDMDL
MODEL 5
REMARK VINA RESULT:    -6.295      3.017      5.763
REMARK INTER + INTRA:         -11.307
REMARK INTER:                  -9.816
REMARK INTRA:                  -1.491
REMARK UNBOUND:                -0.964
REMARK  Name = 
REMARK  13 active torsions:
REMARK  status: ('A' for Active; 'I' for Inactive)
REMARK    1  A    between atoms: C_1  and  N_2
REMARK    2  A    between atoms: N_2  and  C_3
REMARK    3  A    between atoms: N_2  and  C_4
REMARK    4  A    between atoms: C_4  and  C_5
REMARK    5  A    between atoms: C_5  and  C_6
REMARK    6  A    between atoms: C_6  and  C_7
REMARK    7  A    between atoms: N_9  and  C_10
REMARK    8  A    between atoms: C_10  and  C_11
REMARK    9  A    between atoms: C_11  and  C_12
REMARK   10  A    between atoms: C_11  and  C_23
REMARK   11  A    between atoms: C_12  and  O_13
REMARK   12  A    between atoms: O_13  and  C_14
REMARK   13  A    between atoms: C_17  and  C_18
REMARK                            x       y       z     vdW  Elec       q    Type
REMARK                         _______ _______ _______ _____ _____    ______ ____
ROOT
ATOM      1  C   UNL     1      48.607   4.559  17.089  0.00  0.00    +0.000 C 
ENDROOT
BRANCH   1   2
ATOM      2  C   UNL     1      48.543   5.849  17.905  0.00  0.00    +0.000 A 
ATOM      3  C   UNL     1      49.058   7.037  17.373  0.00  0.00    +0.000 A 
ATOM      4  C   UNL     1      49.007   8.195  18.144  0.00  0.00    +0.000 A 
ATOM      5  N   UNL     1      48.487   8.249  19.383  0.00  0.00    +0.000 NA
ATOM      6  C   UNL     1      47.985   7.100  19.880  0.00  0.00    +0.000 A 
ATOM      7  C   UNL     1      47.978   5.900  19.185  0.00  0.00    +0.000 A 
ENDBRANCH   1   2
BRANCH   1   8
ATOM      8  C   UNL     1      48.659   3.279  17.944  0.00  0.00    +0.000 C 
BRANCH   8  11
ATOM      9  C   UNL     1      50.588   1.974  17.144  0.00  0.00    +0.000 C 
ATOM     10  O   UNL     1      50.012   1.613  16.123  0.00  0.00    +0.000 OA
ATOM     11  N   UNL     1      50.006   2.765  18.103  0.00  0.00    +0.000 N 
ATOM     12  H   UNL     1      50.595   3.103  18.864  0.00  0.00    +0.000 HD
BRANCH   9  13
ATOM     13  C   UNL     1      52.025   1.611  17.437  0.00  0.00    +0.000 C 
BRANCH  13  14
ATOM     14  C   UNL     1      52.661   2.585  18.428  0.00  0.00    +0.000 C 
BRANCH  14  15
ATOM     15  C   UNL     1      53.227   3.870  17.800  0.00  0.00    +0.000 C 
BRANCH  15  17
ATOM     16  C   UNL     1      52.109   5.639  19.027  0.00  0.00    +0.000 C 
ATOM     17  N   UNL     1      52.249   4.973  17.726  0.00  0.00    +0.000 NA
ATOM     18  C   UNL     1      52.671   5.959  16.726  0.00  0.00    +0.000 C 
ENDBRANCH  15  17
ENDBRANCH  14  15
ENDBRANCH  13  14
ENDBRANCH   9  13
ENDBRANCH   8  11
ENDBRANCH   1   8
BRANCH   1  19
ATOM     19  C   UNL     1      47.418   4.503  16.112  0.00  0.00    +0.000 C 
BRANCH  19  20
ATOM     20  O   UNL     1      47.790   4.987  14.813  0.00  0.00    +0.000 OA
BRANCH  20  21
ATOM     21  C   UNL     1      46.842   4.845  13.834  0.00  0.00    +0.000 A 
ATOM     22  C   UNL     1      46.234   5.890  13.139  0.00  0.00    +0.000 A 
ATOM     23  C   UNL     1      45.305   5.612  12.139  0.00  0.00    +0.000 A 
ATOM     24  C   UNL     1      45.006   4.286  11.863  0.00  0.00    +0.000 A 
ATOM     25  N   UNL     1      45.559   3.233  12.526  0.00  0.00    +0.000 NA
ATOM     26  C   UNL     1      46.458   3.548  13.497  0.00  0.00    +0.000 A 
BRANCH  24  27
ATOM     27  C   UNL     1      44.038   3.978  10.761  0.00  0.00    +0.000 C 
ATOM     28  N   UNL     1      44.125   4.776   9.655  0.00  0.00    +0.000 N 
ATOM     29  O   UNL     1      43.213   3.077  10.843  0.00  0.00    +0.000 OA
ATOM     30  H   UNL     1      44.810   5.521   9.625  0.00  0.00    +0.000 HD
ATOM     31  H   UNL     1      43.484   4.631   8.888  0.00  0.00    +0.000 HD
ENDBRANCH  24  27
ENDBRANCH  20  21
ENDBRANCH  19  20
ENDBRANCH   1  19
TORSDOF 11
ENDMDL
MODEL 6
REMARK VINA RESULT:    -6.205      3.509      9.262
REMARK INTER + INTRA:         -11.159
REMARK INTER:                  -9.995
REMARK INTRA:                  -1.163
REMARK UNBOUND:                -0.964
REMARK  Name = 
REMARK  13 active torsions:
REMARK  status: ('A' for Active; 'I' for Inactive)
REMARK    1  A    between atoms: C_1  and  N_2
REMARK    2  A    between atoms: N_2  and  C_3
REMARK    3  A    between atoms: N_2  and  C_4
REMARK    4  A    between atoms: C_4  and  C_5
REMARK    5  A    between atoms: C_5  and  C_6
REMARK    6  A    between atoms: C_6  and  C_7
REMARK    7  A    between atoms: N_9  and  C_10
REMARK    8  A    between atoms: C_10  and  C_11
REMARK    9  A    between atoms: C_11  and  C_12
REMARK   10  A    between atoms: C_11  and  C_23
REMARK   11  A    between atoms: C_12  and  O_13
REMARK   12  A    between atoms: O_13  and  C_14
REMARK   13  A    between atoms: C_17  and  C_18
REMARK                            x       y       z     vdW  Elec       q    Type
REMARK                         _______ _______ _______ _____ _____    ______ ____
ROOT
ATOM      1  C   UNL     1      47.733   4.541  17.521  0.00  0.00    +0.000 C 
ENDROOT
BRANCH   1   2
ATOM      2  C   UNL     1      47.975   5.427  18.741  0.00  0.00    +0.000 A 
ATOM      3  C   UNL     1      47.589   6.772  18.714  0.00  0.00    +0.000 A 
ATOM      4  C   UNL     1      47.839   7.564  19.831  0.00  0.00    +0.000 A 
ATOM      5  N   UNL     1      48.434   7.116  20.951  0.00  0.00    +0.000 NA
ATOM      6  C   UNL     1      48.792   5.816  20.968  0.00  0.00    +0.000 A 
ATOM      7  C   UNL     1      48.573   4.945  19.911  0.00  0.00    +0.000 A 
ENDBRANCH   1   2
BRANCH   1   8
ATOM      8  C   UNL     1      48.228   5.150  16.196  0.00  0.00    +0.000 C 
BRANCH   8  11
ATOM      9  C   UNL     1      46.804   4.354  14.352  0.00  0.00    +0.000 C 
ATOM     10  O   UNL     1      47.376   3.271  14.281  0.00  0.00    +0.000 OA
ATOM     11  N   UNL     1      47.160   5.344  15.234  0.00  0.00    +0.000 N 
ATOM     12  H   UNL     1      46.561   6.166  15.295  0.00  0.00    +0.000 HD
BRANCH   9  13
ATOM     13  C   UNL     1      45.611   4.700  13.490  0.00  0.00    +0.000 C 
BRANCH  13  14
ATOM     14  C   UNL     1      45.310   3.595  12.478  0.00  0.00    +0.000 C 
BRANCH  14  15
ATOM     15  C   UNL     1      43.829   3.189  12.386  0.00  0.00    +0.000 C 
BRANCH  15  17
ATOM     16  C   UNL     1      42.562   5.118  11.642  0.00  0.00    +0.000 C 
ATOM     17  N   UNL     1      43.114   3.813  11.257  0.00  0.00    +0.000 NA
ATOM     18  C   UNL     1      44.022   3.995  10.120  0.00  0.00    +0.000 C 
ENDBRANCH  15  17
ENDBRANCH  14  15
ENDBRANCH  13  14
ENDBRANCH   9  13
ENDBRANCH   8  11
ENDBRANCH   1   8
BRANCH   1  19
ATOM     19  C   UNL     1      48.372   3.158  17.747  0.00  0.00    +0.000 C 
BRANCH  19  20
ATOM     20  O   UNL     1      49.408   2.901  16.787  0.00  0.00    +0.000 OA
BRANCH  20  21
ATOM     21  C   UNL     1      50.627   2.554  17.308  0.00  0.00    +0.000 A 
ATOM     22  C   UNL     1      51.203   1.286  17.242  0.00  0.00    +0.000 A 
ATOM     23  C   UNL     1      52.468   1.069  17.783  0.00  0.00    +0.000 A 
ATOM     24  C   UNL     1      53.124   2.134  18.383  0.00  0.00    +0.000 A 
ATOM     25  N   UNL     1      52.595   3.384  18.488  0.00  0.00    +0.000 NA
ATOM     26  C   UNL     1      51.357   3.553  17.949  0.00  0.00    +0.000 A 
BRANCH  24  27
ATOM     27  C   UNL     1      54.501   1.917  18.932  0.00  0.00    +0.000 C 
ATOM     28  N   UNL     1      55.437   2.846  18.569  0.00  0.00    +0.000 N 
ATOM     29  O   UNL     1      54.781   0.968  19.652  0.00  0.00    +0.000 OA
ATOM     30  H   UNL     1      55.175   3.612  17.960  0.00  0.00    +0.000 HD
ATOM     31  H   UNL     1      56.389   2.741  18.890  0.00  0.00    +0.000 HD
ENDBRANCH  24  27
ENDBRANCH  20  21
ENDBRANCH  19  20
ENDBRANCH   1  19
TORSDOF 11
ENDMDL
MODEL 7
REMARK VINA RESULT:    -6.186      2.914      5.703
REMARK INTER + INTRA:         -11.128
REMARK INTER:                  -9.788
REMARK INTRA:                  -1.339
REMARK UNBOUND:                -0.964
REMARK  Name = 
REMARK  13 active torsions:
REMARK  status: ('A' for Active; 'I' for Inactive)
REMARK    1  A    between atoms: C_1  and  N_2
REMARK    2  A    between atoms: N_2  and  C_3
REMARK    3  A    between atoms: N_2  and  C_4
REMARK    4  A    between atoms: C_4  and  C_5
REMARK    5  A    between atoms: C_5  and  C_6
REMARK    6  A    between atoms: C_6  and  C_7
REMARK    7  A    between atoms: N_9  and  C_10
REMARK    8  A    between atoms: C_10  and  C_11
REMARK    9  A    between atoms: C_11  and  C_12
REMARK   10  A    between atoms: C_11  and  C_23
REMARK   11  A    between atoms: C_12  and  O_13
REMARK   12  A    between atoms: O_13  and  C_14
REMARK   13  A    between atoms: C_17  and  C_18
REMARK                            x       y       z     vdW  Elec       q    Type
REMARK                         _______ _______ _______ _____ _____    ______ ____
ROOT
ATOM      1  C   UNL     1      45.686   5.199  12.981  0.00  0.00    +0.000 C 
ENDROOT
BRANCH   1   2
ATOM      2  C   UNL     1      45.181   4.568  11.685  0.00  0.00    +0.000 A 
ATOM      3  C   UNL     1      44.535   3.326  11.719  0.00  0.00    +0.000 A 
ATOM      4  C   UNL     1      44.102   2.762  10.523  0.00  0.00    +0.000 A 
ATOM      5  N   UNL     1      44.263   3.340   9.319  0.00  0.00    +0.000 NA
ATOM      6  C   UNL     1      44.878   4.540   9.301  0.00  0.00    +0.000 A 
ATOM      7  C   UNL     1      45.332   5.188  10.440  0.00  0.00    +0.000 A 
ENDBRANCH   1   2
BRANCH   1   8
ATOM      8  C   UNL     1      46.793   4.390  13.683  0.00  0.00    +0.000 C 
BRANCH   8  11
ATOM      9  C   UNL     1      47.442   3.614  15.928  0.00  0.00    +0.000 C 
ATOM     10  O   UNL     1      48.195   2.750  15.490  0.00  0.00    +0.000 OA
ATOM     11  N   UNL     1      46.697   4.446  15.129  0.00  0.00    +0.000 N 
ATOM     12  H   UNL     1      46.183   5.203  15.577  0.00  0.00    +0.000 HD
BRANCH   9  13
ATOM     13  C   UNL     1      47.282   3.878  17.407  0.00  0.00    +0.000 C 
BRANCH  13  14
ATOM     14  C   UNL     1      48.459   3.322  18.208  0.00  0.00    +0.000 C 
BRANCH  14  15
ATOM     15  C   UNL     1      49.642   4.291  18.376  0.00  0.00    +0.000 C 
BRANCH  15  17
ATOM     16  C   UNL     1      51.423   5.396  17.156  0.00  0.00    +0.000 C 
ATOM     17  N   UNL     1      50.680   4.142  17.338  0.00  0.00    +0.000 NA
ATOM     18  C   UNL     1      51.619   3.078  17.708  0.00  0.00    +0.000 C 
ENDBRANCH  15  17
ENDBRANCH  14  15
ENDBRANCH  13  14
ENDBRANCH   9  13
ENDBRANCH   8  11
ENDBRANCH   1   8
BRANCH   1  19
ATOM     19  C   UNL     1      46.166   6.636  12.706  0.00  0.00    +0.000 C 
BRANCH  19  20
ATOM     20  O   UNL     1      47.122   7.062  13.689  0.00  0.00    +0.000 OA
BRANCH  20  21
ATOM     21  C   UNL     1      48.352   7.421  13.202  0.00  0.00    +0.000 A 
ATOM     22  C   UNL     1      48.675   7.578  11.855  0.00  0.00    +0.000 A 
ATOM     23  C   UNL     1      49.957   7.982  11.490  0.00  0.00    +0.000 A 
ATOM     24  C   UNL     1      50.888   8.214  12.491  0.00  0.00    +0.000 A 
ATOM     25  N   UNL     1      50.627   8.057  13.818  0.00  0.00    +0.000 NA
ATOM     26  C   UNL     1      49.364   7.659  14.132  0.00  0.00    +0.000 A 
BRANCH  24  27
ATOM     27  C   UNL     1      52.258   8.687  12.108  0.00  0.00    +0.000 C 
ATOM     28  N   UNL     1      53.126   7.716  11.694  0.00  0.00    +0.000 N 
ATOM     29  O   UNL     1      52.589   9.864  12.168  0.00  0.00    +0.000 OA
ATOM     30  H   UNL     1      52.825   6.749  11.670  0.00  0.00    +0.000 HD
ATOM     31  H   UNL     1      54.072   7.970  11.444  0.00  0.00    +0.000 HD
ENDBRANCH  24  27
ENDBRANCH  20  21
ENDBRANCH  19  20
ENDBRANCH   1  19
TORSDOF 11
ENDMDL
MODEL 8
REMARK VINA RESULT:    -5.932      2.972      4.863
REMARK INTER + INTRA:         -10.710
REMARK INTER:                  -9.059
REMARK INTRA:                  -1.651
REMARK UNBOUND:                -0.964
REMARK  Name = 
REMARK  13 active torsions:
REMARK  status: ('A' for Active; 'I' for Inactive)
REMARK    1  A    between atoms: C_1  and  N_2
REMARK    2  A    between atoms: N_2  and  C_3
REMARK    3  A    between atoms: N_2  and  C_4
REMARK    4  A    between atoms: C_4  and  C_5
REMARK    5  A    between atoms: C_5  and  C_6
REMARK    6  A    between atoms: C_6  and  C_7
REMARK    7  A    between atoms: N_9  and  C_10
REMARK    8  A    between atoms: C_10  and  C_11
REMARK    9  A    between atoms: C_11  and  C_12
REMARK   10  A    between atoms: C_11  and  C_23
REMARK   11  A    between atoms: C_12  and  O_13
REMARK   12  A    between atoms: O_13  and  C_14
REMARK   13  A    between atoms: C_17  and  C_18
REMARK                            x       y       z     vdW  Elec       q    Type
REMARK                         _______ _______ _______ _____ _____    ______ ____
ROOT
ATOM      1  C   UNL     1      49.518   7.614  13.518  0.00  0.00    +0.000 C 
ENDROOT
BRANCH   1   2
ATOM      2  C   UNL     1      49.091   8.803  12.659  0.00  0.00    +0.000 A 
ATOM      3  C   UNL     1      47.787   9.302  12.756  0.00  0.00    +0.000 A 
ATOM      4  C   UNL     1      47.416  10.372  11.948  0.00  0.00    +0.000 A 
ATOM      5  N   UNL     1      48.239  10.968  11.068  0.00  0.00    +0.000 NA
ATOM      6  C   UNL     1      49.496  10.485  10.991  0.00  0.00    +0.000 A 
ATOM      7  C   UNL     1      49.963   9.432  11.763  0.00  0.00    +0.000 A 
ENDBRANCH   1   2
BRANCH   1   8
ATOM      8  C   UNL     1      50.628   7.942  14.535  0.00  0.00    +0.000 C 
BRANCH   8  11
ATOM      9  C   UNL     1      51.635   6.608  16.343  0.00  0.00    +0.000 C 
ATOM     10  O   UNL     1      52.766   6.700  15.879  0.00  0.00    +0.000 OA
ATOM     11  N   UNL     1      50.525   7.157  15.750  0.00  0.00    +0.000 N 
ATOM     12  H   UNL     1      49.644   7.123  16.262  0.00  0.00    +0.000 HD
BRANCH   9  13
ATOM     13  C   UNL     1      51.348   5.905  17.649  0.00  0.00    +0.000 C 
BRANCH  13  14
ATOM     14  C   UNL     1      51.135   4.405  17.445  0.00  0.00    +0.000 C 
BRANCH  14  15
ATOM     15  C   UNL     1      49.766   3.877  17.908  0.00  0.00    +0.000 C 
BRANCH  15  17
ATOM     16  C   UNL     1      48.558   2.333  16.479  0.00  0.00    +0.000 C 
ATOM     17  N   UNL     1      48.783   3.745  16.815  0.00  0.00    +0.000 NA
ATOM     18  C   UNL     1      47.507   4.354  17.206  0.00  0.00    +0.000 C 
ENDBRANCH  15  17
ENDBRANCH  14  15
ENDBRANCH  13  14
ENDBRANCH   9  13
ENDBRANCH   8  11
ENDBRANCH   1   8
BRANCH   1  19
ATOM     19  C   UNL     1      48.290   7.026  14.238  0.00  0.00    +0.000 C 
BRANCH  19  20
ATOM     20  O   UNL     1      48.214   5.604  14.059  0.00  0.00    +0.000 OA
BRANCH  20  21
ATOM     21  C   UNL     1      47.151   5.156  13.319  0.00  0.00    +0.000 A 
ATOM     22  C   UNL     1      46.461   5.898  12.362  0.00  0.00    +0.000 A 
ATOM     23  C   UNL     1      45.415   5.314  11.652  0.00  0.00    +0.000 A 
ATOM     24  C   UNL     1      45.083   3.995  11.925  0.00  0.00    +0.000 A 
ATOM     25  N   UNL     1      45.714   3.236  12.862  0.00  0.00    +0.000 NA
ATOM     26  C   UNL     1      46.728   3.845  13.536  0.00  0.00    +0.000 A 
BRANCH  24  27
ATOM     27  C   UNL     1      43.985   3.348  11.137  0.00  0.00    +0.000 C 
ATOM     28  N   UNL     1      44.328   2.207  10.467  0.00  0.00    +0.000 N 
ATOM     29  O   UNL     1      42.852   3.810  11.084  0.00  0.00    +0.000 OA
ATOM     30  H   UNL     1      45.278   1.859  10.521  0.00  0.00    +0.000 HD
ATOM     31  H   UNL     1      43.635   1.738   9.901  0.00  0.00    +0.000 HD
ENDBRANCH  24  27
ENDBRANCH  20  21
ENDBRANCH  19  20
ENDBRANCH   1  19
TORSDOF 11
ENDMDL
MODEL 9
REMARK VINA RESULT:    -5.747      3.559      5.216
REMARK INTER + INTRA:         -10.406
REMARK INTER:                  -8.976
REMARK INTRA:                  -1.430
REMARK UNBOUND:                -0.964
REMARK  Name = 
REMARK  13 active torsions:
REMARK  status: ('A' for Active; 'I' for Inactive)
REMARK    1  A    between atoms: C_1  and  N_2
REMARK    2  A    between atoms: N_2  and  C_3
REMARK    3  A    between atoms: N_2  and  C_4
REMARK    4  A    between atoms: C_4  and  C_5
REMARK    5  A    between atoms: C_5  and  C_6
REMARK    6  A    between atoms: C_6  and  C_7
REMARK    7  A    between atoms: N_9  and  C_10
REMARK    8  A    between atoms: C_10  and  C_11
REMARK    9  A    between atoms: C_11  and  C_12
REMARK   10  A    between atoms: C_11  and  C_23
REMARK   11  A    between atoms: C_12  and  O_13
REMARK   12  A    between atoms: O_13  and  C_14
REMARK   13  A    between atoms: C_17  and  C_18
REMARK                            x       y       z     vdW  Elec       q    Type
REMARK                         _______ _______ _______ _____ _____    ______ ____
ROOT
ATOM      1  C   UNL     1      49.656   7.527  14.804  0.00  0.00    +0.000 C 
ENDROOT
BRANCH   1   2
ATOM      2  C   UNL     1      50.536   8.698  14.371  0.00  0.00    +0.000 A 
ATOM      3  C   UNL     1      50.528   9.121  13.037  0.00  0.00    +0.000 A 
ATOM      4  C   UNL     1      51.354  10.177  12.663  0.00  0.00    +0.000 A 
ATOM      5  N   UNL     1      52.169  10.829  13.511  0.00  0.00    +0.000 NA
ATOM      6  C   UNL     1      52.160  10.418  14.796  0.00  0.00    +0.000 A 
ATOM      7  C   UNL     1      51.363   9.386  15.267  0.00  0.00    +0.000 A 
ENDBRANCH   1   2
BRANCH   1   8
ATOM      8  C   UNL     1      48.989   7.718  16.179  0.00  0.00    +0.000 C 
BRANCH   8  11
ATOM      9  C   UNL     1      48.125   6.217  17.929  0.00  0.00    +0.000 C 
ATOM     10  O   UNL     1      48.676   6.836  18.833  0.00  0.00    +0.000 OA
ATOM     11  N   UNL     1      48.236   6.553  16.603  0.00  0.00    +0.000 N 
ATOM     12  H   UNL     1      47.657   6.048  15.933  0.00  0.00    +0.000 HD
BRANCH   9  13
ATOM     13  C   UNL     1      47.226   5.030  18.189  0.00  0.00    +0.000 C 
BRANCH  13  14
ATOM     14  C   UNL     1      47.633   3.822  17.345  0.00  0.00    +0.000 C 
BRANCH  14  15
ATOM     15  C   UNL     1      48.833   3.028  17.889  0.00  0.00    +0.000 C 
BRANCH  15  17
ATOM     16  C   UNL     1      50.953   4.131  17.479  0.00  0.00    +0.000 C 
ATOM     17  N   UNL     1      50.025   3.089  17.022  0.00  0.00    +0.000 NA
ATOM     18  C   UNL     1      50.718   1.796  17.022  0.00  0.00    +0.000 C 
ENDBRANCH  15  17
ENDBRANCH  14  15
ENDBRANCH  13  14
ENDBRANCH   9  13
ENDBRANCH   8  11
ENDBRANCH   1   8
BRANCH   1  19
ATOM     19  C   UNL     1      48.592   7.251  13.726  0.00  0.00    +0.000 C 
BRANCH  19  20
ATOM     20  O   UNL     1      48.276   5.853  13.654  0.00  0.00    +0.000 OA
BRANCH  20  21
ATOM     21  C   UNL     1      47.042   5.549  13.138  0.00  0.00    +0.000 A 
ATOM     22  C   UNL     1      46.407   6.235  12.103  0.00  0.00    +0.000 A 
ATOM     23  C   UNL     1      45.164   5.805  11.646  0.00  0.00    +0.000 A 
ATOM     24  C   UNL     1      44.585   4.696  12.244  0.00  0.00    +0.000 A 
ATOM     25  N   UNL     1      45.156   4.006  13.269  0.00  0.00    +0.000 NA
ATOM     26  C   UNL     1      46.369   4.460  13.689  0.00  0.00    +0.000 A 
BRANCH  24  27
ATOM     27  C   UNL     1      43.266   4.204  11.731  0.00  0.00    +0.000 C 
ATOM     28  N   UNL     1      42.271   5.139  11.659  0.00  0.00    +0.000 N 
ATOM     29  O   UNL     1      43.080   3.039  11.403  0.00  0.00    +0.000 OA
ATOM     30  H   UNL     1      42.454   6.091  11.952  0.00  0.00    +0.000 HD
ATOM     31  H   UNL     1      41.353   4.862  11.342  0.00  0.00    +0.000 HD
ENDBRANCH  24  27
ENDBRANCH  20  21
ENDBRANCH  19  20
ENDBRANCH   1  19
TORSDOF 11
ENDMDL
