MODEL 1
REMARK VINA RESULT:    -6.639      0.000      0.000
REMARK INTER + INTRA:          -9.134
REMARK INTER:                  -8.385
REMARK INTRA:                  -0.749
REMARK UNBOUND:                -0.749
REMARK  Name = 
REMARK  5 active torsions:
REMARK  status: ('A' for Active; 'I' for Inactive)
REMARK    1  A    between atoms: N_1  and  C_2
REMARK    2  A    between atoms: C_2  and  C_3
REMARK    3  A    between atoms: C_3  and  C_4
REMARK    4  A    between atoms: N_13  and  C_14
REMARK    5  A    between atoms: C_14  and  C_15
REMARK                            x       y       z     vdW  Elec       q    Type
REMARK                         _______ _______ _______ _____ _____    ______ ____
ROOT
ATOM      1  C   UNL     1      43.625   5.530  11.029  0.00  0.00    +0.000 C 
ATOM      2  C   UNL     1      43.256   6.826  11.186  0.00  0.00    +0.000 C 
ATOM      3  N   UNL     1      44.163   7.830  11.486  0.00  0.00    +0.000 NA
ATOM      4  C   UNL     1      45.316   7.385  11.924  0.00  0.00    +0.000 C 
ATOM      5  C   UNL     1      46.297   8.302  12.536  0.00  0.00    +0.000 C 
ATOM      6  C   UNL     1      47.385   7.792  13.111  0.00  0.00    +0.000 C 
ATOM      7  C   UNL     1      47.590   6.324  13.091  0.00  0.00    +0.000 C 
ATOM      8  N   UNL     1      46.863   5.452  12.489  0.00  0.00    +0.000 NA
ATOM      9  C   UNL     1      45.766   5.928  11.825  0.00  0.00    +0.000 C 
ATOM     10  N   UNL     1      45.003   5.219  10.889  0.00  0.00    +0.000 N 
ENDROOT
BRANCH   1  11
ATOM     11  C   UNL     1      42.782   4.491  11.766  0.00  0.00    +0.000 C 
BRANCH  11  12
ATOM     12  C   UNL     1      43.460   3.252  12.341  0.00  0.00    +0.000 C 
BRANCH  12  13
ATOM     13  N   UNL     1      43.027   2.076  11.574  0.00  0.00    +0.000 NA
ATOM     14  H   UNL     1      42.081   2.208  11.226  0.00  0.00    +0.000 HD
ATOM     15  H   UNL     1      42.999   1.255  12.185  0.00  0.00    +0.000 HD
ENDBRANCH  12  13
ENDBRANCH  11  12
ENDBRANCH   1  11
BRANCH  10  16
ATOM     16  C   UNL     1      45.571   5.373   9.504  0.00  0.00    +0.000 C 
BRANCH  16  17
ATOM     17  C   UNL     1      45.775   4.070   8.747  0.00  0.00    +0.000 A 
ATOM     18  C   UNL     1      46.547   4.022   7.590  0.00  0.00    +0.000 A 
ATOM     19  C   UNL     1      46.840   2.784   7.020  0.00  0.00    +0.000 A 
ATOM     20  C   UNL     1      46.357   1.624   7.614  0.00  0.00    +0.000 A 
ATOM     21  C   UNL     1      45.581   1.751   8.752  0.00  0.00    +0.000 A 
ATOM     22  N   UNL     1      45.291   2.938   9.334  0.00  0.00    +0.000 NA
ENDBRANCH  16  17
ENDBRANCH  10  16
TORSDOF 5
ENDMDL
MODEL 2
REMARK VINA RESULT:    -6.262      1.263      5.348
REMARK INTER + INTRA:          -8.659
REMARK INTER:                  -8.036
REMARK INTRA:                  -0.623
REMARK UNBOUND:                -0.749
REMARK  Name = 
REMARK  5 active torsions:
REMARK  status: ('A' for Active; 'I' for Inactive)
REMARK    1  A    between atoms: N_1  and  C_2
REMARK    2  A    between atoms: C_2  and  C_3
REMARK    3  A    between atoms: C_3  and  C_4
REMARK    4  A    between atoms: N_13  and  C_14
REMARK    5  A    between atoms: C_14  and  C_15
REMARK                            x       y       z     vdW  Elec       q    Type
REMARK                         _______ _______ _______ _____ _____    ______ ____
ROOT
ATOM      1  C   UNL     1      43.633   5.103  11.666  0.00  0.00    +0.000 C 
ATOM      2  C   UNL     1      43.021   3.893  11.666  0.00  0.00    +0.000 C 
ATOM      3  N   UNL     1      43.511   2.808  10.956  0.00  0.00    +0.000 NA
ATOM      4  C   UNL     1      44.397   3.131  10.045  0.00  0.00    +0.000 C 
ATOM      5  C   UNL     1      44.825   2.154   9.026  0.00  0.00    +0.000 C 
ATOM      6  C   UNL     1      45.602   2.563   8.025  0.00  0.00    +0.000 C 
ATOM      7  C   UNL     1      46.038   3.979   7.984  0.00  0.00    +0.000 C 
ATOM      8  N   UNL     1      45.820   4.879   8.875  0.00  0.00    +0.000 NA
ATOM      9  C   UNL     1      45.080   4.496   9.960  0.00  0.00    +0.000 C 
ATOM     10  N   UNL     1      44.956   5.207  11.159  0.00  0.00    +0.000 N 
ENDROOT
BRANCH   1  11
ATOM     11  C   UNL     1      42.737   6.317  11.429  0.00  0.00    +0.000 C 
BRANCH  11  12
ATOM     12  C   UNL     1      43.369   7.645  11.029  0.00  0.00    +0.000 C 
BRANCH  12  13
ATOM     13  N   UNL     1      42.317   8.670  10.965  0.00  0.00    +0.000 NA
ATOM     14  H   UNL     1      42.594   9.495  11.489  0.00  0.00    +0.000 HD
ATOM     15  H   UNL     1      41.464   8.317  11.409  0.00  0.00    +0.000 HD
ENDBRANCH  12  13
ENDBRANCH  11  12
ENDBRANCH   1  11
BRANCH  10  16
ATOM     16  C   UNL     1      46.055   4.839  12.120  0.00  0.00    +0.000 C 
BRANCH  16  17
ATOM     17  C   UNL     1      47.035   5.959  12.430  0.00  0.00    +0.000 A 
ATOM     18  C   UNL     1      46.991   7.167  11.741  0.00  0.00    +0.000 A 
ATOM     19  C   UNL     1      47.797   8.222  12.166  0.00  0.00    +0.000 A 
ATOM     20  C   UNL     1      48.630   8.048  13.265  0.00  0.00    +0.000 A 
ATOM     21  C   UNL     1      48.635   6.814  13.889  0.00  0.00    +0.000 A 
ATOM     22  N   UNL     1      47.853   5.777  13.506  0.00  0.00    +0.000 NA
ENDBRANCH  16  17
ENDBRANCH  10  16
TORSDOF 5
ENDMDL
MODEL 3
REMARK VINA RESULT:    -6.206      1.325      1.689
REMARK INTER + INTRA:          -8.587
REMARK INTER:                  -8.317
REMARK INTRA:                  -0.271
REMARK UNBOUND:                -0.749
REMARK  Name = 
REMARK  5 active torsions:
REMARK  status: ('A' for Active; 'I' for Inactive)
REMARK    1  A    between atoms: N_1  and  C_2
REMARK    2  A    between atoms: C_2  and  C_3
REMARK    3  A    between atoms: C_3  and  C_4
REMARK    4  A    between atoms: N_13  and  C_14
REMARK    5  A    between atoms: C_14  and  C_15
REMARK                            x       y       z     vdW  Elec       q    Type
REMARK                         _______ _______ _______ _____ _____    ______ ____
ROOT
ATOM      1  C   UNL     1      44.034   4.192  11.137  0.00  0.00    +0.000 C 
ATOM      2  C   UNL     1      42.957   4.986  11.361  0.00  0.00    +0.000 C 
ATOM      3  N   UNL     1      43.023   6.369  11.298  0.00  0.00    +0.000 NA
ATOM      4  C   UNL     1      44.245   6.841  11.336  0.00  0.00    +0.000 C 
ATOM      5  C   UNL     1      44.494   8.280  11.545  0.00  0.00    +0.000 C 
ATOM      6  C   UNL     1      45.744   8.698  11.737  0.00  0.00    +0.000 C 
ATOM      7  C   UNL     1      46.848   7.708  11.704  0.00  0.00    +0.000 C 
ATOM      8  N   UNL     1      46.755   6.459  11.416  0.00  0.00    +0.000 NA
ATOM      9  C   UNL     1      45.499   5.988  11.146  0.00  0.00    +0.000 C 
ATOM     10  N   UNL     1      45.197   4.758  10.551  0.00  0.00    +0.000 N 
ENDROOT
BRANCH   1  11
ATOM     11  C   UNL     1      44.279   3.079  12.154  0.00  0.00    +0.000 C 
BRANCH  11  12
ATOM     12  C   UNL     1      45.630   2.994  12.856  0.00  0.00    +0.000 C 
BRANCH  12  13
ATOM     13  N   UNL     1      45.727   4.088  13.831  0.00  0.00    +0.000 NA
ATOM     14  H   UNL     1      45.311   4.936  13.455  0.00  0.00    +0.000 HD
ATOM     15  H   UNL     1      46.711   4.303  14.013  0.00  0.00    +0.000 HD
ENDBRANCH  12  13
ENDBRANCH  11  12
ENDBRANCH   1  11
BRANCH  10  16
ATOM     16  C   UNL     1      45.182   4.875   9.050  0.00  0.00    +0.000 C 
BRANCH  16  17
ATOM     17  C   UNL     1      45.791   3.694   8.310  0.00  0.00    +0.000 A 
ATOM     18  C   UNL     1      46.728   3.882   7.298  0.00  0.00    +0.000 A 
ATOM     19  C   UNL     1      47.378   2.774   6.760  0.00  0.00    +0.000 A 
ATOM     20  C   UNL     1      47.079   1.504   7.239  0.00  0.00    +0.000 A 
ATOM     21  C   UNL     1      46.124   1.392   8.232  0.00  0.00    +0.000 A 
ATOM     22  N   UNL     1      45.486   2.451   8.783  0.00  0.00    +0.000 NA
ENDBRANCH  16  17
ENDBRANCH  10  16
TORSDOF 5
ENDMDL
MODEL 4
REMARK VINA RESULT:    -5.747      3.013      5.912
REMARK INTER + INTRA:          -8.009
REMARK INTER:                  -7.550
REMARK INTRA:                  -0.459
REMARK UNBOUND:                -0.749
REMARK  Name = 
REMARK  5 active torsions:
REMARK  status: ('A' for Active; 'I' for Inactive)
REMARK    1  A    between atoms: N_1  and  C_2
REMARK    2  A    between atoms: C_2  and  C_3
REMARK    3  A    between atoms: C_3  and  C_4
REMARK    4  A    between atoms: N_13  and  C_14
REMARK    5  A    between atoms: C_14  and  C_15
REMARK                            x       y       z     vdW  Elec       q    Type
REMARK                         _______ _______ _______ _____ _____    ______ ____
ROOT
ATOM      1  C   UNL     1      47.049   4.640  14.233  0.00  0.00    +0.000 C 
ATOM      2  C   UNL     1      46.987   3.351  13.814  0.00  0.00    +0.000 C 
ATOM      3  N   UNL     1      46.069   2.915  12.873  0.00  0.00    +0.000 NA
ATOM      4  C   UNL     1      45.077   3.751  12.677  0.00  0.00    +0.000 C 
ATOM      5  C   UNL     1      43.881   3.340  11.917  0.00  0.00    +0.000 C 
ATOM      6  C   UNL     1      42.831   4.158  11.875  0.00  0.00    +0.000 C 
ATOM      7  C   UNL     1      42.908   5.467  12.567  0.00  0.00    +0.000 C 
ATOM      8  N   UNL     1      43.935   5.968  13.155  0.00  0.00    +0.000 NA
ATOM      9  C   UNL     1      45.065   5.197  13.172  0.00  0.00    +0.000 C 
ATOM     10  N   UNL     1      46.352   5.637  13.500  0.00  0.00    +0.000 N 
ENDROOT
BRANCH   1  11
ATOM     11  C   UNL     1      47.125   4.860  15.742  0.00  0.00    +0.000 C 
BRANCH  11  12
ATOM     12  C   UNL     1      47.703   3.762  16.629  0.00  0.00    +0.000 C 
BRANCH  12  13
ATOM     13  N   UNL     1      46.630   3.226  17.478  0.00  0.00    +0.000 NA
ATOM     14  H   UNL     1      46.690   3.616  18.414  0.00  0.00    +0.000 HD
ATOM     15  H   UNL     1      46.742   2.213  17.578  0.00  0.00    +0.000 HD
ENDBRANCH  12  13
ENDBRANCH  11  12
ENDBRANCH   1  11
BRANCH  10  16
ATOM     16  C   UNL     1      47.064   6.174  12.287  0.00  0.00    +0.000 C 
BRANCH  16  17
ATOM     17  C   UNL     1      47.277   7.679  12.284  0.00  0.00    +0.000 A 
ATOM     18  C   UNL     1      48.541   8.227  12.083  0.00  0.00    +0.000 A 
ATOM     19  C   UNL     1      48.666   9.607  11.926  0.00  0.00    +0.000 A 
ATOM     20  C   UNL     1      47.531  10.408  11.975  0.00  0.00    +0.000 A 
ATOM     21  C   UNL     1      46.311   9.795  12.197  0.00  0.00    +0.000 A 
ATOM     22  N   UNL     1      46.159   8.457  12.339  0.00  0.00    +0.000 NA
ENDBRANCH  16  17
ENDBRANCH  10  16
TORSDOF 5
ENDMDL
MODEL 5
REMARK VINA RESULT:    -5.450      2.954      6.328
REMARK INTER + INTRA:          -7.633
REMARK INTER:                  -7.062
REMARK INTRA:                  -0.571
REMARK UNBOUND:                -0.749
REMARK  Name = 
REMARK  5 active torsions:
REMARK  status: ('A' for Active; 'I' for Inactive)
REMARK    1  A    between atoms: N_1  and  C_2
REMARK    2  A    between atoms: C_2  and  C_3
REMARK    3  A    between atoms: C_3  and  C_4
REMARK    4  A    between atoms: N_13  and  C_14
REMARK    5  A    between atoms: C_14  and  C_15
REMARK                            x       y       z     vdW  Elec       q    Type
REMARK                         _______ _______ _______ _____ _____    ______ ____
ROOT
ATOM      1  C   UNL     1      47.147   6.371  13.193  0.00  0.00    +0.000 C 
ATOM      2  C   UNL     1      46.202   7.331  13.032  0.00  0.00    +0.000 C 
ATOM      3  N   UNL     1      44.867   7.036  12.812  0.00  0.00    +0.000 NA
ATOM      4  C   UNL     1      44.654   5.795  12.446  0.00  0.00    +0.000 C 
ATOM      5  C   UNL     1      43.342   5.375  11.918  0.00  0.00    +0.000 C 
ATOM      6  C   UNL     1      43.212   4.151  11.410  0.00  0.00    +0.000 C 
ATOM      7  C   UNL     1      44.380   3.239  11.420  0.00  0.00    +0.000 C 
ATOM      8  N   UNL     1      45.526   3.460  11.957  0.00  0.00    +0.000 NA
ATOM      9  C   UNL     1      45.695   4.680  12.551  0.00  0.00    +0.000 C 
ATOM     10  N   UNL     1      46.735   5.031  13.421  0.00  0.00    +0.000 N 
ENDROOT
BRANCH   1  11
ATOM     11  C   UNL     1      48.430   6.540  12.384  0.00  0.00    +0.000 C 
BRANCH  11  12
ATOM     12  C   UNL     1      49.520   7.475  12.897  0.00  0.00    +0.000 C 
BRANCH  12  13
ATOM     13  N   UNL     1      49.951   7.016  14.224  0.00  0.00    +0.000 NA
ATOM     14  H   UNL     1      50.619   6.255  14.137  0.00  0.00    +0.000 HD
ATOM     15  H   UNL     1      49.149   6.640  14.738  0.00  0.00    +0.000 HD
ENDBRANCH  12  13
ENDBRANCH  11  12
ENDBRANCH   1  11
BRANCH  10  16
ATOM     16  C   UNL     1      46.385   4.688  14.845  0.00  0.00    +0.000 C 
BRANCH  16  17
ATOM     17  C   UNL     1      47.538   4.148  15.675  0.00  0.00    +0.000 A 
ATOM     18  C   UNL     1      48.143   4.924  16.660  0.00  0.00    +0.000 A 
ATOM     19  C   UNL     1      49.083   4.338  17.504  0.00  0.00    +0.000 A 
ATOM     20  C   UNL     1      49.402   2.994  17.348  0.00  0.00    +0.000 A 
ATOM     21  C   UNL     1      48.775   2.290  16.336  0.00  0.00    +0.000 A 
ATOM     22  N   UNL     1      47.848   2.830  15.510  0.00  0.00    +0.000 NA
ENDBRANCH  16  17
ENDBRANCH  10  16
TORSDOF 5
ENDMDL
MODEL 6
REMARK VINA RESULT:    -4.693      4.777      7.743
REMARK INTER + INTRA:          -6.676
REMARK INTER:                  -6.233
REMARK INTRA:                  -0.444
REMARK UNBOUND:                -0.749
REMARK  Name = 
REMARK  5 active torsions:
REMARK  status: ('A' for Active; 'I' for Inactive)
REMARK    1  A    between atoms: N_1  and  C_2
REMARK    2  A    between atoms: C_2  and  C_3
REMARK    3  A    between atoms: C_3  and  C_4
REMARK    4  A    between atoms: N_13  and  C_14
REMARK    5  A    between atoms: C_14  and  C_15
REMARK                            x       y       z     vdW  Elec       q    Type
REMARK                         _______ _______ _______ _____ _____    ______ ____
ROOT
ATOM      1  C   UNL     1      49.161   6.846  17.948  0.00  0.00    +0.000 C 
ATOM      2  C   UNL     1      50.353   6.576  18.537  0.00  0.00    +0.000 C 
ATOM      3  N   UNL     1      51.082   5.432  18.256  0.00  0.00    +0.000 NA
ATOM      4  C   UNL     1      50.388   4.500  17.649  0.00  0.00    +0.000 C 
ATOM      5  C   UNL     1      50.919   3.130  17.511  0.00  0.00    +0.000 C 
ATOM      6  C   UNL     1      50.124   2.175  17.033  0.00  0.00    +0.000 C 
ATOM      7  C   UNL     1      48.742   2.524  16.626  0.00  0.00    +0.000 C 
ATOM      8  N   UNL     1      48.221   3.698  16.595  0.00  0.00    +0.000 NA
ATOM      9  C   UNL     1      49.016   4.729  17.015  0.00  0.00    +0.000 C 
ATOM     10  N   UNL     1      48.767   6.091  16.812  0.00  0.00    +0.000 N 
ENDROOT
BRANCH   1  11
ATOM     11  C   UNL     1      48.030   7.284  18.876  0.00  0.00    +0.000 C 
BRANCH  11  12
ATOM     12  C   UNL     1      47.323   6.242  19.736  0.00  0.00    +0.000 C 
BRANCH  12  13
ATOM     13  N   UNL     1      46.402   5.473  18.888  0.00  0.00    +0.000 NA
ATOM     14  H   UNL     1      45.439   5.647  19.162  0.00  0.00    +0.000 HD
ATOM     15  H   UNL     1      46.565   4.471  19.020  0.00  0.00    +0.000 HD
ENDBRANCH  12  13
ENDBRANCH  11  12
ENDBRANCH   1  11
BRANCH  10  16
ATOM     16  C   UNL     1      49.331   6.551  15.494  0.00  0.00    +0.000 C 
BRANCH  16  17
ATOM     17  C   UNL     1      48.299   6.775  14.399  0.00  0.00    +0.000 A 
ATOM     18  C   UNL     1      47.864   8.055  14.069  0.00  0.00    +0.000 A 
ATOM     19  C   UNL     1      47.044   8.228  12.956  0.00  0.00    +0.000 A 
ATOM     20  C   UNL     1      46.674   7.123  12.199  0.00  0.00    +0.000 A 
ATOM     21  C   UNL     1      47.129   5.879  12.598  0.00  0.00    +0.000 A 
ATOM     22  N   UNL     1      47.937   5.683  13.666  0.00  0.00    +0.000 NA
ENDBRANCH  16  17
ENDBRANCH  10  16
TORSDOF 5
ENDMDL
MODEL 7
REMARK VINA RESULT:    -4.629      3.819      7.329
REMARK INTER + INTRA:          -6.596
REMARK INTER:                  -5.795
REMARK INTRA:                  -0.801
REMARK UNBOUND:                -0.749
REMARK  Name = 
REMARK  5 active torsions:
REMARK  status: ('A' for Active; 'I' for Inactive)
REMARK    1  A    between atoms: N_1  and  C_2
REMARK    2  A    between atoms: C_2  and  C_3
REMARK    3  A    between atoms: C_3  and  C_4
REMARK    4  A    between atoms: N_13  and  C_14
REMARK    5  A    between atoms: C_14  and  C_15
REMARK                            x       y       z     vdW  Elec       q    Type
REMARK                         _______ _______ _______ _____ _____    ______ ____
ROOT
ATOM      1  C   UNL     1      48.874   7.943  12.587  0.00  0.00    +0.000 C 
ATOM      2  C   UNL     1      47.785   8.626  12.152  0.00  0.00    +0.000 C 
ATOM      3  N   UNL     1      46.490   8.214  12.420  0.00  0.00    +0.000 NA
ATOM      4  C   UNL     1      46.405   6.970  12.826  0.00  0.00    +0.000 C 
ATOM      5  C   UNL     1      45.099   6.287  12.902  0.00  0.00    +0.000 C 
ATOM      6  C   UNL     1      45.068   4.981  13.164  0.00  0.00    +0.000 C 
ATOM      7  C   UNL     1      46.343   4.263  13.401  0.00  0.00    +0.000 C 
ATOM      8  N   UNL     1      47.517   4.781  13.473  0.00  0.00    +0.000 NA
ATOM      9  C   UNL     1      47.601   6.132  13.276  0.00  0.00    +0.000 C 
ATOM     10  N   UNL     1      48.707   6.937  13.575  0.00  0.00    +0.000 N 
ENDROOT
BRANCH   1  11
ATOM     11  C   UNL     1      49.968   7.681  11.554  0.00  0.00    +0.000 C 
BRANCH  11  12
ATOM     12  C   UNL     1      51.317   8.376  11.701  0.00  0.00    +0.000 C 
BRANCH  12  13
ATOM     13  N   UNL     1      51.867   8.065  13.028  0.00  0.00    +0.000 NA
ATOM     14  H   UNL     1      52.702   8.617  13.204  0.00  0.00    +0.000 HD
ATOM     15  H   UNL     1      52.156   7.083  13.061  0.00  0.00    +0.000 HD
ENDBRANCH  12  13
ENDBRANCH  11  12
ENDBRANCH   1  11
BRANCH  10  16
ATOM     16  C   UNL     1      48.651   7.421  14.999  0.00  0.00    +0.000 C 
BRANCH  16  17
ATOM     17  C   UNL     1      49.588   6.703  15.957  0.00  0.00    +0.000 A 
ATOM     18  C   UNL     1      49.129   5.680  16.782  0.00  0.00    +0.000 A 
ATOM     19  C   UNL     1      50.049   4.941  17.523  0.00  0.00    +0.000 A 
ATOM     20  C   UNL     1      51.404   5.239  17.428  0.00  0.00    +0.000 A 
ATOM     21  C   UNL     1      51.784   6.281  16.602  0.00  0.00    +0.000 A 
ATOM     22  N   UNL     1      50.913   7.007  15.861  0.00  0.00    +0.000 NA
ENDBRANCH  16  17
ENDBRANCH  10  16
TORSDOF 5
ENDMDL
MODEL 8
REMARK VINA RESULT:    -4.465      4.022      7.328
REMARK INTER + INTRA:          -6.388
REMARK INTER:                  -5.720
REMARK INTRA:                  -0.668
REMARK UNBOUND:                -0.749
REMARK  Name = 
REMARK  5 active torsions:
REMARK  status: ('A' for Active; 'I' for Inactive)
REMARK    1  A    between atoms: N_1  and  C_2
REMARK    2  A    between atoms: C_2  and  C_3
REMARK    3  A    between atoms: C_3  and  C_4
REMARK    4  A    between atoms: N_13  and  C_14
REMARK    5  A    between atoms: C_14  and  C_15
REMARK                            x       y       z     vdW  Elec       q    Type
REMARK                         _______ _______ _______ _____ _____    ______ ____
ROOT
ATOM      1  C   UNL     1      49.883   8.235  14.492  0.00  0.00    +0.000 C 
ATOM      2  C   UNL     1      49.134   9.326  14.193  0.00  0.00    +0.000 C 
ATOM      3  N   UNL     1      47.786   9.245  13.882  0.00  0.00    +0.000 NA
ATOM      4  C   UNL     1      47.387   8.033  13.580  0.00  0.00    +0.000 C 
ATOM      5  C   UNL     1      46.062   7.802  12.973  0.00  0.00    +0.000 C 
ATOM      6  C   UNL     1      45.756   6.582  12.535  0.00  0.00    +0.000 C 
ATOM      7  C   UNL     1      46.744   5.489  12.700  0.00  0.00    +0.000 C 
ATOM      8  N   UNL     1      47.871   5.554  13.314  0.00  0.00    +0.000 NA
ATOM      9  C   UNL     1      48.207   6.770  13.842  0.00  0.00    +0.000 C 
ATOM     10  N   UNL     1      49.228   7.006  14.771  0.00  0.00    +0.000 N 
ENDROOT
BRANCH   1  11
ATOM     11  C   UNL     1      51.230   8.121  13.783  0.00  0.00    +0.000 C 
BRANCH  11  12
ATOM     12  C   UNL     1      51.338   8.519  12.315  0.00  0.00    +0.000 C 
BRANCH  12  13
ATOM     13  N   UNL     1      50.829   7.417  11.487  0.00  0.00    +0.000 NA
ATOM     14  H   UNL     1      51.145   7.521  10.526  0.00  0.00    +0.000 HD
ATOM     15  H   UNL     1      49.806   7.448  11.461  0.00  0.00    +0.000 HD
ENDBRANCH  12  13
ENDBRANCH  11  12
ENDBRANCH   1  11
BRANCH  10  16
ATOM     16  C   UNL     1      48.724   6.838  16.179  0.00  0.00    +0.000 C 
BRANCH  16  17
ATOM     17  C   UNL     1      48.832   5.426  16.734  0.00  0.00    +0.000 A 
ATOM     18  C   UNL     1      47.725   4.585  16.785  0.00  0.00    +0.000 A 
ATOM     19  C   UNL     1      47.902   3.251  17.148  0.00  0.00    +0.000 A 
ATOM     20  C   UNL     1      49.175   2.786  17.453  0.00  0.00    +0.000 A 
ATOM     21  C   UNL     1      50.226   3.685  17.398  0.00  0.00    +0.000 A 
ATOM     22  N   UNL     1      50.085   4.982  17.037  0.00  0.00    +0.000 NA
ENDBRANCH  16  17
ENDBRANCH  10  16
TORSDOF 5
ENDMDL
MODEL 9
REMARK VINA RESULT:    -4.454      5.042      7.771
REMARK INTER + INTRA:          -6.375
REMARK INTER:                  -5.574
REMARK INTRA:                  -0.801
REMARK UNBOUND:                -0.749
REMARK  Name = 
REMARK  5 active torsions:
REMARK  status: ('A' for Active; 'I' for Inactive)
REMARK    1  A    between atoms: N_1  and  C_2
REMARK    2  A    between atoms: C_2  and  C_3
REMARK    3  A    between atoms: C_3  and  C_4
REMARK    4  A    between atoms: N_13  and  C_14
REMARK    5  A    between atoms: C_14  and  C_15
REMARK                            x       y       z     vdW  Elec       q    Type
REMARK                         _______ _______ _______ _____ _____    ______ ____
ROOT
ATOM      1  C   UNL     1      47.859   5.133  17.472  0.00  0.00    +0.000 C 
ATOM      2  C   UNL     1      47.689   5.411  18.789  0.00  0.00    +0.000 C 
ATOM      3  N   UNL     1      48.745   5.723  19.629  0.00  0.00    +0.000 NA
ATOM      4  C   UNL     1      49.919   5.406  19.140  0.00  0.00    +0.000 C 
ATOM      5  C   UNL     1      51.123   5.420  19.994  0.00  0.00    +0.000 C 
ATOM      6  C   UNL     1      52.266   4.941  19.506  0.00  0.00    +0.000 C 
ATOM      7  C   UNL     1      52.299   4.437  18.112  0.00  0.00    +0.000 C 
ATOM      8  N   UNL     1      51.346   4.487  17.251  0.00  0.00    +0.000 NA
ATOM      9  C   UNL     1      50.166   5.030  17.679  0.00  0.00    +0.000 C 
ATOM     10  N   UNL     1      49.105   5.434  16.860  0.00  0.00    +0.000 N 
ENDROOT
BRANCH   1  11
ATOM     11  C   UNL     1      47.145   3.891  16.943  0.00  0.00    +0.000 C 
BRANCH  11  12
ATOM     12  C   UNL     1      47.874   2.965  15.975  0.00  0.00    +0.000 C 
BRANCH  12  13
ATOM     13  N   UNL     1      47.428   3.264  14.607  0.00  0.00    +0.000 NA
ATOM     14  H   UNL     1      47.012   4.190  14.564  0.00  0.00    +0.000 HD
ATOM     15  H   UNL     1      46.696   2.604  14.330  0.00  0.00    +0.000 HD
ENDBRANCH  12  13
ENDBRANCH  11  12
ENDBRANCH   1  11
BRANCH  10  16
ATOM     16  C   UNL     1      49.285   6.859  16.409  0.00  0.00    +0.000 C 
BRANCH  16  17
ATOM     17  C   UNL     1      48.663   7.187  15.061  0.00  0.00    +0.000 A 
ATOM     18  C   UNL     1      48.251   8.480  14.753  0.00  0.00    +0.000 A 
ATOM     19  C   UNL     1      47.838   8.770  13.454  0.00  0.00    +0.000 A 
ATOM     20  C   UNL     1      47.842   7.765  12.493  0.00  0.00    +0.000 A 
ATOM     21  C   UNL     1      48.248   6.500  12.876  0.00  0.00    +0.000 A 
ATOM     22  N   UNL     1      48.666   6.193  14.127  0.00  0.00    +0.000 NA
ENDBRANCH  16  17
ENDBRANCH  10  16
TORSDOF 5
ENDMDL
