MODEL 1
REMARK VINA RESULT:    -7.417      0.000      0.000
REMARK INTER + INTRA:          -9.298
REMARK INTER:                  -8.718
REMARK INTRA:                  -0.580
REMARK UNBOUND:                -0.580
REMARK  Name = 
REMARK  3 active torsions:
REMARK  status: ('A' for Active; 'I' for Inactive)
REMARK    1  A    between atoms: C_2  and  C_4
REMARK    2  A    between atoms: C_7  and  C_8
REMARK    3  A    between atoms: C_8  and  C_9
REMARK                            x       y       z     vdW  Elec       q    Type
REMARK                         _______ _______ _______ _____ _____    ______ ____
ROOT
ATOM      1  C   UNL     1      46.459   2.465   7.687  0.00  0.00    +0.000 A 
ATOM      2  C   UNL     1      45.644   1.824   8.628  0.00  0.00    +0.000 A 
ATOM      3  C   UNL     1      44.843   2.577   9.496  0.00  0.00    +0.000 A 
ATOM      4  C   UNL     1      44.857   3.980   9.445  0.00  0.00    +0.000 A 
ATOM      5  C   UNL     1      45.681   4.610   8.502  0.00  0.00    +0.000 A 
ATOM      6  C   UNL     1      46.478   3.861   7.631  0.00  0.00    +0.000 A 
ENDROOT
BRANCH   1   8
ATOM      7  N   UNL     1      48.388   2.376   6.208  0.00  0.00    +0.000 N 
ATOM      8  C   UNL     1      47.331   1.700   6.756  0.00  0.00    +0.000 C 
ATOM      9  O   UNL     1      47.142   0.518   6.515  0.00  0.00    +0.000 OA
ATOM     10  H   UNL     1      49.036   1.826   5.657  0.00  0.00    +0.000 HD
ATOM     11  H   UNL     1      48.713   3.256   6.577  0.00  0.00    +0.000 HD
ENDBRANCH   1   8
BRANCH   4  12
ATOM     12  C   UNL     1      44.003   4.812  10.381  0.00  0.00    +0.000 C 
BRANCH  12  13
ATOM     13  C   UNL     1      44.772   5.719  11.317  0.00  0.00    +0.000 A 
ATOM     14  C   UNL     1      44.542   7.104  11.327  0.00  0.00    +0.000 A 
ATOM     15  C   UNL     1      45.267   7.942  12.179  0.00  0.00    +0.000 A 
ATOM     16  C   UNL     1      46.221   7.406  13.042  0.00  0.00    +0.000 A 
ATOM     17  C   UNL     1      46.443   6.030  13.058  0.00  0.00    +0.000 A 
ATOM     18  C   UNL     1      45.727   5.191  12.199  0.00  0.00    +0.000 A 
ENDBRANCH  12  13
ENDBRANCH   4  12
TORSDOF 3
ENDMDL
MODEL 2
REMARK VINA RESULT:    -7.209      3.534      6.372
REMARK INTER + INTRA:          -9.053
REMARK INTER:                  -8.674
REMARK INTRA:                  -0.380
REMARK UNBOUND:                -0.580
REMARK  Name = 
REMARK  3 active torsions:
REMARK  status: ('A' for Active; 'I' for Inactive)
REMARK    1  A    between atoms: C_2  and  C_4
REMARK    2  A    between atoms: C_7  and  C_8
REMARK    3  A    between atoms: C_8  and  C_9
REMARK                            x       y       z     vdW  Elec       q    Type
REMARK                         _______ _______ _______ _____ _____    ______ ____
ROOT
ATOM      1  C   UNL     1      46.119   4.811  12.876  0.00  0.00    +0.000 A 
ATOM      2  C   UNL     1      46.141   5.774  11.860  0.00  0.00    +0.000 A 
ATOM      3  C   UNL     1      45.654   5.463  10.584  0.00  0.00    +0.000 A 
ATOM      4  C   UNL     1      45.152   4.183  10.302  0.00  0.00    +0.000 A 
ATOM      5  C   UNL     1      45.140   3.225  11.327  0.00  0.00    +0.000 A 
ATOM      6  C   UNL     1      45.621   3.534  12.603  0.00  0.00    +0.000 A 
ENDROOT
BRANCH   1   8
ATOM      7  N   UNL     1      47.224   6.321  14.432  0.00  0.00    +0.000 N 
ATOM      8  C   UNL     1      46.636   5.099  14.240  0.00  0.00    +0.000 C 
ATOM      9  O   UNL     1      46.515   4.305  15.160  0.00  0.00    +0.000 OA
ATOM     10  H   UNL     1      47.481   6.552  15.383  0.00  0.00    +0.000 HD
ATOM     11  H   UNL     1      47.111   7.080  13.776  0.00  0.00    +0.000 HD
ENDBRANCH   1   8
BRANCH   4  12
ATOM     12  C   UNL     1      44.627   3.825   8.926  0.00  0.00    +0.000 C 
BRANCH  12  13
ATOM     13  C   UNL     1      45.575   3.014   8.069  0.00  0.00    +0.000 A 
ATOM     14  C   UNL     1      45.893   1.688   8.405  0.00  0.00    +0.000 A 
ATOM     15  C   UNL     1      46.781   0.946   7.623  0.00  0.00    +0.000 A 
ATOM     16  C   UNL     1      47.354   1.514   6.487  0.00  0.00    +0.000 A 
ATOM     17  C   UNL     1      47.030   2.821   6.128  0.00  0.00    +0.000 A 
ATOM     18  C   UNL     1      46.149   3.568   6.916  0.00  0.00    +0.000 A 
ENDBRANCH  12  13
ENDBRANCH   4  12
TORSDOF 3
ENDMDL
MODEL 3
REMARK VINA RESULT:    -7.187      3.498      6.275
REMARK INTER + INTRA:          -9.027
REMARK INTER:                  -8.654
REMARK INTRA:                  -0.373
REMARK UNBOUND:                -0.580
REMARK  Name = 
REMARK  3 active torsions:
REMARK  status: ('A' for Active; 'I' for Inactive)
REMARK    1  A    between atoms: C_2  and  C_4
REMARK    2  A    between atoms: C_7  and  C_8
REMARK    3  A    between atoms: C_8  and  C_9
REMARK                            x       y       z     vdW  Elec       q    Type
REMARK                         _______ _______ _______ _____ _____    ______ ____
ROOT
ATOM      1  C   UNL     1      45.969   4.813  12.642  0.00  0.00    +0.000 A 
ATOM      2  C   UNL     1      46.049   5.766  11.619  0.00  0.00    +0.000 A 
ATOM      3  C   UNL     1      45.625   5.445  10.323  0.00  0.00    +0.000 A 
ATOM      4  C   UNL     1      45.129   4.165  10.029  0.00  0.00    +0.000 A 
ATOM      5  C   UNL     1      45.058   3.218  11.062  0.00  0.00    +0.000 A 
ATOM      6  C   UNL     1      45.477   3.537  12.357  0.00  0.00    +0.000 A 
ENDROOT
BRANCH   1   8
ATOM      7  N   UNL     1      47.008   6.330  14.236  0.00  0.00    +0.000 N 
ATOM      8  C   UNL     1      46.419   5.112  14.028  0.00  0.00    +0.000 C 
ATOM      9  O   UNL     1      46.242   4.330  14.949  0.00  0.00    +0.000 OA
ATOM     10  H   UNL     1      47.219   6.570  15.197  0.00  0.00    +0.000 HD
ATOM     11  H   UNL     1      46.938   7.082  13.567  0.00  0.00    +0.000 HD
ENDBRANCH   1   8
BRANCH   4  12
ATOM     12  C   UNL     1      44.672   3.797   8.632  0.00  0.00    +0.000 C 
BRANCH  12  13
ATOM     13  C   UNL     1      45.672   3.004   7.817  0.00  0.00    +0.000 A 
ATOM     14  C   UNL     1      46.235   3.542   6.649  0.00  0.00    +0.000 A 
ATOM     15  C   UNL     1      47.144   2.802   5.889  0.00  0.00    +0.000 A 
ATOM     16  C   UNL     1      47.512   1.520   6.291  0.00  0.00    +0.000 A 
ATOM     17  C   UNL     1      46.977   0.983   7.461  0.00  0.00    +0.000 A 
ATOM     18  C   UNL     1      46.060   1.717   8.218  0.00  0.00    +0.000 A 
ENDBRANCH  12  13
ENDBRANCH   4  12
TORSDOF 3
ENDMDL
MODEL 4
REMARK VINA RESULT:    -6.774      3.419      6.412
REMARK INTER + INTRA:          -8.542
REMARK INTER:                  -7.983
REMARK INTRA:                  -0.559
REMARK UNBOUND:                -0.580
REMARK  Name = 
REMARK  3 active torsions:
REMARK  status: ('A' for Active; 'I' for Inactive)
REMARK    1  A    between atoms: C_2  and  C_4
REMARK    2  A    between atoms: C_7  and  C_8
REMARK    3  A    between atoms: C_8  and  C_9
REMARK                            x       y       z     vdW  Elec       q    Type
REMARK                         _______ _______ _______ _____ _____    ______ ____
ROOT
ATOM      1  C   UNL     1      45.283   5.460  11.716  0.00  0.00    +0.000 A 
ATOM      2  C   UNL     1      45.977   5.901  10.583  0.00  0.00    +0.000 A 
ATOM      3  C   UNL     1      45.754   5.294   9.340  0.00  0.00    +0.000 A 
ATOM      4  C   UNL     1      44.845   4.231   9.216  0.00  0.00    +0.000 A 
ATOM      5  C   UNL     1      44.160   3.796  10.360  0.00  0.00    +0.000 A 
ATOM      6  C   UNL     1      44.378   4.402  11.601  0.00  0.00    +0.000 A 
ENDROOT
BRANCH   1   8
ATOM      7  N   UNL     1      45.113   7.375  13.208  0.00  0.00    +0.000 N 
ATOM      8  C   UNL     1      45.501   6.071  13.055  0.00  0.00    +0.000 C 
ATOM      9  O   UNL     1      45.968   5.436  13.988  0.00  0.00    +0.000 OA
ATOM     10  H   UNL     1      45.168   7.753  14.145  0.00  0.00    +0.000 HD
ATOM     11  H   UNL     1      44.504   7.835  12.549  0.00  0.00    +0.000 HD
ENDBRANCH   1   8
BRANCH   4  12
ATOM     12  C   UNL     1      44.595   3.558   7.881  0.00  0.00    +0.000 C 
BRANCH  12  13
ATOM     13  C   UNL     1      45.798   2.869   7.274  0.00  0.00    +0.000 A 
ATOM     14  C   UNL     1      46.354   1.729   7.877  0.00  0.00    +0.000 A 
ATOM     15  C   UNL     1      47.476   1.105   7.325  0.00  0.00    +0.000 A 
ATOM     16  C   UNL     1      48.050   1.603   6.157  0.00  0.00    +0.000 A 
ATOM     17  C   UNL     1      47.495   2.720   5.536  0.00  0.00    +0.000 A 
ATOM     18  C   UNL     1      46.378   3.353   6.093  0.00  0.00    +0.000 A 
ENDBRANCH  12  13
ENDBRANCH   4  12
TORSDOF 3
ENDMDL
MODEL 5
REMARK VINA RESULT:    -6.253      3.875      6.507
REMARK INTER + INTRA:          -7.929
REMARK INTER:                  -7.367
REMARK INTRA:                  -0.562
REMARK UNBOUND:                -0.580
REMARK  Name = 
REMARK  3 active torsions:
REMARK  status: ('A' for Active; 'I' for Inactive)
REMARK    1  A    between atoms: C_2  and  C_4
REMARK    2  A    between atoms: C_7  and  C_8
REMARK    3  A    between atoms: C_8  and  C_9
REMARK                            x       y       z     vdW  Elec       q    Type
REMARK                         _______ _______ _______ _____ _____    ______ ____
ROOT
ATOM      1  C   UNL     1      46.646   7.641  12.810  0.00  0.00    +0.000 A 
ATOM      2  C   UNL     1      45.597   8.106  12.008  0.00  0.00    +0.000 A 
ATOM      3  C   UNL     1      44.788   7.199  11.311  0.00  0.00    +0.000 A 
ATOM      4  C   UNL     1      45.025   5.817  11.396  0.00  0.00    +0.000 A 
ATOM      5  C   UNL     1      46.083   5.365  12.200  0.00  0.00    +0.000 A 
ATOM      6  C   UNL     1      46.889   6.268  12.900  0.00  0.00    +0.000 A 
ENDROOT
BRANCH   1   8
ATOM      7  N   UNL     1      47.150   8.903  14.829  0.00  0.00    +0.000 N 
ATOM      8  C   UNL     1      47.533   8.573  13.557  0.00  0.00    +0.000 C 
ATOM      9  O   UNL     1      48.574   8.998  13.079  0.00  0.00    +0.000 OA
ATOM     10  H   UNL     1      47.807   9.453  15.368  0.00  0.00    +0.000 HD
ATOM     11  H   UNL     1      46.449   8.380  15.332  0.00  0.00    +0.000 HD
ENDBRANCH   1   8
BRANCH   4  12
ATOM     12  C   UNL     1      44.166   4.821  10.644  0.00  0.00    +0.000 C 
BRANCH  12  13
ATOM     13  C   UNL     1      44.900   3.985   9.618  0.00  0.00    +0.000 A 
ATOM     14  C   UNL     1      45.640   4.594   8.592  0.00  0.00    +0.000 A 
ATOM     15  C   UNL     1      46.303   3.822   7.634  0.00  0.00    +0.000 A 
ATOM     16  C   UNL     1      46.245   2.431   7.696  0.00  0.00    +0.000 A 
ATOM     17  C   UNL     1      45.533   1.814   8.722  0.00  0.00    +0.000 A 
ATOM     18  C   UNL     1      44.861   2.585   9.675  0.00  0.00    +0.000 A 
ENDBRANCH  12  13
ENDBRANCH   4  12
TORSDOF 3
ENDMDL
MODEL 6
REMARK VINA RESULT:    -5.628      3.250      4.820
REMARK INTER + INTRA:          -7.195
REMARK INTER:                  -6.658
REMARK INTRA:                  -0.537
REMARK UNBOUND:                -0.580
REMARK  Name = 
REMARK  3 active torsions:
REMARK  status: ('A' for Active; 'I' for Inactive)
REMARK    1  A    between atoms: C_2  and  C_4
REMARK    2  A    between atoms: C_7  and  C_8
REMARK    3  A    between atoms: C_8  and  C_9
REMARK                            x       y       z     vdW  Elec       q    Type
REMARK                         _______ _______ _______ _____ _____    ______ ____
ROOT
ATOM      1  C   UNL     1      44.485   4.149  11.509  0.00  0.00    +0.000 A 
ATOM      2  C   UNL     1      44.539   5.263  10.663  0.00  0.00    +0.000 A 
ATOM      3  C   UNL     1      45.064   6.476  11.127  0.00  0.00    +0.000 A 
ATOM      4  C   UNL     1      45.528   6.595  12.447  0.00  0.00    +0.000 A 
ATOM      5  C   UNL     1      45.464   5.473  13.286  0.00  0.00    +0.000 A 
ATOM      6  C   UNL     1      44.945   4.260  12.824  0.00  0.00    +0.000 A 
ENDROOT
BRANCH   1   8
ATOM      7  N   UNL     1      44.526   2.261   9.974  0.00  0.00    +0.000 N 
ATOM      8  C   UNL     1      43.925   2.847  11.056  0.00  0.00    +0.000 C 
ATOM      9  O   UNL     1      42.999   2.303  11.637  0.00  0.00    +0.000 OA
ATOM     10  H   UNL     1      44.209   1.330   9.734  0.00  0.00    +0.000 HD
ATOM     11  H   UNL     1      45.432   2.551   9.640  0.00  0.00    +0.000 HD
ENDBRANCH   1   8
BRANCH   4  12
ATOM     12  C   UNL     1      46.093   7.901  12.970  0.00  0.00    +0.000 C 
BRANCH  12  13
ATOM     13  C   UNL     1      47.454   8.276  12.424  0.00  0.00    +0.000 A 
ATOM     14  C   UNL     1      48.449   7.303  12.242  0.00  0.00    +0.000 A 
ATOM     15  C   UNL     1      49.711   7.654  11.755  0.00  0.00    +0.000 A 
ATOM     16  C   UNL     1      49.991   8.980  11.430  0.00  0.00    +0.000 A 
ATOM     17  C   UNL     1      49.005   9.952  11.584  0.00  0.00    +0.000 A 
ATOM     18  C   UNL     1      47.745   9.605  12.082  0.00  0.00    +0.000 A 
ENDBRANCH  12  13
ENDBRANCH   4  12
TORSDOF 3
ENDMDL
MODEL 7
REMARK VINA RESULT:    -5.218      4.082      5.406
REMARK INTER + INTRA:          -6.713
REMARK INTER:                  -6.245
REMARK INTRA:                  -0.468
REMARK UNBOUND:                -0.580
REMARK  Name = 
REMARK  3 active torsions:
REMARK  status: ('A' for Active; 'I' for Inactive)
REMARK    1  A    between atoms: C_2  and  C_4
REMARK    2  A    between atoms: C_7  and  C_8
REMARK    3  A    between atoms: C_8  and  C_9
REMARK                            x       y       z     vdW  Elec       q    Type
REMARK                         _______ _______ _______ _____ _____    ______ ____
ROOT
ATOM      1  C   UNL     1      44.513   4.932  12.010  0.00  0.00    +0.000 A 
ATOM      2  C   UNL     1      45.134   4.650  13.232  0.00  0.00    +0.000 A 
ATOM      3  C   UNL     1      46.393   5.192  13.525  0.00  0.00    +0.000 A 
ATOM      4  C   UNL     1      47.052   6.011  12.594  0.00  0.00    +0.000 A 
ATOM      5  C   UNL     1      46.420   6.282  11.371  0.00  0.00    +0.000 A 
ATOM      6  C   UNL     1      45.163   5.746  11.079  0.00  0.00    +0.000 A 
ENDROOT
BRANCH   1   8
ATOM      7  N   UNL     1      42.117   5.225  11.704  0.00  0.00    +0.000 N 
ATOM      8  C   UNL     1      43.182   4.367  11.659  0.00  0.00    +0.000 C 
ATOM      9  O   UNL     1      43.044   3.204  11.311  0.00  0.00    +0.000 OA
ATOM     10  H   UNL     1      41.234   4.863  11.366  0.00  0.00    +0.000 HD
ATOM     11  H   UNL     1      42.234   6.226  11.736  0.00  0.00    +0.000 HD
ENDBRANCH   1   8
BRANCH   4  12
ATOM     12  C   UNL     1      48.416   6.601  12.889  0.00  0.00    +0.000 C 
BRANCH  12  13
ATOM     13  C   UNL     1      48.591   8.049  12.482  0.00  0.00    +0.000 A 
ATOM     14  C   UNL     1      49.624   8.431  11.611  0.00  0.00    +0.000 A 
ATOM     15  C   UNL     1      49.795   9.770  11.250  0.00  0.00    +0.000 A 
ATOM     16  C   UNL     1      48.930  10.744  11.745  0.00  0.00    +0.000 A 
ATOM     17  C   UNL     1      47.887  10.375  12.592  0.00  0.00    +0.000 A 
ATOM     18  C   UNL     1      47.720   9.037  12.962  0.00  0.00    +0.000 A 
ENDBRANCH  12  13
ENDBRANCH   4  12
TORSDOF 3
ENDMDL
MODEL 8
REMARK VINA RESULT:    -4.994      4.025      6.389
REMARK INTER + INTRA:          -6.449
REMARK INTER:                  -5.893
REMARK INTRA:                  -0.556
REMARK UNBOUND:                -0.580
REMARK  Name = 
REMARK  3 active torsions:
REMARK  status: ('A' for Active; 'I' for Inactive)
REMARK    1  A    between atoms: C_2  and  C_4
REMARK    2  A    between atoms: C_7  and  C_8
REMARK    3  A    between atoms: C_8  and  C_9
REMARK                            x       y       z     vdW  Elec       q    Type
REMARK                         _______ _______ _______ _____ _____    ______ ____
ROOT
ATOM      1  C   UNL     1      48.832   7.739  12.690  0.00  0.00    +0.000 A 
ATOM      2  C   UNL     1      47.834   8.570  12.166  0.00  0.00    +0.000 A 
ATOM      3  C   UNL     1      46.568   8.049  11.870  0.00  0.00    +0.000 A 
ATOM      4  C   UNL     1      46.287   6.689  12.080  0.00  0.00    +0.000 A 
ATOM      5  C   UNL     1      47.298   5.867  12.600  0.00  0.00    +0.000 A 
ATOM      6  C   UNL     1      48.561   6.385  12.901  0.00  0.00    +0.000 A 
ENDROOT
BRANCH   1   8
ATOM      7  N   UNL     1      50.856   7.644  14.037  0.00  0.00    +0.000 N 
ATOM      8  C   UNL     1      50.192   8.253  13.006  0.00  0.00    +0.000 C 
ATOM      9  O   UNL     1      50.713   9.148  12.359  0.00  0.00    +0.000 OA
ATOM     10  H   UNL     1      51.818   7.926  14.181  0.00  0.00    +0.000 HD
ATOM     11  H   UNL     1      50.565   6.754  14.413  0.00  0.00    +0.000 HD
ENDBRANCH   1   8
BRANCH   4  12
ATOM     12  C   UNL     1      44.926   6.106  11.760  0.00  0.00    +0.000 C 
BRANCH  12  13
ATOM     13  C   UNL     1      44.928   4.999  10.727  0.00  0.00    +0.000 A 
ATOM     14  C   UNL     1      45.555   5.178   9.484  0.00  0.00    +0.000 A 
ATOM     15  C   UNL     1      45.541   4.163   8.524  0.00  0.00    +0.000 A 
ATOM     16  C   UNL     1      44.912   2.950   8.798  0.00  0.00    +0.000 A 
ATOM     17  C   UNL     1      44.305   2.751  10.036  0.00  0.00    +0.000 A 
ATOM     18  C   UNL     1      44.309   3.770  10.994  0.00  0.00    +0.000 A 
ENDBRANCH  12  13
ENDBRANCH   4  12
TORSDOF 3
ENDMDL
MODEL 9
REMARK VINA RESULT:    -4.786      4.482      6.717
REMARK INTER + INTRA:          -6.206
REMARK INTER:                  -5.692
REMARK INTRA:                  -0.514
REMARK UNBOUND:                -0.580
REMARK  Name = 
REMARK  3 active torsions:
REMARK  status: ('A' for Active; 'I' for Inactive)
REMARK    1  A    between atoms: C_2  and  C_4
REMARK    2  A    between atoms: C_7  and  C_8
REMARK    3  A    between atoms: C_8  and  C_9
REMARK                            x       y       z     vdW  Elec       q    Type
REMARK                         _______ _______ _______ _____ _____    ______ ____
ROOT
ATOM      1  C   UNL     1      48.495   7.585  13.940  0.00  0.00    +0.000 A 
ATOM      2  C   UNL     1      47.512   8.581  13.886  0.00  0.00    +0.000 A 
ATOM      3  C   UNL     1      46.355   8.388  13.119  0.00  0.00    +0.000 A 
ATOM      4  C   UNL     1      46.172   7.204  12.387  0.00  0.00    +0.000 A 
ATOM      5  C   UNL     1      47.167   6.217  12.446  0.00  0.00    +0.000 A 
ATOM      6  C   UNL     1      48.320   6.405  13.213  0.00  0.00    +0.000 A 
ENDROOT
BRANCH   1   8
ATOM      7  N   UNL     1      50.922   7.716  14.042  0.00  0.00    +0.000 N 
ATOM      8  C   UNL     1      49.741   7.758  14.733  0.00  0.00    +0.000 C 
ATOM      9  O   UNL     1      49.719   7.963  15.937  0.00  0.00    +0.000 OA
ATOM     10  H   UNL     1      51.759   7.936  14.568  0.00  0.00    +0.000 HD
ATOM     11  H   UNL     1      50.961   7.804  13.038  0.00  0.00    +0.000 HD
ENDBRANCH   1   8
BRANCH   4  12
ATOM     12  C   UNL     1      44.931   6.980  11.547  0.00  0.00    +0.000 C 
BRANCH  12  13
ATOM     13  C   UNL     1      44.426   5.553  11.516  0.00  0.00    +0.000 A 
ATOM     14  C   UNL     1      43.830   4.977  12.650  0.00  0.00    +0.000 A 
ATOM     15  C   UNL     1      43.381   3.654  12.626  0.00  0.00    +0.000 A 
ATOM     16  C   UNL     1      43.508   2.893  11.466  0.00  0.00    +0.000 A 
ATOM     17  C   UNL     1      44.077   3.459  10.327  0.00  0.00    +0.000 A 
ATOM     18  C   UNL     1      44.537   4.779  10.352  0.00  0.00    +0.000 A 
ENDBRANCH  12  13
ENDBRANCH   4  12
TORSDOF 3
ENDMDL
