MODEL 1
REMARK VINA RESULT:    -9.057      0.000      0.000
REMARK INTER + INTRA:         -13.315
REMARK INTER:                 -12.498
REMARK INTRA:                  -0.818
REMARK UNBOUND:                -0.818
REMARK  Name = 
REMARK  8 active torsions:
REMARK  status: ('A' for Active; 'I' for Inactive)
REMARK    1  A    between atoms: C_1  and  C_2
REMARK    2  A    between atoms: C_2  and  O_3
REMARK    3  A    between atoms: C_5  and  O_6
REMARK    4  A    between atoms: O_6  and  C_7
REMARK    5  A    between atoms: C_9  and  C_10
REMARK    6  A    between atoms: C_10  and  C_11
REMARK    7  A    between atoms: C_11  and  N_12
REMARK    8  A    between atoms: C_16  and  N_17
REMARK                            x       y       z     vdW  Elec       q    Type
REMARK                         _______ _______ _______ _____ _____    ______ ____
ROOT
ATOM      1  C   UNL     1      46.842   5.630  13.582  0.00  0.00    +0.000 A 
ATOM      2  C   UNL     1      45.611   5.078  13.252  0.00  0.00    +0.000 A 
ATOM      3  C   UNL     1      44.660   5.881  12.608  0.00  0.00    +0.000 A 
ATOM      4  C   UNL     1      45.022   7.204  12.324  0.00  0.00    +0.000 A 
ATOM      5  C   UNL     1      46.283   7.658  12.682  0.00  0.00    +0.000 A 
ATOM      6  N   UNL     1      47.199   6.901  13.312  0.00  0.00    +0.000 NA
ENDROOT
BRANCH   1   7
ATOM      7  O   UNL     1      47.742   4.818  14.249  0.00  0.00    +0.000 OA
BRANCH   7  11
ATOM      8  C   UNL     1      48.807   3.258  18.322  0.00  0.00    +0.000 C 
ATOM      9  C   UNL     1      47.665   3.311  17.320  0.00  0.00    +0.000 C 
ATOM     10  C   UNL     1      48.056   2.895  15.882  0.00  0.00    +0.000 C 
ATOM     11  C   UNL     1      47.188   4.066  15.356  0.00  0.00    +0.000 C 
ATOM     12  C   UNL     1      47.355   4.720  16.749  0.00  0.00    +0.000 C 
BRANCH   9  13
ATOM     13  O   UNL     1      46.520   2.621  17.871  0.00  0.00    +0.000 OA
ATOM     14  H   UNL     1      45.760   2.923  17.345  0.00  0.00    +0.000 HD
ENDBRANCH   9  13
ENDBRANCH   7  11
ENDBRANCH   1   7
BRANCH   3  15
ATOM     15  C   UNL     1      43.301   5.296  12.256  0.00  0.00    +0.000 C 
BRANCH  15  16
ATOM     16  C   UNL     1      43.295   4.425  10.994  0.00  0.00    +0.000 C 
BRANCH  16  17
ATOM     17  N   UNL     1      44.082   4.996   9.896  0.00  0.00    +0.000 N 
ATOM     18  C   UNL     1      44.849   4.003   9.241  0.00  0.00    +0.000 A 
ATOM     19  C   UNL     1      45.658   4.378   8.168  0.00  0.00    +0.000 A 
ATOM     20  C   UNL     1      46.417   3.407   7.504  0.00  0.00    +0.000 A 
ATOM     21  C   UNL     1      46.339   2.085   7.936  0.00  0.00    +0.000 A 
ATOM     22  C   UNL     1      45.508   1.782   8.996  0.00  0.00    +0.000 A 
ATOM     23  N   UNL     1      44.767   2.715   9.644  0.00  0.00    +0.000 NA
ATOM     24  H   UNL     1      44.704   5.738  10.206  0.00  0.00    +0.000 HD
BRANCH  21  25
ATOM     25  N   UNL     1      47.112   1.027   7.303  0.00  0.00    +0.000 N 
ATOM     26  O   UNL     1      47.981   1.363   6.485  0.00  0.00    +0.000 OA
ATOM     27  O   UNL     1      46.863  -0.142   7.623  0.00  0.00    +0.000 OA
ENDBRANCH  21  25
ENDBRANCH  16  17
ENDBRANCH  15  16
ENDBRANCH   3  15
TORSDOF 7
ENDMDL
MODEL 2
REMARK VINA RESULT:    -8.322      2.237      3.968
REMARK INTER + INTRA:         -12.301
REMARK INTER:                 -11.318
REMARK INTRA:                  -0.984
REMARK UNBOUND:                -0.818
REMARK  Name = 
REMARK  8 active torsions:
REMARK  status: ('A' for Active; 'I' for Inactive)
REMARK    1  A    between atoms: C_1  and  C_2
REMARK    2  A    between atoms: C_2  and  O_3
REMARK    3  A    between atoms: C_5  and  O_6
REMARK    4  A    between atoms: O_6  and  C_7
REMARK    5  A    between atoms: C_9  and  C_10
REMARK    6  A    between atoms: C_10  and  C_11
REMARK    7  A    between atoms: C_11  and  N_12
REMARK    8  A    between atoms: C_16  and  N_17
REMARK                            x       y       z     vdW  Elec       q    Type
REMARK                         _______ _______ _______ _____ _____    ______ ____
ROOT
ATOM      1  C   UNL     1      46.957   5.967  13.362  0.00  0.00    +0.000 A 
ATOM      2  C   UNL     1      45.642   6.085  12.932  0.00  0.00    +0.000 A 
ATOM      3  C   UNL     1      44.862   4.926  12.812  0.00  0.00    +0.000 A 
ATOM      4  C   UNL     1      45.465   3.708  13.151  0.00  0.00    +0.000 A 
ATOM      5  C   UNL     1      46.783   3.696  13.585  0.00  0.00    +0.000 A 
ATOM      6  N   UNL     1      47.545   4.800  13.691  0.00  0.00    +0.000 NA
ENDROOT
BRANCH   1   7
ATOM      7  O   UNL     1      47.706   7.128  13.433  0.00  0.00    +0.000 OA
BRANCH   7  11
ATOM      8  C   UNL     1      50.792   9.750  11.495  0.00  0.00    +0.000 C 
ATOM      9  C   UNL     1      50.504   8.300  11.851  0.00  0.00    +0.000 C 
ATOM     10  C   UNL     1      49.104   7.802  11.420  0.00  0.00    +0.000 C 
ATOM     11  C   UNL     1      48.997   7.067  12.780  0.00  0.00    +0.000 C 
ATOM     12  C   UNL     1      50.058   8.059  13.317  0.00  0.00    +0.000 C 
BRANCH   9  13
ATOM     13  O   UNL     1      51.611   7.478  11.417  0.00  0.00    +0.000 OA
ATOM     14  H   UNL     1      51.476   7.347  10.462  0.00  0.00    +0.000 HD
ENDBRANCH   9  13
ENDBRANCH   7  11
ENDBRANCH   1   7
BRANCH   3  15
ATOM     15  C   UNL     1      43.426   5.037  12.325  0.00  0.00    +0.000 C 
BRANCH  15  16
ATOM     16  C   UNL     1      43.176   4.420  10.944  0.00  0.00    +0.000 C 
BRANCH  16  17
ATOM     17  N   UNL     1      44.029   4.990   9.896  0.00  0.00    +0.000 N 
ATOM     18  C   UNL     1      44.799   3.989   9.257  0.00  0.00    +0.000 A 
ATOM     19  C   UNL     1      45.667   4.361   8.231  0.00  0.00    +0.000 A 
ATOM     20  C   UNL     1      46.431   3.383   7.582  0.00  0.00    +0.000 A 
ATOM     21  C   UNL     1      46.297   2.055   7.984  0.00  0.00    +0.000 A 
ATOM     22  C   UNL     1      45.409   1.755   8.998  0.00  0.00    +0.000 A 
ATOM     23  N   UNL     1      44.664   2.696   9.629  0.00  0.00    +0.000 NA
ATOM     24  H   UNL     1      44.655   5.709  10.249  0.00  0.00    +0.000 HD
BRANCH  21  25
ATOM     25  N   UNL     1      47.070   0.989   7.366  0.00  0.00    +0.000 N 
ATOM     26  O   UNL     1      46.797  -0.178   7.685  0.00  0.00    +0.000 OA
ATOM     27  O   UNL     1      47.946   1.307   6.551  0.00  0.00    +0.000 OA
ENDBRANCH  21  25
ENDBRANCH  16  17
ENDBRANCH  15  16
ENDBRANCH   3  15
TORSDOF 7
ENDMDL
MODEL 3
REMARK VINA RESULT:    -7.618      2.340      3.066
REMARK INTER + INTRA:         -11.331
REMARK INTER:                 -10.464
REMARK INTRA:                  -0.867
REMARK UNBOUND:                -0.818
REMARK  Name = 
REMARK  8 active torsions:
REMARK  status: ('A' for Active; 'I' for Inactive)
REMARK    1  A    between atoms: C_1  and  C_2
REMARK    2  A    between atoms: C_2  and  O_3
REMARK    3  A    between atoms: C_5  and  O_6
REMARK    4  A    between atoms: O_6  and  C_7
REMARK    5  A    between atoms: C_9  and  C_10
REMARK    6  A    between atoms: C_10  and  C_11
REMARK    7  A    between atoms: C_11  and  N_12
REMARK    8  A    between atoms: C_16  and  N_17
REMARK                            x       y       z     vdW  Elec       q    Type
REMARK                         _______ _______ _______ _____ _____    ______ ____
ROOT
ATOM      1  C   UNL     1      47.234   5.939  13.353  0.00  0.00    +0.000 A 
ATOM      2  C   UNL     1      45.950   6.183  12.886  0.00  0.00    +0.000 A 
ATOM      3  C   UNL     1      45.069   5.104  12.733  0.00  0.00    +0.000 A 
ATOM      4  C   UNL     1      45.544   3.832  13.078  0.00  0.00    +0.000 A 
ATOM      5  C   UNL     1      46.841   3.694  13.550  0.00  0.00    +0.000 A 
ATOM      6  N   UNL     1      47.700   4.720  13.689  0.00  0.00    +0.000 NA
ENDROOT
BRANCH   1   7
ATOM      7  O   UNL     1      48.087   7.024  13.456  0.00  0.00    +0.000 OA
BRANCH   7  11
ATOM      8  C   UNL     1      51.179   9.277  15.806  0.00  0.00    +0.000 C 
ATOM      9  C   UNL     1      49.880   8.504  15.967  0.00  0.00    +0.000 C 
ATOM     10  C   UNL     1      49.867   7.123  15.269  0.00  0.00    +0.000 C 
ATOM     11  C   UNL     1      48.417   7.420  14.810  0.00  0.00    +0.000 C 
ATOM     12  C   UNL     1      48.741   8.921  14.999  0.00  0.00    +0.000 C 
BRANCH   9  13
ATOM     13  O   UNL     1      49.506   8.491  17.363  0.00  0.00    +0.000 OA
ATOM     14  H   UNL     1      50.324   8.692  17.851  0.00  0.00    +0.000 HD
ENDBRANCH   9  13
ENDBRANCH   7  11
ENDBRANCH   1   7
BRANCH   3  15
ATOM     15  C   UNL     1      43.664   5.352  12.206  0.00  0.00    +0.000 C 
BRANCH  15  16
ATOM     16  C   UNL     1      43.360   4.667  10.868  0.00  0.00    +0.000 C 
BRANCH  16  17
ATOM     17  N   UNL     1      44.175   5.177   9.760  0.00  0.00    +0.000 N 
ATOM     18  C   UNL     1      44.920   4.141   9.150  0.00  0.00    +0.000 A 
ATOM     19  C   UNL     1      45.752   4.455   8.074  0.00  0.00    +0.000 A 
ATOM     20  C   UNL     1      46.490   3.440   7.453  0.00  0.00    +0.000 A 
ATOM     21  C   UNL     1      46.370   2.137   7.930  0.00  0.00    +0.000 A 
ATOM     22  C   UNL     1      45.518   1.894   8.990  0.00  0.00    +0.000 A 
ATOM     23  N   UNL     1      44.798   2.870   9.596  0.00  0.00    +0.000 NA
ATOM     24  H   UNL     1      44.814   5.912  10.052  0.00  0.00    +0.000 HD
BRANCH  21  25
ATOM     25  N   UNL     1      47.119   1.037   7.343  0.00  0.00    +0.000 N 
ATOM     26  O   UNL     1      46.783  -0.116   7.651  0.00  0.00    +0.000 OA
ATOM     27  O   UNL     1      48.040   1.314   6.564  0.00  0.00    +0.000 OA
ENDBRANCH  21  25
ENDBRANCH  16  17
ENDBRANCH  15  16
ENDBRANCH   3  15
TORSDOF 7
ENDMDL
MODEL 4
REMARK VINA RESULT:    -7.389      1.424      1.975
REMARK INTER + INTRA:         -11.014
REMARK INTER:                 -10.500
REMARK INTRA:                  -0.514
REMARK UNBOUND:                -0.818
REMARK  Name = 
REMARK  8 active torsions:
REMARK  status: ('A' for Active; 'I' for Inactive)
REMARK    1  A    between atoms: C_1  and  C_2
REMARK    2  A    between atoms: C_2  and  O_3
REMARK    3  A    between atoms: C_5  and  O_6
REMARK    4  A    between atoms: O_6  and  C_7
REMARK    5  A    between atoms: C_9  and  C_10
REMARK    6  A    between atoms: C_10  and  C_11
REMARK    7  A    between atoms: C_11  and  N_12
REMARK    8  A    between atoms: C_16  and  N_17
REMARK                            x       y       z     vdW  Elec       q    Type
REMARK                         _______ _______ _______ _____ _____    ______ ____
ROOT
ATOM      1  C   UNL     1      47.105   4.702  14.378  0.00  0.00    +0.000 A 
ATOM      2  C   UNL     1      46.099   5.449  13.780  0.00  0.00    +0.000 A 
ATOM      3  C   UNL     1      45.240   4.821  12.867  0.00  0.00    +0.000 A 
ATOM      4  C   UNL     1      45.447   3.457  12.625  0.00  0.00    +0.000 A 
ATOM      5  C   UNL     1      46.471   2.795  13.285  0.00  0.00    +0.000 A 
ATOM      6  N   UNL     1      47.310   3.389  14.152  0.00  0.00    +0.000 NA
ENDROOT
BRANCH   1   7
ATOM      7  O   UNL     1      47.956   5.364  15.245  0.00  0.00    +0.000 OA
BRANCH   7  11
ATOM      8  C   UNL     1      50.441   4.790  18.940  0.00  0.00    +0.000 C 
ATOM      9  C   UNL     1      49.012   4.692  18.429  0.00  0.00    +0.000 C 
ATOM     10  C   UNL     1      48.857   3.894  17.113  0.00  0.00    +0.000 C 
ATOM     11  C   UNL     1      47.848   4.968  16.634  0.00  0.00    +0.000 C 
ATOM     12  C   UNL     1      48.505   5.934  17.650  0.00  0.00    +0.000 C 
BRANCH   9  13
ATOM     13  O   UNL     1      48.151   4.270  19.511  0.00  0.00    +0.000 OA
ATOM     14  H   UNL     1      47.328   4.776  19.398  0.00  0.00    +0.000 HD
ENDBRANCH   9  13
ENDBRANCH   7  11
ENDBRANCH   1   7
BRANCH   3  15
ATOM     15  C   UNL     1      44.145   5.631  12.190  0.00  0.00    +0.000 C 
BRANCH  15  16
ATOM     16  C   UNL     1      43.752   5.123  10.797  0.00  0.00    +0.000 C 
BRANCH  16  17
ATOM     17  N   UNL     1      44.716   5.495   9.756  0.00  0.00    +0.000 N 
ATOM     18  C   UNL     1      45.258   4.351   9.124  0.00  0.00    +0.000 A 
ATOM     19  C   UNL     1      46.194   4.527   8.104  0.00  0.00    +0.000 A 
ATOM     20  C   UNL     1      46.734   3.406   7.462  0.00  0.00    +0.000 A 
ATOM     21  C   UNL     1      46.316   2.138   7.862  0.00  0.00    +0.000 A 
ATOM     22  C   UNL     1      45.376   2.038   8.870  0.00  0.00    +0.000 A 
ATOM     23  N   UNL     1      44.846   3.118   9.494  0.00  0.00    +0.000 NA
ATOM     24  H   UNL     1      45.479   6.063  10.114  0.00  0.00    +0.000 HD
BRANCH  21  25
ATOM     25  N   UNL     1      46.847   0.930   7.250  0.00  0.00    +0.000 N 
ATOM     26  O   UNL     1      46.695  -0.138   7.862  0.00  0.00    +0.000 OA
ATOM     27  O   UNL     1      47.409   1.037   6.153  0.00  0.00    +0.000 OA
ENDBRANCH  21  25
ENDBRANCH  16  17
ENDBRANCH  15  16
ENDBRANCH   3  15
TORSDOF 7
ENDMDL
MODEL 5
REMARK VINA RESULT:    -7.268      2.047      7.683
REMARK INTER + INTRA:         -10.847
REMARK INTER:                 -10.420
REMARK INTRA:                  -0.427
REMARK UNBOUND:                -0.818
REMARK  Name = 
REMARK  8 active torsions:
REMARK  status: ('A' for Active; 'I' for Inactive)
REMARK    1  A    between atoms: C_1  and  C_2
REMARK    2  A    between atoms: C_2  and  O_3
REMARK    3  A    between atoms: C_5  and  O_6
REMARK    4  A    between atoms: O_6  and  C_7
REMARK    5  A    between atoms: C_9  and  C_10
REMARK    6  A    between atoms: C_10  and  C_11
REMARK    7  A    between atoms: C_11  and  N_12
REMARK    8  A    between atoms: C_16  and  N_17
REMARK                            x       y       z     vdW  Elec       q    Type
REMARK                         _______ _______ _______ _____ _____    ______ ____
ROOT
ATOM      1  C   UNL     1      44.335   3.387  10.137  0.00  0.00    +0.000 A 
ATOM      2  C   UNL     1      45.035   4.571  10.331  0.00  0.00    +0.000 A 
ATOM      3  C   UNL     1      44.769   5.335  11.475  0.00  0.00    +0.000 A 
ATOM      4  C   UNL     1      43.811   4.842  12.369  0.00  0.00    +0.000 A 
ATOM      5  C   UNL     1      43.176   3.640  12.094  0.00  0.00    +0.000 A 
ATOM      6  N   UNL     1      43.412   2.904  10.993  0.00  0.00    +0.000 NA
ENDROOT
BRANCH   1   7
ATOM      7  O   UNL     1      44.597   2.678   8.979  0.00  0.00    +0.000 OA
BRANCH   7  11
ATOM      8  C   UNL     1      46.892   2.394   5.130  0.00  0.00    +0.000 C 
ATOM      9  C   UNL     1      47.057   2.740   6.601  0.00  0.00    +0.000 C 
ATOM     10  C   UNL     1      46.473   1.690   7.575  0.00  0.00    +0.000 C 
ATOM     11  C   UNL     1      45.928   2.858   8.436  0.00  0.00    +0.000 C 
ATOM     12  C   UNL     1      46.010   3.737   7.164  0.00  0.00    +0.000 C 
BRANCH   9  13
ATOM     13  O   UNL     1      48.432   3.111   6.848  0.00  0.00    +0.000 OA
ATOM     14  H   UNL     1      48.581   2.936   7.794  0.00  0.00    +0.000 HD
ENDBRANCH   9  13
ENDBRANCH   7  11
ENDBRANCH   1   7
BRANCH   3  15
ATOM     15  C   UNL     1      45.514   6.643  11.691  0.00  0.00    +0.000 C 
BRANCH  15  16
ATOM     16  C   UNL     1      47.042   6.512  11.672  0.00  0.00    +0.000 C 
BRANCH  16  17
ATOM     17  N   UNL     1      47.680   7.038  12.884  0.00  0.00    +0.000 N 
ATOM     18  C   UNL     1      47.681   6.079  13.923  0.00  0.00    +0.000 A 
ATOM     19  C   UNL     1      48.253   6.418  15.150  0.00  0.00    +0.000 A 
ATOM     20  C   UNL     1      48.270   5.478  16.188  0.00  0.00    +0.000 A 
ATOM     21  C   UNL     1      47.712   4.221  15.962  0.00  0.00    +0.000 A 
ATOM     22  C   UNL     1      47.174   3.948  14.719  0.00  0.00    +0.000 A 
ATOM     23  N   UNL     1      47.157   4.852  13.708  0.00  0.00    +0.000 NA
ATOM     24  H   UNL     1      47.236   7.888  13.222  0.00  0.00    +0.000 HD
BRANCH  21  25
ATOM     25  N   UNL     1      47.680   3.202  16.999  0.00  0.00    +0.000 N 
ATOM     26  O   UNL     1      48.757   2.677  17.322  0.00  0.00    +0.000 OA
ATOM     27  O   UNL     1      46.585   2.925  17.505  0.00  0.00    +0.000 OA
ENDBRANCH  21  25
ENDBRANCH  16  17
ENDBRANCH  15  16
ENDBRANCH   3  15
TORSDOF 7
ENDMDL
MODEL 6
REMARK VINA RESULT:    -6.872      2.547      8.689
REMARK INTER + INTRA:         -10.300
REMARK INTER:                  -9.878
REMARK INTRA:                  -0.423
REMARK UNBOUND:                -0.818
REMARK  Name = 
REMARK  8 active torsions:
REMARK  status: ('A' for Active; 'I' for Inactive)
REMARK    1  A    between atoms: C_1  and  C_2
REMARK    2  A    between atoms: C_2  and  O_3
REMARK    3  A    between atoms: C_5  and  O_6
REMARK    4  A    between atoms: O_6  and  C_7
REMARK    5  A    between atoms: C_9  and  C_10
REMARK    6  A    between atoms: C_10  and  C_11
REMARK    7  A    between atoms: C_11  and  N_12
REMARK    8  A    between atoms: C_16  and  N_17
REMARK                            x       y       z     vdW  Elec       q    Type
REMARK                         _______ _______ _______ _____ _____    ______ ____
ROOT
ATOM      1  C   UNL     1      44.442   3.275   9.944  0.00  0.00    +0.000 A 
ATOM      2  C   UNL     1      45.167   4.301  10.534  0.00  0.00    +0.000 A 
ATOM      3  C   UNL     1      44.960   4.584  11.891  0.00  0.00    +0.000 A 
ATOM      4  C   UNL     1      44.031   3.792  12.578  0.00  0.00    +0.000 A 
ATOM      5  C   UNL     1      43.367   2.779  11.902  0.00  0.00    +0.000 A 
ATOM      6  N   UNL     1      43.547   2.507  10.597  0.00  0.00    +0.000 NA
ENDROOT
BRANCH   1   7
ATOM      7  O   UNL     1      44.646   3.049   8.594  0.00  0.00    +0.000 OA
BRANCH   7  11
ATOM      8  C   UNL     1      47.224   2.530   4.955  0.00  0.00    +0.000 C 
ATOM      9  C   UNL     1      47.300   2.681   6.466  0.00  0.00    +0.000 C 
ATOM     10  C   UNL     1      46.360   1.736   7.251  0.00  0.00    +0.000 C 
ATOM     11  C   UNL     1      46.032   2.921   8.195  0.00  0.00    +0.000 C 
ATOM     12  C   UNL     1      46.481   3.862   7.051  0.00  0.00    +0.000 C 
BRANCH   9  13
ATOM     13  O   UNL     1      48.686   2.651   6.875  0.00  0.00    +0.000 OA
ATOM     14  H   UNL     1      49.199   2.796   6.061  0.00  0.00    +0.000 HD
ENDBRANCH   9  13
ENDBRANCH   7  11
ENDBRANCH   1   7
BRANCH   3  15
ATOM     15  C   UNL     1      45.733   5.718  12.546  0.00  0.00    +0.000 C 
BRANCH  15  16
ATOM     16  C   UNL     1      46.948   5.265  13.365  0.00  0.00    +0.000 C 
BRANCH  16  17
ATOM     17  N   UNL     1      46.598   4.346  14.454  0.00  0.00    +0.000 N 
ATOM     18  C   UNL     1      47.429   4.544  15.582  0.00  0.00    +0.000 A 
ATOM     19  C   UNL     1      47.229   3.749  16.712  0.00  0.00    +0.000 A 
ATOM     20  C   UNL     1      48.038   3.937  17.839  0.00  0.00    +0.000 A 
ATOM     21  C   UNL     1      49.024   4.921  17.800  0.00  0.00    +0.000 A 
ATOM     22  C   UNL     1      49.158   5.680  16.654  0.00  0.00    +0.000 A 
ATOM     23  N   UNL     1      48.378   5.506  15.559  0.00  0.00    +0.000 NA
ATOM     24  H   UNL     1      46.652   3.370  14.175  0.00  0.00    +0.000 HD
BRANCH  21  25
ATOM     25  N   UNL     1      49.909   5.159  18.929  0.00  0.00    +0.000 N 
ATOM     26  O   UNL     1      49.725   6.188  19.596  0.00  0.00    +0.000 OA
ATOM     27  O   UNL     1      50.787   4.319  19.164  0.00  0.00    +0.000 OA
ENDBRANCH  21  25
ENDBRANCH  16  17
ENDBRANCH  15  16
ENDBRANCH   3  15
TORSDOF 7
ENDMDL
MODEL 7
REMARK VINA RESULT:    -6.833      2.451      2.946
REMARK INTER + INTRA:         -10.247
REMARK INTER:                  -9.652
REMARK INTRA:                  -0.595
REMARK UNBOUND:                -0.818
REMARK  Name = 
REMARK  8 active torsions:
REMARK  status: ('A' for Active; 'I' for Inactive)
REMARK    1  A    between atoms: C_1  and  C_2
REMARK    2  A    between atoms: C_2  and  O_3
REMARK    3  A    between atoms: C_5  and  O_6
REMARK    4  A    between atoms: O_6  and  C_7
REMARK    5  A    between atoms: C_9  and  C_10
REMARK    6  A    between atoms: C_10  and  C_11
REMARK    7  A    between atoms: C_11  and  N_12
REMARK    8  A    between atoms: C_16  and  N_17
REMARK                            x       y       z     vdW  Elec       q    Type
REMARK                         _______ _______ _______ _____ _____    ______ ____
ROOT
ATOM      1  C   UNL     1      45.767   8.571  11.940  0.00  0.00    +0.000 A 
ATOM      2  C   UNL     1      45.131   7.344  12.070  0.00  0.00    +0.000 A 
ATOM      3  C   UNL     1      43.820   7.207  11.592  0.00  0.00    +0.000 A 
ATOM      4  C   UNL     1      43.234   8.329  10.993  0.00  0.00    +0.000 A 
ATOM      5  C   UNL     1      43.959   9.508  10.897  0.00  0.00    +0.000 A 
ATOM      6  N   UNL     1      45.211   9.656  11.364  0.00  0.00    +0.000 NA
ENDROOT
BRANCH   1   7
ATOM      7  O   UNL     1      47.046   8.679  12.456  0.00  0.00    +0.000 OA
BRANCH   7  11
ATOM      8  C   UNL     1      50.462   7.347  15.048  0.00  0.00    +0.000 C 
ATOM      9  C   UNL     1      49.032   6.990  14.672  0.00  0.00    +0.000 C 
ATOM     10  C   UNL     1      48.766   6.940  13.149  0.00  0.00    +0.000 C 
ATOM     11  C   UNL     1      47.414   7.652  13.408  0.00  0.00    +0.000 C 
ATOM     12  C   UNL     1      48.022   8.166  14.735  0.00  0.00    +0.000 C 
BRANCH   9  13
ATOM     13  O   UNL     1      48.630   5.813  15.407  0.00  0.00    +0.000 OA
ATOM     14  H   UNL     1      47.980   6.126  16.060  0.00  0.00    +0.000 HD
ENDBRANCH   9  13
ENDBRANCH   7  11
ENDBRANCH   1   7
BRANCH   3  15
ATOM     15  C   UNL     1      43.103   5.874  11.743  0.00  0.00    +0.000 C 
BRANCH  15  16
ATOM     16  C   UNL     1      43.669   4.748  10.869  0.00  0.00    +0.000 C 
BRANCH  16  17
ATOM     17  N   UNL     1      44.480   5.240   9.749  0.00  0.00    +0.000 N 
ATOM     18  C   UNL     1      45.155   4.182   9.099  0.00  0.00    +0.000 A 
ATOM     19  C   UNL     1      45.973   4.476   8.007  0.00  0.00    +0.000 A 
ATOM     20  C   UNL     1      46.643   3.439   7.346  0.00  0.00    +0.000 A 
ATOM     21  C   UNL     1      46.470   2.133   7.800  0.00  0.00    +0.000 A 
ATOM     22  C   UNL     1      45.635   1.912   8.878  0.00  0.00    +0.000 A 
ATOM     23  N   UNL     1      44.981   2.910   9.522  0.00  0.00    +0.000 NA
ATOM     24  H   UNL     1      45.162   5.936  10.037  0.00  0.00    +0.000 HD
BRANCH  21  25
ATOM     25  N   UNL     1      47.147   1.010   7.171  0.00  0.00    +0.000 N 
ATOM     26  O   UNL     1      46.863  -0.129   7.572  0.00  0.00    +0.000 OA
ATOM     27  O   UNL     1      47.957   1.255   6.269  0.00  0.00    +0.000 OA
ENDBRANCH  21  25
ENDBRANCH  16  17
ENDBRANCH  15  16
ENDBRANCH   3  15
TORSDOF 7
ENDMDL
MODEL 8
REMARK VINA RESULT:    -6.347      3.391      4.112
REMARK INTER + INTRA:          -9.577
REMARK INTER:                  -8.936
REMARK INTRA:                  -0.641
REMARK UNBOUND:                -0.818
REMARK  Name = 
REMARK  8 active torsions:
REMARK  status: ('A' for Active; 'I' for Inactive)
REMARK    1  A    between atoms: C_1  and  C_2
REMARK    2  A    between atoms: C_2  and  O_3
REMARK    3  A    between atoms: C_5  and  O_6
REMARK    4  A    between atoms: O_6  and  C_7
REMARK    5  A    between atoms: C_9  and  C_10
REMARK    6  A    between atoms: C_10  and  C_11
REMARK    7  A    between atoms: C_11  and  N_12
REMARK    8  A    between atoms: C_16  and  N_17
REMARK                            x       y       z     vdW  Elec       q    Type
REMARK                         _______ _______ _______ _____ _____    ______ ____
ROOT
ATOM      1  C   UNL     1      45.874   8.551  12.789  0.00  0.00    +0.000 A 
ATOM      2  C   UNL     1      45.492   7.216  12.798  0.00  0.00    +0.000 A 
ATOM      3  C   UNL     1      44.454   6.803  11.952  0.00  0.00    +0.000 A 
ATOM      4  C   UNL     1      43.870   7.775  11.129  0.00  0.00    +0.000 A 
ATOM      5  C   UNL     1      44.332   9.081  11.184  0.00  0.00    +0.000 A 
ATOM      6  N   UNL     1      45.318   9.493  12.001  0.00  0.00    +0.000 NA
ENDROOT
BRANCH   1   7
ATOM      7  O   UNL     1      46.876   8.929  13.665  0.00  0.00    +0.000 OA
BRANCH   7  11
ATOM      8  C   UNL     1      51.293   8.217  14.046  0.00  0.00    +0.000 C 
ATOM      9  C   UNL     1      50.265   8.943  13.192  0.00  0.00    +0.000 C 
ATOM     10  C   UNL     1      49.247   9.786  13.996  0.00  0.00    +0.000 C 
ATOM     11  C   UNL     1      48.138   9.272  13.042  0.00  0.00    +0.000 C 
ATOM     12  C   UNL     1      49.067   8.075  12.726  0.00  0.00    +0.000 C 
BRANCH   9  13
ATOM     13  O   UNL     1      50.946   9.648  12.130  0.00  0.00    +0.000 OA
ATOM     14  H   UNL     1      50.372  10.402  11.911  0.00  0.00    +0.000 HD
ENDBRANCH   9  13
ENDBRANCH   7  11
ENDBRANCH   1   7
BRANCH   3  15
ATOM     15  C   UNL     1      44.013   5.347  11.963  0.00  0.00    +0.000 C 
BRANCH  15  16
ATOM     16  C   UNL     1      43.620   4.794  10.588  0.00  0.00    +0.000 C 
BRANCH  16  17
ATOM     17  N   UNL     1      43.889   3.359  10.446  0.00  0.00    +0.000 N 
ATOM     18  C   UNL     1      44.787   3.106   9.383  0.00  0.00    +0.000 A 
ATOM     19  C   UNL     1      45.152   1.787   9.110  0.00  0.00    +0.000 A 
ATOM     20  C   UNL     1      46.046   1.520   8.066  0.00  0.00    +0.000 A 
ATOM     21  C   UNL     1      46.550   2.588   7.327  0.00  0.00    +0.000 A 
ATOM     22  C   UNL     1      46.157   3.869   7.659  0.00  0.00    +0.000 A 
ATOM     23  N   UNL     1      45.294   4.137   8.670  0.00  0.00    +0.000 NA
ATOM     24  H   UNL     1      43.042   2.816  10.296  0.00  0.00    +0.000 HD
BRANCH  21  25
ATOM     25  N   UNL     1      47.471   2.382   6.219  0.00  0.00    +0.000 N 
ATOM     26  O   UNL     1      47.184   2.900   5.130  0.00  0.00    +0.000 OA
ATOM     27  O   UNL     1      48.489   1.711   6.430  0.00  0.00    +0.000 OA
ENDBRANCH  21  25
ENDBRANCH  16  17
ENDBRANCH  15  16
ENDBRANCH   3  15
TORSDOF 7
ENDMDL
MODEL 9
REMARK VINA RESULT:    -6.334      3.549      7.097
REMARK INTER + INTRA:          -9.559
REMARK INTER:                  -8.553
REMARK INTRA:                  -1.006
REMARK UNBOUND:                -0.818
REMARK  Name = 
REMARK  8 active torsions:
REMARK  status: ('A' for Active; 'I' for Inactive)
REMARK    1  A    between atoms: C_1  and  C_2
REMARK    2  A    between atoms: C_2  and  O_3
REMARK    3  A    between atoms: C_5  and  O_6
REMARK    4  A    between atoms: O_6  and  C_7
REMARK    5  A    between atoms: C_9  and  C_10
REMARK    6  A    between atoms: C_10  and  C_11
REMARK    7  A    between atoms: C_11  and  N_12
REMARK    8  A    between atoms: C_16  and  N_17
REMARK                            x       y       z     vdW  Elec       q    Type
REMARK                         _______ _______ _______ _____ _____    ______ ____
ROOT
ATOM      1  C   UNL     1      44.646   7.896  11.433  0.00  0.00    +0.000 A 
ATOM      2  C   UNL     1      45.945   7.884  11.924  0.00  0.00    +0.000 A 
ATOM      3  C   UNL     1      46.582   9.105  12.184  0.00  0.00    +0.000 A 
ATOM      4  C   UNL     1      45.852  10.276  11.940  0.00  0.00    +0.000 A 
ATOM      5  C   UNL     1      44.553  10.182  11.462  0.00  0.00    +0.000 A 
ATOM      6  N   UNL     1      43.936   9.017  11.196  0.00  0.00    +0.000 NA
ENDROOT
BRANCH   1   7
ATOM      7  O   UNL     1      44.063   6.673  11.154  0.00  0.00    +0.000 OA
BRANCH   7  11
ATOM      8  C   UNL     1      43.456   2.301  11.972  0.00  0.00    +0.000 C 
ATOM      9  C   UNL     1      44.465   3.424  12.147  0.00  0.00    +0.000 C 
ATOM     10  C   UNL     1      43.883   4.716  12.766  0.00  0.00    +0.000 C 
ATOM     11  C   UNL     1      44.722   5.528  11.748  0.00  0.00    +0.000 C 
ATOM     12  C   UNL     1      44.754   4.254  10.869  0.00  0.00    +0.000 C 
BRANCH   9  13
ATOM     13  O   UNL     1      45.643   2.903  12.804  0.00  0.00    +0.000 OA
ATOM     14  H   UNL     1      45.317   2.220  13.415  0.00  0.00    +0.000 HD
ENDBRANCH   9  13
ENDBRANCH   7  11
ENDBRANCH   1   7
BRANCH   3  15
ATOM     15  C   UNL     1      48.011   9.109  12.705  0.00  0.00    +0.000 C 
BRANCH  15  16
ATOM     16  C   UNL     1      48.569   7.718  13.031  0.00  0.00    +0.000 C 
BRANCH  16  17
ATOM     17  N   UNL     1      49.312   7.678  14.295  0.00  0.00    +0.000 N 
ATOM     18  C   UNL     1      48.880   6.608  15.112  0.00  0.00    +0.000 A 
ATOM     19  C   UNL     1      49.487   6.424  16.356  0.00  0.00    +0.000 A 
ATOM     20  C   UNL     1      49.077   5.365  17.175  0.00  0.00    +0.000 A 
ATOM     21  C   UNL     1      48.068   4.517  16.719  0.00  0.00    +0.000 A 
ATOM     22  C   UNL     1      47.521   4.749  15.472  0.00  0.00    +0.000 A 
ATOM     23  N   UNL     1      47.914   5.771  14.672  0.00  0.00    +0.000 NA
ATOM     24  H   UNL     1      49.235   8.544  14.821  0.00  0.00    +0.000 HD
BRANCH  21  25
ATOM     25  N   UNL     1      47.583   3.407  17.523  0.00  0.00    +0.000 N 
ATOM     26  O   UNL     1      46.405   3.054  17.363  0.00  0.00    +0.000 OA
ATOM     27  O   UNL     1      48.374   2.874  18.312  0.00  0.00    +0.000 OA
ENDBRANCH  21  25
ENDBRANCH  16  17
ENDBRANCH  15  16
ENDBRANCH   3  15
TORSDOF 7
ENDMDL
