MODEL 1
REMARK VINA RESULT:    -8.165      0.000      0.000
REMARK INTER + INTRA:         -11.297
REMARK INTER:                 -10.552
REMARK INTRA:                  -0.745
REMARK UNBOUND:                -0.745
REMARK  Name = 
REMARK  5 active torsions:
REMARK  status: ('A' for Active; 'I' for Inactive)
REMARK    1  A    between atoms: C_2  and  C_18
REMARK    2  A    between atoms: N_3  and  C_4
REMARK    3  A    between atoms: C_4  and  C_5
REMARK    4  A    between atoms: C_8  and  C_9
REMARK    5  A    between atoms: C_9  and  C_10
REMARK                            x       y       z     vdW  Elec       q    Type
REMARK                         _______ _______ _______ _____ _____    ______ ____
ROOT
ATOM      1  O   UNL     1      46.588   3.488  14.034  0.00  0.00    +0.000 OA
ATOM      2  C   UNL     1      46.549   4.672  14.355  0.00  0.00    +0.000 C 
ATOM      3  N   UNL     1      45.512   5.497  14.009  0.00  0.00    +0.000 N 
ATOM      4  H   UNL     1      45.579   6.491  14.200  0.00  0.00    +0.000 HD
ENDROOT
BRANCH   2   5
ATOM      5  C   UNL     1      47.612   5.286  15.156  0.00  0.00    +0.000 A 
ATOM      6  C   UNL     1      48.416   6.276  14.610  0.00  0.00    +0.000 A 
ATOM      7  S   UNL     1      49.548   6.916  15.716  0.00  0.00    +0.000 S 
ATOM      8  C   UNL     1      48.985   5.905  16.966  0.00  0.00    +0.000 A 
ATOM      9  N   UNL     1      49.498   5.983  18.219  0.00  0.00    +0.000 NA
ATOM     10  C   UNL     1      48.954   5.177  19.072  0.00  0.00    +0.000 A 
ATOM     11  N   UNL     1      47.955   4.286  18.780  0.00  0.00    +0.000 N 
ATOM     12  C   UNL     1      47.458   4.125  17.513  0.00  0.00    +0.000 A 
ATOM     13  O   UNL     1      46.664   3.224  17.263  0.00  0.00    +0.000 OA
ATOM     14  C   UNL     1      47.982   5.053  16.533  0.00  0.00    +0.000 A 
ATOM     15  H   UNL     1      47.603   3.654  19.482  0.00  0.00    +0.000 HD
ENDBRANCH   2   5
BRANCH   3  16
ATOM     16  C   UNL     1      44.423   5.082  13.162  0.00  0.00    +0.000 C 
BRANCH  16  17
ATOM     17  C   UNL     1      44.585   5.565  11.710  0.00  0.00    +0.000 C 
ATOM     18  C   UNL     1      45.876   5.058  11.044  0.00  0.00    +0.000 C 
ATOM     19  C   UNL     1      45.848   3.548  10.808  0.00  0.00    +0.000 C 
ATOM     20  C   UNL     1      44.647   3.109   9.950  0.00  0.00    +0.000 C 
ATOM     21  C   UNL     1      43.336   3.647  10.562  0.00  0.00    +0.000 C 
ATOM     22  C   UNL     1      43.368   5.147  10.870  0.00  0.00    +0.000 C 
BRANCH  20  23
ATOM     23  C   UNL     1      44.767   3.529   8.463  0.00  0.00    +0.000 C 
BRANCH  23  24
ATOM     24  C   UNL     1      45.835   2.802   7.677  0.00  0.00    +0.000 A 
ATOM     25  C   UNL     1      46.289   1.532   8.045  0.00  0.00    +0.000 A 
ATOM     26  C   UNL     1      47.309   0.950   7.304  0.00  0.00    +0.000 A 
ATOM     27  N   UNL     1      47.880   1.523   6.224  0.00  0.00    +0.000 NA
ATOM     28  C   UNL     1      47.403   2.732   5.862  0.00  0.00    +0.000 A 
ATOM     29  C   UNL     1      46.397   3.400   6.545  0.00  0.00    +0.000 A 
ENDBRANCH  23  24
ENDBRANCH  20  23
ENDBRANCH  16  17
ENDBRANCH   3  16
TORSDOF 5
ENDMDL
MODEL 2
REMARK VINA RESULT:    -8.105      1.979      3.213
REMARK INTER + INTRA:         -11.219
REMARK INTER:                 -10.048
REMARK INTRA:                  -1.170
REMARK UNBOUND:                -0.745
REMARK  Name = 
REMARK  5 active torsions:
REMARK  status: ('A' for Active; 'I' for Inactive)
REMARK    1  A    between atoms: C_2  and  C_18
REMARK    2  A    between atoms: N_3  and  C_4
REMARK    3  A    between atoms: C_4  and  C_5
REMARK    4  A    between atoms: C_8  and  C_9
REMARK    5  A    between atoms: C_9  and  C_10
REMARK                            x       y       z     vdW  Elec       q    Type
REMARK                         _______ _______ _______ _____ _____    ______ ____
ROOT
ATOM      1  O   UNL     1      46.643   4.119  14.251  0.00  0.00    +0.000 OA
ATOM      2  C   UNL     1      46.733   5.336  14.125  0.00  0.00    +0.000 C 
ATOM      3  N   UNL     1      45.722   6.101  13.608  0.00  0.00    +0.000 N 
ATOM      4  H   UNL     1      45.886   7.085  13.419  0.00  0.00    +0.000 HD
ENDROOT
BRANCH   2   5
ATOM      5  C   UNL     1      47.935   6.064  14.540  0.00  0.00    +0.000 A 
ATOM      6  C   UNL     1      48.427   5.925  15.831  0.00  0.00    +0.000 A 
ATOM      7  S   UNL     1      49.870   6.796  16.103  0.00  0.00    +0.000 S 
ATOM      8  C   UNL     1      49.894   7.371  14.500  0.00  0.00    +0.000 A 
ATOM      9  N   UNL     1      50.911   8.142  14.045  0.00  0.00    +0.000 NA
ATOM     10  C   UNL     1      50.813   8.480  12.800  0.00  0.00    +0.000 A 
ATOM     11  N   UNL     1      49.778   8.130  11.973  0.00  0.00    +0.000 N 
ATOM     12  C   UNL     1      48.695   7.411  12.411  0.00  0.00    +0.000 A 
ATOM     13  O   UNL     1      47.725   7.236  11.681  0.00  0.00    +0.000 OA
ATOM     14  C   UNL     1      48.789   6.947  13.780  0.00  0.00    +0.000 A 
ATOM     15  H   UNL     1      49.739   8.462  11.023  0.00  0.00    +0.000 HD
ENDBRANCH   2   5
BRANCH   3  16
ATOM     16  C   UNL     1      44.501   5.545  13.080  0.00  0.00    +0.000 C 
BRANCH  16  17
ATOM     17  C   UNL     1      44.399   5.688  11.552  0.00  0.00    +0.000 C 
ATOM     18  C   UNL     1      45.656   5.199  10.812  0.00  0.00    +0.000 C 
ATOM     19  C   UNL     1      45.831   3.684  10.913  0.00  0.00    +0.000 C 
ATOM     20  C   UNL     1      44.612   2.913  10.375  0.00  0.00    +0.000 C 
ATOM     21  C   UNL     1      43.324   3.417  11.059  0.00  0.00    +0.000 C 
ATOM     22  C   UNL     1      43.163   4.940  11.029  0.00  0.00    +0.000 C 
BRANCH  20  23
ATOM     23  C   UNL     1      44.472   2.982   8.833  0.00  0.00    +0.000 C 
BRANCH  23  24
ATOM     24  C   UNL     1      45.672   2.483   8.059  0.00  0.00    +0.000 A 
ATOM     25  C   UNL     1      46.415   3.323   7.225  0.00  0.00    +0.000 A 
ATOM     26  C   UNL     1      47.473   2.781   6.507  0.00  0.00    +0.000 A 
ATOM     27  N   UNL     1      47.852   1.488   6.581  0.00  0.00    +0.000 NA
ATOM     28  C   UNL     1      47.146   0.702   7.420  0.00  0.00    +0.000 A 
ATOM     29  C   UNL     1      46.066   1.147   8.168  0.00  0.00    +0.000 A 
ENDBRANCH  23  24
ENDBRANCH  20  23
ENDBRANCH  16  17
ENDBRANCH   3  16
TORSDOF 5
ENDMDL
MODEL 3
REMARK VINA RESULT:    -7.972      1.649      2.240
REMARK INTER + INTRA:         -11.047
REMARK INTER:                 -11.333
REMARK INTRA:                   0.286
REMARK UNBOUND:                -0.745
REMARK  Name = 
REMARK  5 active torsions:
REMARK  status: ('A' for Active; 'I' for Inactive)
REMARK    1  A    between atoms: C_2  and  C_18
REMARK    2  A    between atoms: N_3  and  C_4
REMARK    3  A    between atoms: C_4  and  C_5
REMARK    4  A    between atoms: C_8  and  C_9
REMARK    5  A    between atoms: C_9  and  C_10
REMARK                            x       y       z     vdW  Elec       q    Type
REMARK                         _______ _______ _______ _____ _____    ______ ____
ROOT
ATOM      1  O   UNL     1      46.123   4.010  14.121  0.00  0.00    +0.000 OA
ATOM      2  C   UNL     1      45.981   5.107  13.592  0.00  0.00    +0.000 C 
ATOM      3  N   UNL     1      44.766   5.565  13.155  0.00  0.00    +0.000 N 
ATOM      4  H   UNL     1      44.718   6.428  12.623  0.00  0.00    +0.000 HD
ENDROOT
BRANCH   2   5
ATOM      5  C   UNL     1      47.110   6.023  13.405  0.00  0.00    +0.000 A 
ATOM      6  C   UNL     1      47.280   6.688  12.198  0.00  0.00    +0.000 A 
ATOM      7  S   UNL     1      48.609   7.760  12.197  0.00  0.00    +0.000 S 
ATOM      8  C   UNL     1      48.987   7.384  13.815  0.00  0.00    +0.000 A 
ATOM      9  N   UNL     1      50.004   8.006  14.462  0.00  0.00    +0.000 NA
ATOM     10  C   UNL     1      50.157   7.643  15.694  0.00  0.00    +0.000 A 
ATOM     11  N   UNL     1      49.395   6.701  16.333  0.00  0.00    +0.000 N 
ATOM     12  C   UNL     1      48.404   5.998  15.696  0.00  0.00    +0.000 A 
ATOM     13  O   UNL     1      47.837   5.067  16.259  0.00  0.00    +0.000 OA
ATOM     14  C   UNL     1      48.144   6.415  14.334  0.00  0.00    +0.000 A 
ATOM     15  H   UNL     1      49.593   6.431  17.283  0.00  0.00    +0.000 HD
ENDBRANCH   2   5
BRANCH   3  16
ATOM     16  C   UNL     1      43.564   4.769  13.190  0.00  0.00    +0.000 C 
BRANCH  16  17
ATOM     17  C   UNL     1      43.019   4.459  11.784  0.00  0.00    +0.000 C 
ATOM     18  C   UNL     1      43.488   5.464  10.718  0.00  0.00    +0.000 C 
ATOM     19  C   UNL     1      44.986   5.352  10.439  0.00  0.00    +0.000 C 
ATOM     20  C   UNL     1      45.398   3.935   9.995  0.00  0.00    +0.000 C 
ATOM     21  C   UNL     1      44.897   2.895  11.019  0.00  0.00    +0.000 C 
ATOM     22  C   UNL     1      43.411   3.034  11.364  0.00  0.00    +0.000 C 
BRANCH  20  23
ATOM     23  C   UNL     1      44.915   3.573   8.568  0.00  0.00    +0.000 C 
BRANCH  23  24
ATOM     24  C   UNL     1      45.905   2.789   7.737  0.00  0.00    +0.000 A 
ATOM     25  C   UNL     1      46.296   1.491   8.081  0.00  0.00    +0.000 A 
ATOM     26  C   UNL     1      47.248   0.853   7.298  0.00  0.00    +0.000 A 
ATOM     27  N   UNL     1      47.809   1.398   6.198  0.00  0.00    +0.000 NA
ATOM     28  C   UNL     1      47.392   2.635   5.860  0.00  0.00    +0.000 A 
ATOM     29  C   UNL     1      46.457   3.359   6.586  0.00  0.00    +0.000 A 
ENDBRANCH  23  24
ENDBRANCH  20  23
ENDBRANCH  16  17
ENDBRANCH   3  16
TORSDOF 5
ENDMDL
MODEL 4
REMARK VINA RESULT:    -7.925      2.212      2.766
REMARK INTER + INTRA:         -10.987
REMARK INTER:                 -10.633
REMARK INTRA:                  -0.354
REMARK UNBOUND:                -0.745
REMARK  Name = 
REMARK  5 active torsions:
REMARK  status: ('A' for Active; 'I' for Inactive)
REMARK    1  A    between atoms: C_2  and  C_18
REMARK    2  A    between atoms: N_3  and  C_4
REMARK    3  A    between atoms: C_4  and  C_5
REMARK    4  A    between atoms: C_8  and  C_9
REMARK    5  A    between atoms: C_9  and  C_10
REMARK                            x       y       z     vdW  Elec       q    Type
REMARK                         _______ _______ _______ _____ _____    ______ ____
ROOT
ATOM      1  O   UNL     1      46.648   3.331  17.123  0.00  0.00    +0.000 OA
ATOM      2  C   UNL     1      47.442   4.105  16.598  0.00  0.00    +0.000 C 
ATOM      3  N   UNL     1      47.138   4.823  15.472  0.00  0.00    +0.000 N 
ATOM      4  H   UNL     1      47.864   5.362  15.012  0.00  0.00    +0.000 HD
ENDROOT
BRANCH   2   5
ATOM      5  C   UNL     1      48.779   4.331  17.156  0.00  0.00    +0.000 A 
ATOM      6  C   UNL     1      49.094   5.546  17.747  0.00  0.00    +0.000 A 
ATOM      7  S   UNL     1      50.672   5.593  18.398  0.00  0.00    +0.000 S 
ATOM      8  C   UNL     1      50.976   3.985  17.928  0.00  0.00    +0.000 A 
ATOM      9  N   UNL     1      52.146   3.372  18.235  0.00  0.00    +0.000 NA
ATOM     10  C   UNL     1      52.226   2.142  17.841  0.00  0.00    +0.000 A 
ATOM     11  N   UNL     1      51.248   1.475  17.153  0.00  0.00    +0.000 N 
ATOM     12  C   UNL     1      50.080   2.078  16.762  0.00  0.00    +0.000 A 
ATOM     13  O   UNL     1      49.290   1.492  16.029  0.00  0.00    +0.000 OA
ATOM     14  C   UNL     1      49.909   3.435  17.238  0.00  0.00    +0.000 A 
ATOM     15  H   UNL     1      51.390   0.529  16.837  0.00  0.00    +0.000 HD
ENDBRANCH   2   5
BRANCH   3  16
ATOM     16  C   UNL     1      45.901   4.670  14.749  0.00  0.00    +0.000 C 
BRANCH  16  17
ATOM     17  C   UNL     1      45.982   5.221  13.315  0.00  0.00    +0.000 C 
ATOM     18  C   UNL     1      46.305   4.141  12.268  0.00  0.00    +0.000 C 
ATOM     19  C   UNL     1      45.157   3.147  12.093  0.00  0.00    +0.000 C 
ATOM     20  C   UNL     1      43.837   3.836  11.699  0.00  0.00    +0.000 C 
ATOM     21  C   UNL     1      43.509   4.962  12.701  0.00  0.00    +0.000 C 
ATOM     22  C   UNL     1      44.671   5.932  12.942  0.00  0.00    +0.000 C 
BRANCH  20  23
ATOM     23  C   UNL     1      43.836   4.379  10.247  0.00  0.00    +0.000 C 
BRANCH  23  24
ATOM     24  C   UNL     1      44.739   3.639   9.287  0.00  0.00    +0.000 A 
ATOM     25  C   UNL     1      44.809   2.243   9.263  0.00  0.00    +0.000 A 
ATOM     26  C   UNL     1      45.699   1.636   8.388  0.00  0.00    +0.000 A 
ATOM     27  N   UNL     1      46.493   2.309   7.529  0.00  0.00    +0.000 NA
ATOM     28  C   UNL     1      46.384   3.654   7.540  0.00  0.00    +0.000 A 
ATOM     29  C   UNL     1      45.535   4.353   8.386  0.00  0.00    +0.000 A 
ENDBRANCH  23  24
ENDBRANCH  20  23
ENDBRANCH  16  17
ENDBRANCH   3  16
TORSDOF 5
ENDMDL
MODEL 5
REMARK VINA RESULT:    -7.774      3.078      4.119
REMARK INTER + INTRA:         -10.792
REMARK INTER:                 -10.493
REMARK INTRA:                  -0.299
REMARK UNBOUND:                -0.745
REMARK  Name = 
REMARK  5 active torsions:
REMARK  status: ('A' for Active; 'I' for Inactive)
REMARK    1  A    between atoms: C_2  and  C_18
REMARK    2  A    between atoms: N_3  and  C_4
REMARK    3  A    between atoms: C_4  and  C_5
REMARK    4  A    between atoms: C_8  and  C_9
REMARK    5  A    between atoms: C_9  and  C_10
REMARK                            x       y       z     vdW  Elec       q    Type
REMARK                         _______ _______ _______ _____ _____    ______ ____
ROOT
ATOM      1  O   UNL     1      46.188   4.990  14.082  0.00  0.00    +0.000 OA
ATOM      2  C   UNL     1      45.977   5.932  13.325  0.00  0.00    +0.000 C 
ATOM      3  N   UNL     1      44.726   6.244  12.864  0.00  0.00    +0.000 N 
ATOM      4  H   UNL     1      44.619   6.960  12.153  0.00  0.00    +0.000 HD
ENDROOT
BRANCH   2   5
ATOM      5  C   UNL     1      47.060   6.810  12.871  0.00  0.00    +0.000 A 
ATOM      6  C   UNL     1      48.336   6.301  12.670  0.00  0.00    +0.000 A 
ATOM      7  S   UNL     1      49.441   7.459  12.076  0.00  0.00    +0.000 S 
ATOM      8  C   UNL     1      48.245   8.671  12.049  0.00  0.00    +0.000 A 
ATOM      9  N   UNL     1      48.516   9.916  11.584  0.00  0.00    +0.000 NA
ATOM     10  C   UNL     1      47.506  10.724  11.595  0.00  0.00    +0.000 A 
ATOM     11  N   UNL     1      46.253  10.404  12.046  0.00  0.00    +0.000 N 
ATOM     12  C   UNL     1      45.954   9.181  12.589  0.00  0.00    +0.000 A 
ATOM     13  O   UNL     1      44.861   8.978  13.108  0.00  0.00    +0.000 OA
ATOM     14  C   UNL     1      47.032   8.215  12.536  0.00  0.00    +0.000 A 
ATOM     15  H   UNL     1      45.518  11.093  12.068  0.00  0.00    +0.000 HD
ENDBRANCH   2   5
BRANCH   3  16
ATOM     16  C   UNL     1      43.560   5.446  13.147  0.00  0.00    +0.000 C 
BRANCH  16  17
ATOM     17  C   UNL     1      42.978   4.782  11.887  0.00  0.00    +0.000 C 
ATOM     18  C   UNL     1      43.476   5.421  10.580  0.00  0.00    +0.000 C 
ATOM     19  C   UNL     1      44.963   5.160  10.341  0.00  0.00    +0.000 C 
ATOM     20  C   UNL     1      45.300   3.657  10.313  0.00  0.00    +0.000 C 
ATOM     21  C   UNL     1      44.766   2.973  11.589  0.00  0.00    +0.000 C 
ATOM     22  C   UNL     1      43.294   3.278  11.884  0.00  0.00    +0.000 C 
BRANCH  20  23
ATOM     23  C   UNL     1      44.776   2.934   9.046  0.00  0.00    +0.000 C 
BRANCH  23  24
ATOM     24  C   UNL     1      45.850   2.390   8.131  0.00  0.00    +0.000 A 
ATOM     25  C   UNL     1      46.177   1.031   8.100  0.00  0.00    +0.000 A 
ATOM     26  C   UNL     1      47.209   0.614   7.270  0.00  0.00    +0.000 A 
ATOM     27  N   UNL     1      47.909   1.438   6.463  0.00  0.00    +0.000 NA
ATOM     28  C   UNL     1      47.554   2.740   6.478  0.00  0.00    +0.000 A 
ATOM     29  C   UNL     1      46.547   3.254   7.282  0.00  0.00    +0.000 A 
ENDBRANCH  23  24
ENDBRANCH  20  23
ENDBRANCH  16  17
ENDBRANCH   3  16
TORSDOF 5
ENDMDL
MODEL 6
REMARK VINA RESULT:    -7.668      3.112      3.817
REMARK INTER + INTRA:         -10.654
REMARK INTER:                 -10.128
REMARK INTRA:                  -0.527
REMARK UNBOUND:                -0.745
REMARK  Name = 
REMARK  5 active torsions:
REMARK  status: ('A' for Active; 'I' for Inactive)
REMARK    1  A    between atoms: C_2  and  C_18
REMARK    2  A    between atoms: N_3  and  C_4
REMARK    3  A    between atoms: C_4  and  C_5
REMARK    4  A    between atoms: C_8  and  C_9
REMARK    5  A    between atoms: C_9  and  C_10
REMARK                            x       y       z     vdW  Elec       q    Type
REMARK                         _______ _______ _______ _____ _____    ______ ____
ROOT
ATOM      1  O   UNL     1      44.805   7.966  11.356  0.00  0.00    +0.000 OA
ATOM      2  C   UNL     1      45.636   7.796  12.242  0.00  0.00    +0.000 C 
ATOM      3  N   UNL     1      45.555   6.767  13.143  0.00  0.00    +0.000 N 
ATOM      4  H   UNL     1      46.201   6.734  13.925  0.00  0.00    +0.000 HD
ENDROOT
BRANCH   2   5
ATOM      5  C   UNL     1      46.795   8.681  12.390  0.00  0.00    +0.000 A 
ATOM      6  C   UNL     1      46.671  10.042  12.152  0.00  0.00    +0.000 A 
ATOM      7  S   UNL     1      48.109  10.915  12.442  0.00  0.00    +0.000 S 
ATOM      8  C   UNL     1      48.938   9.504  12.915  0.00  0.00    +0.000 A 
ATOM      9  N   UNL     1      50.221   9.554  13.349  0.00  0.00    +0.000 NA
ATOM     10  C   UNL     1      50.713   8.411  13.703  0.00  0.00    +0.000 A 
ATOM     11  N   UNL     1      50.041   7.219  13.647  0.00  0.00    +0.000 N 
ATOM     12  C   UNL     1      48.767   7.113  13.149  0.00  0.00    +0.000 A 
ATOM     13  O   UNL     1      48.250   6.013  12.985  0.00  0.00    +0.000 OA
ATOM     14  C   UNL     1      48.145   8.374  12.803  0.00  0.00    +0.000 A 
ATOM     15  H   UNL     1      50.495   6.356  13.898  0.00  0.00    +0.000 HD
ENDBRANCH   2   5
BRANCH   3  16
ATOM     16  C   UNL     1      44.445   5.848  13.193  0.00  0.00    +0.000 C 
BRANCH  16  17
ATOM     17  C   UNL     1      44.859   4.403  12.865  0.00  0.00    +0.000 C 
ATOM     18  C   UNL     1      43.671   3.506  12.476  0.00  0.00    +0.000 C 
ATOM     19  C   UNL     1      43.063   3.906  11.132  0.00  0.00    +0.000 C 
ATOM     20  C   UNL     1      44.094   3.881   9.988  0.00  0.00    +0.000 C 
ATOM     21  C   UNL     1      45.325   4.730  10.368  0.00  0.00    +0.000 C 
ATOM     22  C   UNL     1      45.909   4.390  11.743  0.00  0.00    +0.000 C 
BRANCH  20  23
ATOM     23  C   UNL     1      44.524   2.449   9.580  0.00  0.00    +0.000 C 
BRANCH  23  24
ATOM     24  C   UNL     1      45.490   2.378   8.420  0.00  0.00    +0.000 A 
ATOM     25  C   UNL     1      46.301   1.260   8.199  0.00  0.00    +0.000 A 
ATOM     26  C   UNL     1      47.201   1.289   7.143  0.00  0.00    +0.000 A 
ATOM     27  N   UNL     1      47.329   2.325   6.288  0.00  0.00    +0.000 NA
ATOM     28  C   UNL     1      46.513   3.379   6.494  0.00  0.00    +0.000 A 
ATOM     29  C   UNL     1      45.591   3.450   7.528  0.00  0.00    +0.000 A 
ENDBRANCH  23  24
ENDBRANCH  20  23
ENDBRANCH  16  17
ENDBRANCH   3  16
TORSDOF 5
ENDMDL
MODEL 7
REMARK VINA RESULT:    -7.100      1.648      2.228
REMARK INTER + INTRA:          -9.920
REMARK INTER:                  -8.865
REMARK INTRA:                  -1.055
REMARK UNBOUND:                -0.745
REMARK  Name = 
REMARK  5 active torsions:
REMARK  status: ('A' for Active; 'I' for Inactive)
REMARK    1  A    between atoms: C_2  and  C_18
REMARK    2  A    between atoms: N_3  and  C_4
REMARK    3  A    between atoms: C_4  and  C_5
REMARK    4  A    between atoms: C_8  and  C_9
REMARK    5  A    between atoms: C_9  and  C_10
REMARK                            x       y       z     vdW  Elec       q    Type
REMARK                         _______ _______ _______ _____ _____    ______ ____
ROOT
ATOM      1  O   UNL     1      47.025   7.764  11.936  0.00  0.00    +0.000 OA
ATOM      2  C   UNL     1      46.970   7.425  13.114  0.00  0.00    +0.000 C 
ATOM      3  N   UNL     1      45.913   6.725  13.633  0.00  0.00    +0.000 N 
ATOM      4  H   UNL     1      45.861   6.568  14.634  0.00  0.00    +0.000 HD
ENDROOT
BRANCH   2   5
ATOM      5  C   UNL     1      48.053   7.733  14.054  0.00  0.00    +0.000 A 
ATOM      6  C   UNL     1      48.701   8.959  13.997  0.00  0.00    +0.000 A 
ATOM      7  S   UNL     1      49.882   9.158  15.214  0.00  0.00    +0.000 S 
ATOM      8  C   UNL     1      49.550   7.620  15.868  0.00  0.00    +0.000 A 
ATOM      9  N   UNL     1      50.185   7.178  16.981  0.00  0.00    +0.000 NA
ATOM     10  C   UNL     1      49.811   6.005  17.381  0.00  0.00    +0.000 A 
ATOM     11  N   UNL     1      48.872   5.228  16.757  0.00  0.00    +0.000 N 
ATOM     12  C   UNL     1      48.258   5.607  15.590  0.00  0.00    +0.000 A 
ATOM     13  O   UNL     1      47.528   4.827  14.987  0.00  0.00    +0.000 OA
ATOM     14  C   UNL     1      48.589   6.942  15.137  0.00  0.00    +0.000 A 
ATOM     15  H   UNL     1      48.656   4.304  17.095  0.00  0.00    +0.000 HD
ENDBRANCH   2   5
BRANCH   3  16
ATOM     16  C   UNL     1      44.731   6.404  12.874  0.00  0.00    +0.000 C 
BRANCH  16  17
ATOM     17  C   UNL     1      44.580   4.893  12.626  0.00  0.00    +0.000 C 
ATOM     18  C   UNL     1      43.297   4.531  11.858  0.00  0.00    +0.000 C 
ATOM     19  C   UNL     1      43.333   5.023  10.411  0.00  0.00    +0.000 C 
ATOM     20  C   UNL     1      44.544   4.475   9.633  0.00  0.00    +0.000 C 
ATOM     21  C   UNL     1      45.847   4.776  10.403  0.00  0.00    +0.000 C 
ATOM     22  C   UNL     1      45.807   4.352  11.875  0.00  0.00    +0.000 C 
BRANCH  20  23
ATOM     23  C   UNL     1      44.437   2.962   9.313  0.00  0.00    +0.000 C 
BRANCH  23  24
ATOM     24  C   UNL     1      45.445   2.446   8.312  0.00  0.00    +0.000 A 
ATOM     25  C   UNL     1      45.987   1.161   8.402  0.00  0.00    +0.000 A 
ATOM     26  C   UNL     1      46.946   0.776   7.476  0.00  0.00    +0.000 A 
ATOM     27  N   UNL     1      47.378   1.560   6.465  0.00  0.00    +0.000 NA
ATOM     28  C   UNL     1      46.816   2.783   6.372  0.00  0.00    +0.000 A 
ATOM     29  C   UNL     1      45.861   3.263   7.256  0.00  0.00    +0.000 A 
ENDBRANCH  23  24
ENDBRANCH  20  23
ENDBRANCH  16  17
ENDBRANCH   3  16
TORSDOF 5
ENDMDL
MODEL 8
REMARK VINA RESULT:    -6.997      2.042      2.812
REMARK INTER + INTRA:          -9.787
REMARK INTER:                  -9.215
REMARK INTRA:                  -0.572
REMARK UNBOUND:                -0.745
REMARK  Name = 
REMARK  5 active torsions:
REMARK  status: ('A' for Active; 'I' for Inactive)
REMARK    1  A    between atoms: C_2  and  C_18
REMARK    2  A    between atoms: N_3  and  C_4
REMARK    3  A    between atoms: C_4  and  C_5
REMARK    4  A    between atoms: C_8  and  C_9
REMARK    5  A    between atoms: C_9  and  C_10
REMARK                            x       y       z     vdW  Elec       q    Type
REMARK                         _______ _______ _______ _____ _____    ______ ____
ROOT
ATOM      1  O   UNL     1      46.446   3.258  17.153  0.00  0.00    +0.000 OA
ATOM      2  C   UNL     1      47.377   3.733  16.511  0.00  0.00    +0.000 C 
ATOM      3  N   UNL     1      47.188   4.491  15.386  0.00  0.00    +0.000 N 
ATOM      4  H   UNL     1      47.990   4.765  14.827  0.00  0.00    +0.000 HD
ENDROOT
BRANCH   2   5
ATOM      5  C   UNL     1      48.771   3.534  16.918  0.00  0.00    +0.000 A 
ATOM      6  C   UNL     1      49.324   2.261  16.925  0.00  0.00    +0.000 A 
ATOM      7  S   UNL     1      50.975   2.242  17.361  0.00  0.00    +0.000 S 
ATOM      8  C   UNL     1      51.009   3.936  17.535  0.00  0.00    +0.000 A 
ATOM      9  N   UNL     1      52.155   4.588  17.846  0.00  0.00    +0.000 NA
ATOM     10  C   UNL     1      52.039   5.875  17.916  0.00  0.00    +0.000 A 
ATOM     11  N   UNL     1      50.873   6.567  17.719  0.00  0.00    +0.000 N 
ATOM     12  C   UNL     1      49.677   5.942  17.473  0.00  0.00    +0.000 A 
ATOM     13  O   UNL     1      48.632   6.583  17.441  0.00  0.00    +0.000 OA
ATOM     14  C   UNL     1      49.765   4.505  17.315  0.00  0.00    +0.000 A 
ATOM     15  H   UNL     1      50.839   7.567  17.831  0.00  0.00    +0.000 HD
ENDBRANCH   2   5
BRANCH   3  16
ATOM     16  C   UNL     1      45.892   4.723  14.800  0.00  0.00    +0.000 C 
BRANCH  16  17
ATOM     17  C   UNL     1      45.982   5.273  13.366  0.00  0.00    +0.000 C 
ATOM     18  C   UNL     1      46.329   4.196  12.325  0.00  0.00    +0.000 C 
ATOM     19  C   UNL     1      45.196   3.187  12.139  0.00  0.00    +0.000 C 
ATOM     20  C   UNL     1      43.872   3.857  11.730  0.00  0.00    +0.000 C 
ATOM     21  C   UNL     1      43.519   4.982  12.726  0.00  0.00    +0.000 C 
ATOM     22  C   UNL     1      44.666   5.966  12.978  0.00  0.00    +0.000 C 
BRANCH  20  23
ATOM     23  C   UNL     1      43.880   4.399  10.277  0.00  0.00    +0.000 C 
BRANCH  23  24
ATOM     24  C   UNL     1      44.765   3.638   9.316  0.00  0.00    +0.000 A 
ATOM     25  C   UNL     1      44.812   2.241   9.301  0.00  0.00    +0.000 A 
ATOM     26  C   UNL     1      45.688   1.614   8.424  0.00  0.00    +0.000 A 
ATOM     27  N   UNL     1      46.488   2.270   7.558  0.00  0.00    +0.000 NA
ATOM     28  C   UNL     1      46.401   3.617   7.561  0.00  0.00    +0.000 A 
ATOM     29  C   UNL     1      45.568   4.334   8.407  0.00  0.00    +0.000 A 
ENDBRANCH  23  24
ENDBRANCH  20  23
ENDBRANCH  16  17
ENDBRANCH   3  16
TORSDOF 5
ENDMDL
MODEL 9
REMARK VINA RESULT:    -6.917      2.916      4.423
REMARK INTER + INTRA:          -9.683
REMARK INTER:                  -8.960
REMARK INTRA:                  -0.724
REMARK UNBOUND:                -0.745
REMARK  Name = 
REMARK  5 active torsions:
REMARK  status: ('A' for Active; 'I' for Inactive)
REMARK    1  A    between atoms: C_2  and  C_18
REMARK    2  A    between atoms: N_3  and  C_4
REMARK    3  A    between atoms: C_4  and  C_5
REMARK    4  A    between atoms: C_8  and  C_9
REMARK    5  A    between atoms: C_9  and  C_10
REMARK                            x       y       z     vdW  Elec       q    Type
REMARK                         _______ _______ _______ _____ _____    ______ ____
ROOT
ATOM      1  O   UNL     1      48.128   4.980  17.356  0.00  0.00    +0.000 OA
ATOM      2  C   UNL     1      49.237   5.329  16.963  0.00  0.00    +0.000 C 
ATOM      3  N   UNL     1      49.411   6.313  16.026  0.00  0.00    +0.000 N 
ATOM      4  H   UNL     1      50.338   6.487  15.650  0.00  0.00    +0.000 HD
ENDROOT
BRANCH   2   5
ATOM      5  C   UNL     1      50.464   4.724  17.488  0.00  0.00    +0.000 A 
ATOM      6  C   UNL     1      51.380   5.496  18.190  0.00  0.00    +0.000 A 
ATOM      7  S   UNL     1      52.709   4.600  18.779  0.00  0.00    +0.000 S 
ATOM      8  C   UNL     1      52.093   3.150  18.132  0.00  0.00    +0.000 A 
ATOM      9  N   UNL     1      52.727   1.968  18.327  0.00  0.00    +0.000 NA
ATOM     10  C   UNL     1      52.130   0.946  17.804  0.00  0.00    +0.000 A 
ATOM     11  N   UNL     1      50.963   1.004  17.089  0.00  0.00    +0.000 N 
ATOM     12  C   UNL     1      50.327   2.186  16.809  0.00  0.00    +0.000 A 
ATOM     13  O   UNL     1      49.363   2.212  16.051  0.00  0.00    +0.000 OA
ATOM     14  C   UNL     1      50.916   3.353  17.431  0.00  0.00    +0.000 A 
ATOM     15  H   UNL     1      50.571   0.175  16.670  0.00  0.00    +0.000 HD
ENDBRANCH   2   5
BRANCH   3  16
ATOM     16  C   UNL     1      48.317   6.961  15.349  0.00  0.00    +0.000 C 
BRANCH  16  17
ATOM     17  C   UNL     1      48.431   6.870  13.817  0.00  0.00    +0.000 C 
ATOM     18  C   UNL     1      47.878   5.554  13.245  0.00  0.00    +0.000 C 
ATOM     19  C   UNL     1      46.359   5.455  13.392  0.00  0.00    +0.000 C 
ATOM     20  C   UNL     1      45.625   6.630  12.720  0.00  0.00    +0.000 C 
ATOM     21  C   UNL     1      46.193   7.970  13.234  0.00  0.00    +0.000 C 
ATOM     22  C   UNL     1      47.721   8.063  13.159  0.00  0.00    +0.000 C 
BRANCH  20  23
ATOM     23  C   UNL     1      45.667   6.578  11.172  0.00  0.00    +0.000 C 
BRANCH  23  24
ATOM     24  C   UNL     1      45.161   5.290  10.562  0.00  0.00    +0.000 A 
ATOM     25  C   UNL     1      44.208   4.492  11.202  0.00  0.00    +0.000 A 
ATOM     26  C   UNL     1      43.830   3.298  10.604  0.00  0.00    +0.000 A 
ATOM     27  N   UNL     1      44.307   2.862   9.419  0.00  0.00    +0.000 NA
ATOM     28  C   UNL     1      45.197   3.664   8.798  0.00  0.00    +0.000 A 
ATOM     29  C   UNL     1      45.647   4.867   9.321  0.00  0.00    +0.000 A 
ENDBRANCH  23  24
ENDBRANCH  20  23
ENDBRANCH  16  17
ENDBRANCH   3  16
TORSDOF 5
ENDMDL
