MODEL 1
REMARK VINA RESULT:    -6.969      0.000      0.000
REMARK INTER + INTRA:         -12.863
REMARK INTER:                 -11.450
REMARK INTRA:                  -1.413
REMARK UNBOUND:                -1.413
REMARK  Name = 
REMARK  12 active torsions:
REMARK  status: ('A' for Active; 'I' for Inactive)
REMARK    1  A    between atoms: N_1  and  C_2
REMARK    2  A    between atoms: C_2  and  C_3
REMARK    3  A    between atoms: C_3  and  C_4
REMARK    4  A    between atoms: C_4  and  C_5
REMARK    5  A    between atoms: C_5  and  N_6
REMARK    6  A    between atoms: N_9  and  C_10
REMARK    7  A    between atoms: C_10  and  C_11
REMARK    8  A    between atoms: C_11  and  N_12
REMARK    9  A    between atoms: C_11  and  C_13
REMARK   10  A    between atoms: C_16  and  C_17
REMARK   11  A    between atoms: C_17  and  N_18
REMARK   12  A    between atoms: C_19  and  C_21
REMARK                            x       y       z     vdW  Elec       q    Type
REMARK                         _______ _______ _______ _____ _____    ______ ____
ROOT
ATOM      1  C   UNL     1      45.595   7.350  11.797  0.00  0.00    +0.000 A 
ATOM      2  C   UNL     1      45.758   8.594  12.404  0.00  0.00    +0.000 A 
ATOM      3  C   UNL     1      46.957   8.873  13.040  0.00  0.00    +0.000 A 
ATOM      4  C   UNL     1      47.968   7.910  13.053  0.00  0.00    +0.000 A 
ATOM      5  C   UNL     1      47.716   6.698  12.425  0.00  0.00    +0.000 A 
ATOM      6  N   UNL     1      46.561   6.392  11.807  0.00  0.00    +0.000 NA
ENDROOT
BRANCH   1   7
ATOM      7  C   UNL     1      44.287   7.000  11.116  0.00  0.00    +0.000 C 
BRANCH   7   8
ATOM      8  N   UNL     1      43.364   8.151  11.173  0.00  0.00    +0.000 NA
ATOM      9  H   UNL     1      43.888   8.939  11.558  0.00  0.00    +0.000 HD
ATOM     10  H   UNL     1      42.586   7.958  11.792  0.00  0.00    +0.000 HD
ENDBRANCH   7   8
BRANCH   7  11
ATOM     11  C   UNL     1      43.703   5.704  11.764  0.00  0.00    +0.000 C 
BRANCH  11  15
ATOM     12  N   UNL     1      45.559   3.078   9.923  0.00  0.00    +0.000 NA
ATOM     13  C   UNL     1      44.916   2.917  11.250  0.00  0.00    +0.000 C 
ATOM     14  C   UNL     1      43.420   3.300  11.251  0.00  0.00    +0.000 C 
ATOM     15  N   UNL     1      43.180   4.689  10.813  0.00  0.00    +0.000 NA
ATOM     16  C   UNL     1      43.792   4.868   9.478  0.00  0.00    +0.000 C 
ATOM     17  C   UNL     1      45.281   4.447   9.418  0.00  0.00    +0.000 C 
BRANCH  12  18
ATOM     18  C   UNL     1      45.055   2.033   9.020  0.00  0.00    +0.000 C 
BRANCH  18  19
ATOM     19  C   UNL     1      45.612   2.137   7.606  0.00  0.00    +0.000 C 
BRANCH  19  20
ATOM     20  C   UNL     1      46.985   1.487   7.555  0.00  0.00    +0.000 C 
BRANCH  20  21
ATOM     21  C   UNL     1      47.971   2.403   6.848  0.00  0.00    +0.000 C 
BRANCH  21  22
ATOM     22  N   UNL     1      48.323   1.812   5.565  0.00  0.00    +0.000 NA
ATOM     23  H   UNL     1      47.628   2.093   4.862  0.00  0.00    +0.000 HD
ATOM     24  H   UNL     1      48.274   0.803   5.622  0.00  0.00    +0.000 HD
ENDBRANCH  21  22
ENDBRANCH  20  21
ENDBRANCH  19  20
ENDBRANCH  18  19
ENDBRANCH  12  18
ENDBRANCH  11  15
ENDBRANCH   7  11
ENDBRANCH   1   7
BRANCH   4  25
ATOM     25  C   UNL     1      49.254   8.111  13.796  0.00  0.00    +0.000 C 
BRANCH  25  26
ATOM     26  N   UNL     1      49.355   7.172  14.880  0.00  0.00    +0.000 N 
ATOM     27  C   UNL     1      48.943   7.497  16.146  0.00  0.00    +0.000 C 
ATOM     28  O   UNL     1      48.439   8.581  16.409  0.00  0.00    +0.000 OA
ATOM     29  H   UNL     1      49.989   6.390  14.754  0.00  0.00    +0.000 HD
BRANCH  27  30
ATOM     30  C   UNL     1      49.081   6.440  17.157  0.00  0.00    +0.000 A 
ATOM     31  C   UNL     1      49.894   6.652  18.261  0.00  0.00    +0.000 A 
ATOM     32  S   UNL     1      49.905   5.346  19.359  0.00  0.00    +0.000 S 
ATOM     33  C   UNL     1      48.865   4.434  18.372  0.00  0.00    +0.000 A 
ATOM     34  N   UNL     1      48.490   3.177  18.723  0.00  0.00    +0.000 NA
ATOM     35  C   UNL     1      47.714   2.588  17.874  0.00  0.00    +0.000 A 
ATOM     36  N   UNL     1      47.276   3.152  16.699  0.00  0.00    +0.000 N 
ATOM     37  C   UNL     1      47.598   4.433  16.320  0.00  0.00    +0.000 A 
ATOM     38  O   UNL     1      47.154   4.930  15.288  0.00  0.00    +0.000 OA
ATOM     39  C   UNL     1      48.487   5.128  17.235  0.00  0.00    +0.000 A 
ATOM     40  H   UNL     1      46.656   2.647  16.084  0.00  0.00    +0.000 HD
ENDBRANCH  27  30
ENDBRANCH  25  26
ENDBRANCH   4  25
TORSDOF 12
ENDMDL
MODEL 2
REMARK VINA RESULT:    -6.846      1.807      2.190
REMARK INTER + INTRA:         -12.661
REMARK INTER:                 -11.665
REMARK INTRA:                  -0.997
REMARK UNBOUND:                -1.413
REMARK  Name = 
REMARK  12 active torsions:
REMARK  status: ('A' for Active; 'I' for Inactive)
REMARK    1  A    between atoms: N_1  and  C_2
REMARK    2  A    between atoms: C_2  and  C_3
REMARK    3  A    between atoms: C_3  and  C_4
REMARK    4  A    between atoms: C_4  and  C_5
REMARK    5  A    between atoms: C_5  and  N_6
REMARK    6  A    between atoms: N_9  and  C_10
REMARK    7  A    between atoms: C_10  and  C_11
REMARK    8  A    between atoms: C_11  and  N_12
REMARK    9  A    between atoms: C_11  and  C_13
REMARK   10  A    between atoms: C_16  and  C_17
REMARK   11  A    between atoms: C_17  and  N_18
REMARK   12  A    between atoms: C_19  and  C_21
REMARK                            x       y       z     vdW  Elec       q    Type
REMARK                         _______ _______ _______ _____ _____    ______ ____
ROOT
ATOM      1  C   UNL     1      44.885   5.874  12.794  0.00  0.00    +0.000 A 
ATOM      2  C   UNL     1      45.054   7.242  12.590  0.00  0.00    +0.000 A 
ATOM      3  C   UNL     1      46.243   7.833  12.988  0.00  0.00    +0.000 A 
ATOM      4  C   UNL     1      47.237   7.049  13.576  0.00  0.00    +0.000 A 
ATOM      5  C   UNL     1      46.979   5.694  13.742  0.00  0.00    +0.000 A 
ATOM      6  N   UNL     1      45.834   5.092  13.376  0.00  0.00    +0.000 NA
ENDROOT
BRANCH   1   7
ATOM      7  C   UNL     1      43.587   5.199  12.397  0.00  0.00    +0.000 C 
BRANCH   7   8
ATOM      8  N   UNL     1      42.657   5.180  13.543  0.00  0.00    +0.000 NA
ATOM      9  H   UNL     1      42.001   5.954  13.413  0.00  0.00    +0.000 HD
ATOM     10  H   UNL     1      43.154   5.332  14.412  0.00  0.00    +0.000 HD
ENDBRANCH   7   8
BRANCH   7  11
ATOM     11  C   UNL     1      43.901   3.779  11.829  0.00  0.00    +0.000 C 
BRANCH  11  15
ATOM     12  N   UNL     1      45.976   3.748   8.759  0.00  0.00    +0.000 NA
ATOM     13  C   UNL     1      45.652   2.569   9.599  0.00  0.00    +0.000 C 
ATOM     14  C   UNL     1      44.135   2.370   9.808  0.00  0.00    +0.000 C 
ATOM     15  N   UNL     1      43.479   3.540  10.424  0.00  0.00    +0.000 NA
ATOM     16  C   UNL     1      43.767   4.727   9.589  0.00  0.00    +0.000 C 
ATOM     17  C   UNL     1      45.277   4.936   9.311  0.00  0.00    +0.000 C 
BRANCH  12  18
ATOM     18  C   UNL     1      45.589   3.463   7.369  0.00  0.00    +0.000 C 
BRANCH  18  19
ATOM     19  C   UNL     1      46.776   3.178   6.458  0.00  0.00    +0.000 C 
BRANCH  19  20
ATOM     20  C   UNL     1      46.853   1.684   6.183  0.00  0.00    +0.000 C 
BRANCH  20  21
ATOM     21  C   UNL     1      47.588   0.982   7.313  0.00  0.00    +0.000 C 
BRANCH  21  22
ATOM     22  N   UNL     1      46.836  -0.203   7.696  0.00  0.00    +0.000 NA
ATOM     23  H   UNL     1      46.975  -0.382   8.698  0.00  0.00    +0.000 HD
ATOM     24  H   UNL     1      47.197  -1.016   7.213  0.00  0.00    +0.000 HD
ENDBRANCH  21  22
ENDBRANCH  20  21
ENDBRANCH  19  20
ENDBRANCH  18  19
ENDBRANCH  12  18
ENDBRANCH  11  15
ENDBRANCH   7  11
ENDBRANCH   1   7
BRANCH   4  25
ATOM     25  C   UNL     1      48.508   7.636  14.108  0.00  0.00    +0.000 C 
BRANCH  25  26
ATOM     26  N   UNL     1      48.500   7.622  15.546  0.00  0.00    +0.000 N 
ATOM     27  C   UNL     1      49.427   6.907  16.258  0.00  0.00    +0.000 C 
ATOM     28  O   UNL     1      50.324   6.278  15.712  0.00  0.00    +0.000 OA
ATOM     29  H   UNL     1      47.640   7.908  16.004  0.00  0.00    +0.000 HD
BRANCH  27  30
ATOM     30  C   UNL     1      49.320   6.994  17.720  0.00  0.00    +0.000 A 
ATOM     31  C   UNL     1      49.508   8.217  18.348  0.00  0.00    +0.000 A 
ATOM     32  S   UNL     1      49.302   8.153  20.041  0.00  0.00    +0.000 S 
ATOM     33  C   UNL     1      49.004   6.480  19.998  0.00  0.00    +0.000 A 
ATOM     34  N   UNL     1      48.775   5.780  21.138  0.00  0.00    +0.000 NA
ATOM     35  C   UNL     1      48.584   4.514  20.966  0.00  0.00    +0.000 A 
ATOM     36  N   UNL     1      48.600   3.885  19.743  0.00  0.00    +0.000 N 
ATOM     37  C   UNL     1      48.790   4.556  18.560  0.00  0.00    +0.000 A 
ATOM     38  O   UNL     1      48.750   3.978  17.476  0.00  0.00    +0.000 OA
ATOM     39  C   UNL     1      49.030   5.982  18.706  0.00  0.00    +0.000 A 
ATOM     40  H   UNL     1      48.426   2.893  19.671  0.00  0.00    +0.000 HD
ENDBRANCH  27  30
ENDBRANCH  25  26
ENDBRANCH   4  25
TORSDOF 12
ENDMDL
MODEL 3
REMARK VINA RESULT:    -6.140      1.811      2.481
REMARK INTER + INTRA:         -11.501
REMARK INTER:                 -10.295
REMARK INTRA:                  -1.206
REMARK UNBOUND:                -1.413
REMARK  Name = 
REMARK  12 active torsions:
REMARK  status: ('A' for Active; 'I' for Inactive)
REMARK    1  A    between atoms: N_1  and  C_2
REMARK    2  A    between atoms: C_2  and  C_3
REMARK    3  A    between atoms: C_3  and  C_4
REMARK    4  A    between atoms: C_4  and  C_5
REMARK    5  A    between atoms: C_5  and  N_6
REMARK    6  A    between atoms: N_9  and  C_10
REMARK    7  A    between atoms: C_10  and  C_11
REMARK    8  A    between atoms: C_11  and  N_12
REMARK    9  A    between atoms: C_11  and  C_13
REMARK   10  A    between atoms: C_16  and  C_17
REMARK   11  A    between atoms: C_17  and  N_18
REMARK   12  A    between atoms: C_19  and  C_21
REMARK                            x       y       z     vdW  Elec       q    Type
REMARK                         _______ _______ _______ _____ _____    ______ ____
ROOT
ATOM      1  C   UNL     1      47.064   8.186  12.578  0.00  0.00    +0.000 A 
ATOM      2  C   UNL     1      48.149   8.655  11.841  0.00  0.00    +0.000 A 
ATOM      3  C   UNL     1      49.422   8.518  12.369  0.00  0.00    +0.000 A 
ATOM      4  C   UNL     1      49.587   7.913  13.617  0.00  0.00    +0.000 A 
ATOM      5  C   UNL     1      48.448   7.477  14.281  0.00  0.00    +0.000 A 
ATOM      6  N   UNL     1      47.198   7.604  13.801  0.00  0.00    +0.000 NA
ENDROOT
BRANCH   1   7
ATOM      7  C   UNL     1      45.654   8.345  12.044  0.00  0.00    +0.000 C 
BRANCH   7   8
ATOM      8  N   UNL     1      44.900   9.296  12.884  0.00  0.00    +0.000 NA
ATOM      9  H   UNL     1      43.952   9.347  12.506  0.00  0.00    +0.000 HD
ATOM     10  H   UNL     1      45.309  10.221  12.835  0.00  0.00    +0.000 HD
ENDBRANCH   7   8
BRANCH   7  11
ATOM     11  C   UNL     1      44.983   6.938  11.944  0.00  0.00    +0.000 C 
BRANCH  11  15
ATOM     12  N   UNL     1      44.040   3.601  10.637  0.00  0.00    +0.000 NA
ATOM     13  C   UNL     1      44.278   4.817   9.820  0.00  0.00    +0.000 C 
ATOM     14  C   UNL     1      45.658   5.461  10.077  0.00  0.00    +0.000 C 
ATOM     15  N   UNL     1      45.867   5.833  11.489  0.00  0.00    +0.000 NA
ATOM     16  C   UNL     1      45.660   4.629  12.323  0.00  0.00    +0.000 C 
ATOM     17  C   UNL     1      44.307   3.921  12.062  0.00  0.00    +0.000 C 
BRANCH  12  18
ATOM     18  C   UNL     1      44.896   2.516  10.134  0.00  0.00    +0.000 C 
BRANCH  18  19
ATOM     19  C   UNL     1      44.738   2.266   8.639  0.00  0.00    +0.000 C 
BRANCH  19  20
ATOM     20  C   UNL     1      46.079   2.463   7.950  0.00  0.00    +0.000 C 
BRANCH  20  21
ATOM     21  C   UNL     1      46.741   1.118   7.701  0.00  0.00    +0.000 C 
BRANCH  21  22
ATOM     22  N   UNL     1      47.908   1.319   6.855  0.00  0.00    +0.000 NA
ATOM     23  H   UNL     1      47.811   0.748   6.006  0.00  0.00    +0.000 HD
ATOM     24  H   UNL     1      48.739   0.985   7.324  0.00  0.00    +0.000 HD
ENDBRANCH  21  22
ENDBRANCH  20  21
ENDBRANCH  19  20
ENDBRANCH  18  19
ENDBRANCH  12  18
ENDBRANCH  11  15
ENDBRANCH   7  11
ENDBRANCH   1   7
BRANCH   4  25
ATOM     25  C   UNL     1      50.924   7.811  14.285  0.00  0.00    +0.000 C 
BRANCH  25  26
ATOM     26  N   UNL     1      50.763   7.458  15.670  0.00  0.00    +0.000 N 
ATOM     27  C   UNL     1      51.768   6.844  16.371  0.00  0.00    +0.000 C 
ATOM     28  O   UNL     1      52.857   6.600  15.870  0.00  0.00    +0.000 OA
ATOM     29  H   UNL     1      49.814   7.409  16.025  0.00  0.00    +0.000 HD
BRANCH  27  30
ATOM     30  C   UNL     1      51.482   6.557  17.783  0.00  0.00    +0.000 A 
ATOM     31  C   UNL     1      52.284   7.112  18.770  0.00  0.00    +0.000 A 
ATOM     32  S   UNL     1      51.786   6.717  20.354  0.00  0.00    +0.000 S 
ATOM     33  C   UNL     1      50.514   5.750  19.774  0.00  0.00    +0.000 A 
ATOM     34  N   UNL     1      49.697   5.082  20.627  0.00  0.00    +0.000 NA
ATOM     35  C   UNL     1      48.785   4.368  20.055  0.00  0.00    +0.000 A 
ATOM     36  N   UNL     1      48.618   4.267  18.694  0.00  0.00    +0.000 N 
ATOM     37  C   UNL     1      49.395   4.953  17.792  0.00  0.00    +0.000 A 
ATOM     38  O   UNL     1      49.192   4.883  16.582  0.00  0.00    +0.000 OA
ATOM     39  C   UNL     1      50.449   5.754  18.391  0.00  0.00    +0.000 A 
ATOM     40  H   UNL     1      47.874   3.705  18.306  0.00  0.00    +0.000 HD
ENDBRANCH  27  30
ENDBRANCH  25  26
ENDBRANCH   4  25
TORSDOF 12
ENDMDL
MODEL 4
REMARK VINA RESULT:    -6.113      3.985      9.669
REMARK INTER + INTRA:         -11.456
REMARK INTER:                  -9.023
REMARK INTRA:                  -2.434
REMARK UNBOUND:                -1.413
REMARK  Name = 
REMARK  12 active torsions:
REMARK  status: ('A' for Active; 'I' for Inactive)
REMARK    1  A    between atoms: N_1  and  C_2
REMARK    2  A    between atoms: C_2  and  C_3
REMARK    3  A    between atoms: C_3  and  C_4
REMARK    4  A    between atoms: C_4  and  C_5
REMARK    5  A    between atoms: C_5  and  N_6
REMARK    6  A    between atoms: N_9  and  C_10
REMARK    7  A    between atoms: C_10  and  C_11
REMARK    8  A    between atoms: C_11  and  N_12
REMARK    9  A    between atoms: C_11  and  C_13
REMARK   10  A    between atoms: C_16  and  C_17
REMARK   11  A    between atoms: C_17  and  N_18
REMARK   12  A    between atoms: C_19  and  C_21
REMARK                            x       y       z     vdW  Elec       q    Type
REMARK                         _______ _______ _______ _____ _____    ______ ____
ROOT
ATOM      1  C   UNL     1      51.256   2.921  17.683  0.00  0.00    +0.000 A 
ATOM      2  C   UNL     1      50.545   1.910  17.040  0.00  0.00    +0.000 A 
ATOM      3  C   UNL     1      49.216   2.132  16.715  0.00  0.00    +0.000 A 
ATOM      4  C   UNL     1      48.626   3.357  17.034  0.00  0.00    +0.000 A 
ATOM      5  C   UNL     1      49.411   4.305  17.678  0.00  0.00    +0.000 A 
ATOM      6  N   UNL     1      50.700   4.118  18.015  0.00  0.00    +0.000 NA
ENDROOT
BRANCH   1   7
ATOM      7  C   UNL     1      52.703   2.703  18.078  0.00  0.00    +0.000 C 
BRANCH   7   8
ATOM      8  N   UNL     1      52.898   1.312  18.533  0.00  0.00    +0.000 NA
ATOM      9  H   UNL     1      53.905   1.155  18.601  0.00  0.00    +0.000 HD
ATOM     10  H   UNL     1      52.522   0.657  17.857  0.00  0.00    +0.000 HD
ENDBRANCH   7   8
BRANCH   7  11
ATOM     11  C   UNL     1      53.109   3.767  19.146  0.00  0.00    +0.000 C 
BRANCH  11  15
ATOM     12  N   UNL     1      53.699   6.968  17.375  0.00  0.00    +0.000 NA
ATOM     13  C   UNL     1      53.473   6.813  18.833  0.00  0.00    +0.000 C 
ATOM     14  C   UNL     1      54.449   5.817  19.497  0.00  0.00    +0.000 C 
ATOM     15  N   UNL     1      54.395   4.470  18.899  0.00  0.00    +0.000 NA
ATOM     16  C   UNL     1      54.643   4.596  17.445  0.00  0.00    +0.000 C 
ATOM     17  C   UNL     1      53.718   5.624  16.747  0.00  0.00    +0.000 C 
BRANCH  12  18
ATOM     18  C   UNL     1      54.955   7.705  17.165  0.00  0.00    +0.000 C 
BRANCH  18  19
ATOM     19  C   UNL     1      54.938   8.583  15.920  0.00  0.00    +0.000 C 
BRANCH  19  20
ATOM     20  C   UNL     1      53.600   9.300  15.826  0.00  0.00    +0.000 C 
BRANCH  20  21
ATOM     21  C   UNL     1      52.979   9.070  14.458  0.00  0.00    +0.000 C 
BRANCH  21  22
ATOM     22  N   UNL     1      52.305   7.780  14.460  0.00  0.00    +0.000 NA
ATOM     23  H   UNL     1      52.940   7.068  14.844  0.00  0.00    +0.000 HD
ATOM     24  H   UNL     1      52.101   7.493  13.512  0.00  0.00    +0.000 HD
ENDBRANCH  21  22
ENDBRANCH  20  21
ENDBRANCH  19  20
ENDBRANCH  18  19
ENDBRANCH  12  18
ENDBRANCH  11  15
ENDBRANCH   7  11
ENDBRANCH   1   7
BRANCH   4  25
ATOM     25  C   UNL     1      47.174   3.632  16.792  0.00  0.00    +0.000 C 
BRANCH  25  26
ATOM     26  N   UNL     1      47.020   4.646  15.784  0.00  0.00    +0.000 N 
ATOM     27  C   UNL     1      47.050   4.335  14.449  0.00  0.00    +0.000 C 
ATOM     28  O   UNL     1      47.172   3.184  14.052  0.00  0.00    +0.000 OA
ATOM     29  H   UNL     1      47.177   5.606  16.070  0.00  0.00    +0.000 HD
BRANCH  27  30
ATOM     30  C   UNL     1      46.859   5.459  13.524  0.00  0.00    +0.000 A 
ATOM     31  C   UNL     1      45.767   5.464  12.669  0.00  0.00    +0.000 A 
ATOM     32  S   UNL     1      45.669   6.862  11.697  0.00  0.00    +0.000 S 
ATOM     33  C   UNL     1      47.109   7.486  12.349  0.00  0.00    +0.000 A 
ATOM     34  N   UNL     1      47.618   8.669  11.920  0.00  0.00    +0.000 NA
ATOM     35  C   UNL     1      48.727   9.017  12.484  0.00  0.00    +0.000 A 
ATOM     36  N   UNL     1      49.374   8.278  13.447  0.00  0.00    +0.000 N 
ATOM     37  C   UNL     1      48.879   7.096  13.940  0.00  0.00    +0.000 A 
ATOM     38  O   UNL     1      49.452   6.481  14.836  0.00  0.00    +0.000 OA
ATOM     39  C   UNL     1      47.642   6.654  13.319  0.00  0.00    +0.000 A 
ATOM     40  H   UNL     1      50.231   8.612  13.864  0.00  0.00    +0.000 HD
ENDBRANCH  27  30
ENDBRANCH  25  26
ENDBRANCH   4  25
TORSDOF 12
ENDMDL
MODEL 5
REMARK VINA RESULT:    -6.041      3.636      8.917
REMARK INTER + INTRA:         -11.338
REMARK INTER:                  -9.688
REMARK INTRA:                  -1.650
REMARK UNBOUND:                -1.413
REMARK  Name = 
REMARK  12 active torsions:
REMARK  status: ('A' for Active; 'I' for Inactive)
REMARK    1  A    between atoms: N_1  and  C_2
REMARK    2  A    between atoms: C_2  and  C_3
REMARK    3  A    between atoms: C_3  and  C_4
REMARK    4  A    between atoms: C_4  and  C_5
REMARK    5  A    between atoms: C_5  and  N_6
REMARK    6  A    between atoms: N_9  and  C_10
REMARK    7  A    between atoms: C_10  and  C_11
REMARK    8  A    between atoms: C_11  and  N_12
REMARK    9  A    between atoms: C_11  and  C_13
REMARK   10  A    between atoms: C_16  and  C_17
REMARK   11  A    between atoms: C_17  and  N_18
REMARK   12  A    between atoms: C_19  and  C_21
REMARK                            x       y       z     vdW  Elec       q    Type
REMARK                         _______ _______ _______ _____ _____    ______ ____
ROOT
ATOM      1  C   UNL     1      51.101   4.177  18.127  0.00  0.00    +0.000 A 
ATOM      2  C   UNL     1      50.865   2.952  17.505  0.00  0.00    +0.000 A 
ATOM      3  C   UNL     1      49.591   2.676  17.038  0.00  0.00    +0.000 A 
ATOM      4  C   UNL     1      48.580   3.626  17.197  0.00  0.00    +0.000 A 
ATOM      5  C   UNL     1      48.906   4.818  17.832  0.00  0.00    +0.000 A 
ATOM      6  N   UNL     1      50.130   5.113  18.304  0.00  0.00    +0.000 NA
ENDROOT
BRANCH   1   7
ATOM      7  C   UNL     1      52.477   4.501  18.674  0.00  0.00    +0.000 C 
BRANCH   7   8
ATOM      8  N   UNL     1      52.667   3.846  19.983  0.00  0.00    +0.000 NA
ATOM      9  H   UNL     1      51.787   3.933  20.495  0.00  0.00    +0.000 HD
ATOM     10  H   UNL     1      53.390   4.313  20.517  0.00  0.00    +0.000 HD
ENDBRANCH   7   8
BRANCH   7  11
ATOM     11  C   UNL     1      52.655   6.052  18.725  0.00  0.00    +0.000 C 
BRANCH  11  15
ATOM     12  N   UNL     1      51.805   8.540  16.114  0.00  0.00    +0.000 NA
ATOM     13  C   UNL     1      52.347   8.847  17.461  0.00  0.00    +0.000 C 
ATOM     14  C   UNL     1      53.663   8.100  17.770  0.00  0.00    +0.000 C 
ATOM     15  N   UNL     1      53.531   6.634  17.674  0.00  0.00    +0.000 NA
ATOM     16  C   UNL     1      53.014   6.301  16.328  0.00  0.00    +0.000 C 
ATOM     17  C   UNL     1      51.720   7.067  15.955  0.00  0.00    +0.000 C 
BRANCH  12  18
ATOM     18  C   UNL     1      52.667   9.167  15.100  0.00  0.00    +0.000 C 
BRANCH  18  19
ATOM     19  C   UNL     1      52.278   8.806  13.672  0.00  0.00    +0.000 C 
BRANCH  19  20
ATOM     20  C   UNL     1      51.145   9.711  13.213  0.00  0.00    +0.000 C 
BRANCH  20  21
ATOM     21  C   UNL     1      50.056   8.887  12.545  0.00  0.00    +0.000 C 
BRANCH  21  22
ATOM     22  N   UNL     1      50.454   7.487  12.557  0.00  0.00    +0.000 NA
ATOM     23  H   UNL     1      49.959   7.002  13.316  0.00  0.00    +0.000 HD
ATOM     24  H   UNL     1      51.440   7.408  12.770  0.00  0.00    +0.000 HD
ENDBRANCH  21  22
ENDBRANCH  20  21
ENDBRANCH  19  20
ENDBRANCH  18  19
ENDBRANCH  12  18
ENDBRANCH  11  15
ENDBRANCH   7  11
ENDBRANCH   1   7
BRANCH   4  25
ATOM     25  C   UNL     1      47.161   3.359  16.796  0.00  0.00    +0.000 C 
BRANCH  25  26
ATOM     26  N   UNL     1      46.718   4.344  15.847  0.00  0.00    +0.000 N 
ATOM     27  C   UNL     1      46.822   4.133  14.497  0.00  0.00    +0.000 C 
ATOM     28  O   UNL     1      47.261   3.088  14.034  0.00  0.00    +0.000 OA
ATOM     29  H   UNL     1      46.599   5.292  16.190  0.00  0.00    +0.000 HD
BRANCH  27  30
ATOM     30  C   UNL     1      46.313   5.209  13.638  0.00  0.00    +0.000 A 
ATOM     31  C   UNL     1      47.068   6.359  13.463  0.00  0.00    +0.000 A 
ATOM     32  S   UNL     1      46.356   7.487  12.398  0.00  0.00    +0.000 S 
ATOM     33  C   UNL     1      44.991   6.498  12.175  0.00  0.00    +0.000 A 
ATOM     34  N   UNL     1      43.961   6.894  11.384  0.00  0.00    +0.000 NA
ATOM     35  C   UNL     1      42.978   6.058  11.317  0.00  0.00    +0.000 A 
ATOM     36  N   UNL     1      42.938   4.851  11.976  0.00  0.00    +0.000 N 
ATOM     37  C   UNL     1      43.971   4.391  12.756  0.00  0.00    +0.000 A 
ATOM     38  O   UNL     1      43.931   3.287  13.294  0.00  0.00    +0.000 OA
ATOM     39  C   UNL     1      45.091   5.309  12.877  0.00  0.00    +0.000 A 
ATOM     40  H   UNL     1      42.148   4.231  11.870  0.00  0.00    +0.000 HD
ENDBRANCH  27  30
ENDBRANCH  25  26
ENDBRANCH   4  25
TORSDOF 12
ENDMDL
MODEL 6
REMARK VINA RESULT:    -5.970      4.667      6.536
REMARK INTER + INTRA:         -11.221
REMARK INTER:                 -10.528
REMARK INTRA:                  -0.693
REMARK UNBOUND:                -1.413
REMARK  Name = 
REMARK  12 active torsions:
REMARK  status: ('A' for Active; 'I' for Inactive)
REMARK    1  A    between atoms: N_1  and  C_2
REMARK    2  A    between atoms: C_2  and  C_3
REMARK    3  A    between atoms: C_3  and  C_4
REMARK    4  A    between atoms: C_4  and  C_5
REMARK    5  A    between atoms: C_5  and  N_6
REMARK    6  A    between atoms: N_9  and  C_10
REMARK    7  A    between atoms: C_10  and  C_11
REMARK    8  A    between atoms: C_11  and  N_12
REMARK    9  A    between atoms: C_11  and  C_13
REMARK   10  A    between atoms: C_16  and  C_17
REMARK   11  A    between atoms: C_17  and  N_18
REMARK   12  A    between atoms: C_19  and  C_21
REMARK                            x       y       z     vdW  Elec       q    Type
REMARK                         _______ _______ _______ _____ _____    ______ ____
ROOT
ATOM      1  C   UNL     1      47.408   6.983  13.044  0.00  0.00    +0.000 A 
ATOM      2  C   UNL     1      47.232   8.170  12.337  0.00  0.00    +0.000 A 
ATOM      3  C   UNL     1      48.335   8.762  11.742  0.00  0.00    +0.000 A 
ATOM      4  C   UNL     1      49.587   8.156  11.862  0.00  0.00    +0.000 A 
ATOM      5  C   UNL     1      49.668   6.975  12.588  0.00  0.00    +0.000 A 
ATOM      6  N   UNL     1      48.620   6.380  13.184  0.00  0.00    +0.000 NA
ENDROOT
BRANCH   1   7
ATOM      7  C   UNL     1      46.229   6.323  13.731  0.00  0.00    +0.000 C 
BRANCH   7   8
ATOM      8  N   UNL     1      46.708   5.350  14.733  0.00  0.00    +0.000 NA
ATOM      9  H   UNL     1      46.267   4.454  14.519  0.00  0.00    +0.000 HD
ATOM     10  H   UNL     1      46.423   5.626  15.666  0.00  0.00    +0.000 HD
ENDBRANCH   7   8
BRANCH   7  11
ATOM     11  C   UNL     1      45.295   5.691  12.650  0.00  0.00    +0.000 C 
BRANCH  11  15
ATOM     12  N   UNL     1      43.698   3.376  10.237  0.00  0.00    +0.000 NA
ATOM     13  C   UNL     1      44.174   4.749   9.937  0.00  0.00    +0.000 C 
ATOM     14  C   UNL     1      45.656   4.974  10.310  0.00  0.00    +0.000 C 
ATOM     15  N   UNL     1      45.938   4.713  11.735  0.00  0.00    +0.000 NA
ATOM     16  C   UNL     1      45.494   3.338  12.053  0.00  0.00    +0.000 C 
ATOM     17  C   UNL     1      44.026   3.053  11.648  0.00  0.00    +0.000 C 
BRANCH  12  18
ATOM     18  C   UNL     1      44.317   2.440   9.287  0.00  0.00    +0.000 C 
BRANCH  18  19
ATOM     19  C   UNL     1      44.988   3.133   8.108  0.00  0.00    +0.000 C 
BRANCH  19  20
ATOM     20  C   UNL     1      46.245   2.369   7.721  0.00  0.00    +0.000 C 
BRANCH  20  21
ATOM     21  C   UNL     1      47.019   3.137   6.663  0.00  0.00    +0.000 C 
BRANCH  21  22
ATOM     22  N   UNL     1      48.327   2.520   6.498  0.00  0.00    +0.000 NA
ATOM     23  H   UNL     1      48.207   1.565   6.139  0.00  0.00    +0.000 HD
ATOM     24  H   UNL     1      48.783   2.428   7.396  0.00  0.00    +0.000 HD
ENDBRANCH  21  22
ENDBRANCH  20  21
ENDBRANCH  19  20
ENDBRANCH  18  19
ENDBRANCH  12  18
ENDBRANCH  11  15
ENDBRANCH   7  11
ENDBRANCH   1   7
BRANCH   4  25
ATOM     25  C   UNL     1      50.834   8.785  11.320  0.00  0.00    +0.000 C 
BRANCH  25  26
ATOM     26  N   UNL     1      51.811   7.774  11.017  0.00  0.00    +0.000 N 
ATOM     27  C   UNL     1      52.615   7.868   9.911  0.00  0.00    +0.000 C 
ATOM     28  O   UNL     1      52.568   8.826   9.151  0.00  0.00    +0.000 OA
ATOM     29  H   UNL     1      51.693   6.872  11.466  0.00  0.00    +0.000 HD
BRANCH  27  30
ATOM     30  C   UNL     1      53.584   6.780   9.729  0.00  0.00    +0.000 A 
ATOM     31  C   UNL     1      54.522   6.526  10.719  0.00  0.00    +0.000 A 
ATOM     32  S   UNL     1      55.539   5.201  10.371  0.00  0.00    +0.000 S 
ATOM     33  C   UNL     1      54.795   4.954   8.863  0.00  0.00    +0.000 A 
ATOM     34  N   UNL     1      55.217   3.971   8.026  0.00  0.00    +0.000 NA
ATOM     35  C   UNL     1      54.579   3.906   6.904  0.00  0.00    +0.000 A 
ATOM     36  N   UNL     1      53.547   4.742   6.547  0.00  0.00    +0.000 N 
ATOM     37  C   UNL     1      53.061   5.725   7.374  0.00  0.00    +0.000 A 
ATOM     38  O   UNL     1      52.105   6.426   7.050  0.00  0.00    +0.000 OA
ATOM     39  C   UNL     1      53.762   5.849   8.641  0.00  0.00    +0.000 A 
ATOM     40  H   UNL     1      53.075   4.630   5.661  0.00  0.00    +0.000 HD
ENDBRANCH  27  30
ENDBRANCH  25  26
ENDBRANCH   4  25
TORSDOF 12
ENDMDL
MODEL 7
REMARK VINA RESULT:    -5.500      3.193      8.470
REMARK INTER + INTRA:         -10.449
REMARK INTER:                  -9.349
REMARK INTRA:                  -1.100
REMARK UNBOUND:                -1.413
REMARK  Name = 
REMARK  12 active torsions:
REMARK  status: ('A' for Active; 'I' for Inactive)
REMARK    1  A    between atoms: N_1  and  C_2
REMARK    2  A    between atoms: C_2  and  C_3
REMARK    3  A    between atoms: C_3  and  C_4
REMARK    4  A    between atoms: C_4  and  C_5
REMARK    5  A    between atoms: C_5  and  N_6
REMARK    6  A    between atoms: N_9  and  C_10
REMARK    7  A    between atoms: C_10  and  C_11
REMARK    8  A    between atoms: C_11  and  N_12
REMARK    9  A    between atoms: C_11  and  C_13
REMARK   10  A    between atoms: C_16  and  C_17
REMARK   11  A    between atoms: C_17  and  N_18
REMARK   12  A    between atoms: C_19  and  C_21
REMARK                            x       y       z     vdW  Elec       q    Type
REMARK                         _______ _______ _______ _____ _____    ______ ____
ROOT
ATOM      1  C   UNL     1      46.441   8.547  12.798  0.00  0.00    +0.000 A 
ATOM      2  C   UNL     1      45.596   9.158  11.874  0.00  0.00    +0.000 A 
ATOM      3  C   UNL     1      44.541   8.428  11.351  0.00  0.00    +0.000 A 
ATOM      4  C   UNL     1      44.349   7.108  11.763  0.00  0.00    +0.000 A 
ATOM      5  C   UNL     1      45.242   6.581  12.686  0.00  0.00    +0.000 A 
ATOM      6  N   UNL     1      46.281   7.259  13.206  0.00  0.00    +0.000 NA
ENDROOT
BRANCH   1   7
ATOM      7  C   UNL     1      47.622   9.307  13.370  0.00  0.00    +0.000 C 
BRANCH   7   8
ATOM      8  N   UNL     1      48.788   9.177  12.474  0.00  0.00    +0.000 NA
ATOM      9  H   UNL     1      49.078  10.123  12.216  0.00  0.00    +0.000 HD
ATOM     10  H   UNL     1      48.536   8.683  11.626  0.00  0.00    +0.000 HD
ENDBRANCH   7   8
BRANCH   7  11
ATOM     11  C   UNL     1      47.898   8.807  14.823  0.00  0.00    +0.000 C 
BRANCH  11  15
ATOM     12  N   UNL     1      48.897   6.154  17.209  0.00  0.00    +0.000 NA
ATOM     13  C   UNL     1      48.491   5.943  15.797  0.00  0.00    +0.000 C 
ATOM     14  C   UNL     1      49.317   6.781  14.796  0.00  0.00    +0.000 C 
ATOM     15  N   UNL     1      49.247   8.230  15.061  0.00  0.00    +0.000 NA
ATOM     16  C   UNL     1      49.671   8.469  16.458  0.00  0.00    +0.000 C 
ATOM     17  C   UNL     1      48.903   7.611  17.494  0.00  0.00    +0.000 C 
BRANCH  12  18
ATOM     18  C   UNL     1      50.213   5.534  17.423  0.00  0.00    +0.000 C 
BRANCH  18  19
ATOM     19  C   UNL     1      50.132   4.143  18.039  0.00  0.00    +0.000 C 
BRANCH  19  20
ATOM     20  C   UNL     1      51.191   3.250  17.411  0.00  0.00    +0.000 C 
BRANCH  20  21
ATOM     21  C   UNL     1      50.639   1.848  17.209  0.00  0.00    +0.000 C 
BRANCH  21  22
ATOM     22  N   UNL     1      49.641   1.885  16.151  0.00  0.00    +0.000 NA
ATOM     23  H   UNL     1      49.615   2.828  15.745  0.00  0.00    +0.000 HD
ATOM     24  H   UNL     1      48.721   1.718  16.535  0.00  0.00    +0.000 HD
ENDBRANCH  21  22
ENDBRANCH  20  21
ENDBRANCH  19  20
ENDBRANCH  18  19
ENDBRANCH  12  18
ENDBRANCH  11  15
ENDBRANCH   7  11
ENDBRANCH   1   7
BRANCH   4  25
ATOM     25  C   UNL     1      43.284   6.234  11.175  0.00  0.00    +0.000 C 
BRANCH  25  26
ATOM     26  N   UNL     1      43.869   5.262  10.291  0.00  0.00    +0.000 N 
ATOM     27  C   UNL     1      44.107   3.976  10.701  0.00  0.00    +0.000 C 
ATOM     28  O   UNL     1      43.804   3.583  11.820  0.00  0.00    +0.000 OA
ATOM     29  H   UNL     1      44.355   5.617   9.474  0.00  0.00    +0.000 HD
BRANCH  27  30
ATOM     30  C   UNL     1      44.688   3.079   9.695  0.00  0.00    +0.000 A 
ATOM     31  C   UNL     1      44.306   1.746   9.665  0.00  0.00    +0.000 A 
ATOM     32  S   UNL     1      45.037   0.855   8.407  0.00  0.00    +0.000 S 
ATOM     33  C   UNL     1      45.928   2.208   7.891  0.00  0.00    +0.000 A 
ATOM     34  N   UNL     1      46.794   2.120   6.849  0.00  0.00    +0.000 NA
ATOM     35  C   UNL     1      47.421   3.216   6.573  0.00  0.00    +0.000 A 
ATOM     36  N   UNL     1      47.252   4.400   7.253  0.00  0.00    +0.000 N 
ATOM     37  C   UNL     1      46.361   4.547   8.288  0.00  0.00    +0.000 A 
ATOM     38  O   UNL     1      46.194   5.628   8.846  0.00  0.00    +0.000 OA
ATOM     39  C   UNL     1      45.647   3.333   8.647  0.00  0.00    +0.000 A 
ATOM     40  H   UNL     1      47.759   5.228   6.979  0.00  0.00    +0.000 HD
ENDBRANCH  27  30
ENDBRANCH  25  26
ENDBRANCH   4  25
TORSDOF 12
ENDMDL
MODEL 8
REMARK VINA RESULT:    -5.344      5.481      8.013
REMARK INTER + INTRA:         -10.193
REMARK INTER:                  -9.046
REMARK INTRA:                  -1.148
REMARK UNBOUND:                -1.413
REMARK  Name = 
REMARK  12 active torsions:
REMARK  status: ('A' for Active; 'I' for Inactive)
REMARK    1  A    between atoms: N_1  and  C_2
REMARK    2  A    between atoms: C_2  and  C_3
REMARK    3  A    between atoms: C_3  and  C_4
REMARK    4  A    between atoms: C_4  and  C_5
REMARK    5  A    between atoms: C_5  and  N_6
REMARK    6  A    between atoms: N_9  and  C_10
REMARK    7  A    between atoms: C_10  and  C_11
REMARK    8  A    between atoms: C_11  and  N_12
REMARK    9  A    between atoms: C_11  and  C_13
REMARK   10  A    between atoms: C_16  and  C_17
REMARK   11  A    between atoms: C_17  and  N_18
REMARK   12  A    between atoms: C_19  and  C_21
REMARK                            x       y       z     vdW  Elec       q    Type
REMARK                         _______ _______ _______ _____ _____    ______ ____
ROOT
ATOM      1  C   UNL     1      48.820   8.731  13.108  0.00  0.00    +0.000 A 
ATOM      2  C   UNL     1      48.626   9.586  12.025  0.00  0.00    +0.000 A 
ATOM      3  C   UNL     1      49.712   9.909  11.228  0.00  0.00    +0.000 A 
ATOM      4  C   UNL     1      50.966   9.372  11.525  0.00  0.00    +0.000 A 
ATOM      5  C   UNL     1      51.066   8.531  12.625  0.00  0.00    +0.000 A 
ATOM      6  N   UNL     1      50.035   8.204  13.424  0.00  0.00    +0.000 NA
ENDROOT
BRANCH   1   7
ATOM      7  C   UNL     1      47.660   8.377  14.018  0.00  0.00    +0.000 C 
BRANCH   7   8
ATOM      8  N   UNL     1      48.144   7.591  15.170  0.00  0.00    +0.000 NA
ATOM      9  H   UNL     1      47.399   7.591  15.870  0.00  0.00    +0.000 HD
ATOM     10  H   UNL     1      48.962   8.023  15.581  0.00  0.00    +0.000 HD
ENDBRANCH   7   8
BRANCH   7  11
ATOM     11  C   UNL     1      46.561   7.645  13.184  0.00  0.00    +0.000 C 
BRANCH  11  15
ATOM     12  N   UNL     1      44.516   4.802  11.974  0.00  0.00    +0.000 NA
ATOM     13  C   UNL     1      44.875   6.009  11.188  0.00  0.00    +0.000 C 
ATOM     14  C   UNL     1      46.396   6.268  11.135  0.00  0.00    +0.000 C 
ATOM     15  N   UNL     1      47.003   6.418  12.471  0.00  0.00    +0.000 NA
ATOM     16  C   UNL     1      46.680   5.213  13.267  0.00  0.00    +0.000 C 
ATOM     17  C   UNL     1      45.166   4.886  13.305  0.00  0.00    +0.000 C 
BRANCH  12  18
ATOM     18  C   UNL     1      44.925   3.606  11.222  0.00  0.00    +0.000 C 
BRANCH  18  19
ATOM     19  C   UNL     1      44.237   3.480   9.868  0.00  0.00    +0.000 C 
BRANCH  19  20
ATOM     20  C   UNL     1      45.081   2.607   8.953  0.00  0.00    +0.000 C 
BRANCH  20  21
ATOM     21  C   UNL     1      45.375   3.342   7.655  0.00  0.00    +0.000 C 
BRANCH  21  22
ATOM     22  N   UNL     1      46.004   4.616   7.970  0.00  0.00    +0.000 NA
ATOM     23  H   UNL     1      46.381   4.579   8.925  0.00  0.00    +0.000 HD
ATOM     24  H   UNL     1      45.312   5.354   7.970  0.00  0.00    +0.000 HD
ENDBRANCH  21  22
ENDBRANCH  20  21
ENDBRANCH  19  20
ENDBRANCH  18  19
ENDBRANCH  12  18
ENDBRANCH  11  15
ENDBRANCH   7  11
ENDBRANCH   1   7
BRANCH   4  25
ATOM     25  C   UNL     1      52.198   9.748  10.760  0.00  0.00    +0.000 C 
BRANCH  25  26
ATOM     26  N   UNL     1      52.437   8.803   9.703  0.00  0.00    +0.000 N 
ATOM     27  C   UNL     1      53.642   8.164   9.576  0.00  0.00    +0.000 C 
ATOM     28  O   UNL     1      54.558   8.337  10.369  0.00  0.00    +0.000 OA
ATOM     29  H   UNL     1      51.810   8.837   8.906  0.00  0.00    +0.000 HD
BRANCH  27  30
ATOM     30  C   UNL     1      53.747   7.207   8.467  0.00  0.00    +0.000 A 
ATOM     31  C   UNL     1      53.562   5.854   8.711  0.00  0.00    +0.000 A 
ATOM     32  S   UNL     1      53.671   4.887   7.308  0.00  0.00    +0.000 S 
ATOM     33  C   UNL     1      54.019   6.238   6.337  0.00  0.00    +0.000 A 
ATOM     34  N   UNL     1      54.256   6.101   5.007  0.00  0.00    +0.000 NA
ATOM     35  C   UNL     1      54.528   7.203   4.390  0.00  0.00    +0.000 A 
ATOM     36  N   UNL     1      54.581   8.439   4.993  0.00  0.00    +0.000 N 
ATOM     37  C   UNL     1      54.312   8.632   6.326  0.00  0.00    +0.000 A 
ATOM     38  O   UNL     1      54.318   9.752   6.829  0.00  0.00    +0.000 OA
ATOM     39  C   UNL     1      54.021   7.415   7.065  0.00  0.00    +0.000 A 
ATOM     40  H   UNL     1      54.782   9.268   4.453  0.00  0.00    +0.000 HD
ENDBRANCH  27  30
ENDBRANCH  25  26
ENDBRANCH   4  25
TORSDOF 12
ENDMDL
MODEL 9
REMARK VINA RESULT:    -5.155      5.197      7.403
REMARK INTER + INTRA:          -9.883
REMARK INTER:                  -8.882
REMARK INTRA:                  -1.002
REMARK UNBOUND:                -1.413
REMARK  Name = 
REMARK  12 active torsions:
REMARK  status: ('A' for Active; 'I' for Inactive)
REMARK    1  A    between atoms: N_1  and  C_2
REMARK    2  A    between atoms: C_2  and  C_3
REMARK    3  A    between atoms: C_3  and  C_4
REMARK    4  A    between atoms: C_4  and  C_5
REMARK    5  A    between atoms: C_5  and  N_6
REMARK    6  A    between atoms: N_9  and  C_10
REMARK    7  A    between atoms: C_10  and  C_11
REMARK    8  A    between atoms: C_11  and  N_12
REMARK    9  A    between atoms: C_11  and  C_13
REMARK   10  A    between atoms: C_16  and  C_17
REMARK   11  A    between atoms: C_17  and  N_18
REMARK   12  A    between atoms: C_19  and  C_21
REMARK                            x       y       z     vdW  Elec       q    Type
REMARK                         _______ _______ _______ _____ _____    ______ ____
ROOT
ATOM      1  C   UNL     1      49.093   8.108  13.401  0.00  0.00    +0.000 A 
ATOM      2  C   UNL     1      48.811   8.799  12.224  0.00  0.00    +0.000 A 
ATOM      3  C   UNL     1      49.852   9.409  11.543  0.00  0.00    +0.000 A 
ATOM      4  C   UNL     1      51.151   9.316  12.046  0.00  0.00    +0.000 A 
ATOM      5  C   UNL     1      51.337   8.609  13.227  0.00  0.00    +0.000 A 
ATOM      6  N   UNL     1      50.349   8.013  13.917  0.00  0.00    +0.000 NA
ENDROOT
BRANCH   1   7
ATOM      7  C   UNL     1      47.975   7.452  14.186  0.00  0.00    +0.000 C 
BRANCH   7   8
ATOM      8  N   UNL     1      48.477   6.237  14.859  0.00  0.00    +0.000 NA
ATOM      9  H   UNL     1      47.843   5.473  14.615  0.00  0.00    +0.000 HD
ATOM     10  H   UNL     1      48.460   6.351  15.865  0.00  0.00    +0.000 HD
ENDBRANCH   7   8
BRANCH   7  11
ATOM     11  C   UNL     1      46.770   7.180  13.232  0.00  0.00    +0.000 C 
BRANCH  11  15
ATOM     12  N   UNL     1      43.966   5.462  11.524  0.00  0.00    +0.000 NA
ATOM     13  C   UNL     1      44.963   6.349  10.876  0.00  0.00    +0.000 C 
ATOM     14  C   UNL     1      46.422   5.914  11.135  0.00  0.00    +0.000 C 
ATOM     15  N   UNL     1      46.759   5.849  12.569  0.00  0.00    +0.000 NA
ATOM     16  C   UNL     1      45.792   4.949  13.235  0.00  0.00    +0.000 C 
ATOM     17  C   UNL     1      44.312   5.319  12.960  0.00  0.00    +0.000 C 
BRANCH  12  18
ATOM     18  C   UNL     1      43.948   4.172  10.819  0.00  0.00    +0.000 C 
BRANCH  18  19
ATOM     19  C   UNL     1      44.121   4.306   9.311  0.00  0.00    +0.000 C 
BRANCH  19  20
ATOM     20  C   UNL     1      44.866   3.092   8.778  0.00  0.00    +0.000 C 
BRANCH  20  21
ATOM     21  C   UNL     1      45.538   3.430   7.457  0.00  0.00    +0.000 C 
BRANCH  21  22
ATOM     22  N   UNL     1      46.517   4.482   7.684  0.00  0.00    +0.000 NA
ATOM     23  H   UNL     1      46.179   5.355   7.262  0.00  0.00    +0.000 HD
ATOM     24  H   UNL     1      47.383   4.258   7.212  0.00  0.00    +0.000 HD
ENDBRANCH  21  22
ENDBRANCH  20  21
ENDBRANCH  19  20
ENDBRANCH  18  19
ENDBRANCH  12  18
ENDBRANCH  11  15
ENDBRANCH   7  11
ENDBRANCH   1   7
BRANCH   4  25
ATOM     25  C   UNL     1      52.307  10.024  11.411  0.00  0.00    +0.000 C 
BRANCH  25  26
ATOM     26  N   UNL     1      52.827   9.247  10.318  0.00  0.00    +0.000 N 
ATOM     27  C   UNL     1      52.604   9.610   9.015  0.00  0.00    +0.000 C 
ATOM     28  O   UNL     1      51.986  10.625   8.718  0.00  0.00    +0.000 OA
ATOM     29  H   UNL     1      53.106   8.294  10.523  0.00  0.00    +0.000 HD
BRANCH  27  30
ATOM     30  C   UNL     1      53.208   8.743   7.995  0.00  0.00    +0.000 A 
ATOM     31  C   UNL     1      53.594   9.286   6.778  0.00  0.00    +0.000 A 
ATOM     32  S   UNL     1      54.320   8.154   5.727  0.00  0.00    +0.000 S 
ATOM     33  C   UNL     1      54.096   6.891   6.842  0.00  0.00    +0.000 A 
ATOM     34  N   UNL     1      54.479   5.622   6.549  0.00  0.00    +0.000 NA
ATOM     35  C   UNL     1      54.233   4.755   7.475  0.00  0.00    +0.000 A 
ATOM     36  N   UNL     1      53.636   5.052   8.678  0.00  0.00    +0.000 N 
ATOM     37  C   UNL     1      53.266   6.325   9.035  0.00  0.00    +0.000 A 
ATOM     38  O   UNL     1      52.779   6.571  10.136  0.00  0.00    +0.000 OA
ATOM     39  C   UNL     1      53.505   7.331   8.014  0.00  0.00    +0.000 A 
ATOM     40  H   UNL     1      53.485   4.332   9.370  0.00  0.00    +0.000 HD
ENDBRANCH  27  30
ENDBRANCH  25  26
ENDBRANCH   4  25
TORSDOF 12
ENDMDL
