MODEL 1
REMARK VINA RESULT:    -7.544      0.000      0.000
REMARK INTER + INTRA:          -9.901
REMARK INTER:                  -9.528
REMARK INTRA:                  -0.373
REMARK UNBOUND:                -0.373
REMARK  Name = 
REMARK  5 active torsions:
REMARK  status: ('A' for Active; 'I' for Inactive)
REMARK    1  A    between atoms: N_1  and  C_2
REMARK    2  A    between atoms: C_2  and  C_3
REMARK    3  A    between atoms: C_6  and  O_7
REMARK    4  A    between atoms: O_7  and  C_8
REMARK    5  A    between atoms: C_8  and  C_9
REMARK                            x       y       z     vdW  Elec       q    Type
REMARK                         _______ _______ _______ _____ _____    ______ ____
ROOT
ATOM      1  C   UNL     1      46.467   4.529  13.808  0.00  0.00    +0.000 A 
ATOM      2  N   UNL     1      46.609   5.724  13.203  0.00  0.00    +0.000 NA
ATOM      3  C   UNL     1      45.979   5.868  12.016  0.00  0.00    +0.000 A 
ATOM      4  C   UNL     1      45.246   4.873  11.405  0.00  0.00    +0.000 A 
ATOM      5  C   UNL     1      45.161   3.697  12.116  0.00  0.00    +0.000 A 
ATOM      6  N   UNL     1      45.766   3.489  13.301  0.00  0.00    +0.000 NA
ENDROOT
BRANCH   1   7
ATOM      7  C   UNL     1      47.107   4.317  15.168  0.00  0.00    +0.000 C 
BRANCH   7   8
ATOM      8  N   UNL     1      47.799   3.019  15.275  0.00  0.00    +0.000 NA
ATOM      9  H   UNL     1      47.604   2.475  14.440  0.00  0.00    +0.000 HD
ATOM     10  H   UNL     1      47.372   2.520  16.059  0.00  0.00    +0.000 HD
ENDBRANCH   7   8
ENDBRANCH   1   7
BRANCH   4  11
ATOM     11  O   UNL     1      44.688   5.143  10.196  0.00  0.00    +0.000 OA
BRANCH  11  12
ATOM     12  C   UNL     1      44.153   4.010   9.503  0.00  0.00    +0.000 C 
BRANCH  12  13
ATOM     13  C   UNL     1      45.234   3.441   8.630  0.00  0.00    +0.000 A 
ATOM     14  C   UNL     1      46.068   4.293   7.887  0.00  0.00    +0.000 A 
ATOM     15  C   UNL     1      47.088   3.768   7.092  0.00  0.00    +0.000 A 
ATOM     16  C   UNL     1      47.288   2.389   7.035  0.00  0.00    +0.000 A 
ATOM     17  C   UNL     1      46.473   1.536   7.779  0.00  0.00    +0.000 A 
ATOM     18 CL   UNL     1      46.741  -0.163   7.708  0.00  0.00    +0.000 Cl
ATOM     19  C   UNL     1      45.457   2.063   8.574  0.00  0.00    +0.000 A 
ATOM     20  F   UNL     1      44.682   1.245   9.307  0.00  0.00    +0.000 F 
ENDBRANCH  12  13
ENDBRANCH  11  12
ENDBRANCH   4  11
TORSDOF 5
ENDMDL
MODEL 2
REMARK VINA RESULT:    -7.237      3.856      6.163
REMARK INTER + INTRA:          -9.514
REMARK INTER:                  -9.123
REMARK INTRA:                  -0.390
REMARK UNBOUND:                -0.373
REMARK  Name = 
REMARK  5 active torsions:
REMARK  status: ('A' for Active; 'I' for Inactive)
REMARK    1  A    between atoms: N_1  and  C_2
REMARK    2  A    between atoms: C_2  and  C_3
REMARK    3  A    between atoms: C_6  and  O_7
REMARK    4  A    between atoms: O_7  and  C_8
REMARK    5  A    between atoms: C_8  and  C_9
REMARK                            x       y       z     vdW  Elec       q    Type
REMARK                         _______ _______ _______ _____ _____    ______ ____
ROOT
ATOM      1  C   UNL     1      46.559   2.807   6.955  0.00  0.00    +0.000 A 
ATOM      2  N   UNL     1      46.404   1.692   7.695  0.00  0.00    +0.000 NA
ATOM      3  C   UNL     1      45.613   1.806   8.784  0.00  0.00    +0.000 A 
ATOM      4  C   UNL     1      44.998   2.977   9.173  0.00  0.00    +0.000 A 
ATOM      5  C   UNL     1      45.217   4.050   8.339  0.00  0.00    +0.000 A 
ATOM      6  N   UNL     1      45.996   4.004   7.242  0.00  0.00    +0.000 NA
ENDROOT
BRANCH   1   7
ATOM      7  C   UNL     1      47.395   2.737   5.691  0.00  0.00    +0.000 C 
BRANCH   7   8
ATOM      8  N   UNL     1      48.473   1.735   5.777  0.00  0.00    +0.000 NA
ATOM      9  H   UNL     1      49.305   2.111   5.334  0.00  0.00    +0.000 HD
ATOM     10  H   UNL     1      48.176   0.933   5.215  0.00  0.00    +0.000 HD
ENDBRANCH   7   8
ENDBRANCH   1   7
BRANCH   4  11
ATOM     11  O   UNL     1      44.251   2.958  10.308  0.00  0.00    +0.000 OA
BRANCH  11  12
ATOM     12  C   UNL     1      43.949   4.243  10.863  0.00  0.00    +0.000 C 
BRANCH  12  13
ATOM     13  C   UNL     1      45.089   4.647  11.754  0.00  0.00    +0.000 A 
ATOM     14  C   UNL     1      45.529   3.789  12.775  0.00  0.00    +0.000 A 
ATOM     15  C   UNL     1      46.602   4.152  13.591  0.00  0.00    +0.000 A 
ATOM     16  C   UNL     1      47.248   5.372  13.392  0.00  0.00    +0.000 A 
ATOM     17  C   UNL     1      46.825   6.225  12.373  0.00  0.00    +0.000 A 
ATOM     18 CL   UNL     1      47.641   7.722  12.131  0.00  0.00    +0.000 Cl
ATOM     19  C   UNL     1      45.756   5.859  11.558  0.00  0.00    +0.000 A 
ATOM     20  F   UNL     1      45.358   6.670  10.562  0.00  0.00    +0.000 F 
ENDBRANCH  12  13
ENDBRANCH  11  12
ENDBRANCH   4  11
TORSDOF 5
ENDMDL
MODEL 3
REMARK VINA RESULT:    -7.179      3.485      5.691
REMARK INTER + INTRA:          -9.441
REMARK INTER:                  -8.950
REMARK INTRA:                  -0.491
REMARK UNBOUND:                -0.373
REMARK  Name = 
REMARK  5 active torsions:
REMARK  status: ('A' for Active; 'I' for Inactive)
REMARK    1  A    between atoms: N_1  and  C_2
REMARK    2  A    between atoms: C_2  and  C_3
REMARK    3  A    between atoms: C_6  and  O_7
REMARK    4  A    between atoms: O_7  and  C_8
REMARK    5  A    between atoms: C_8  and  C_9
REMARK                            x       y       z     vdW  Elec       q    Type
REMARK                         _______ _______ _______ _____ _____    ______ ____
ROOT
ATOM      1  C   UNL     1      46.574   1.986   7.710  0.00  0.00    +0.000 A 
ATOM      2  N   UNL     1      46.573   3.292   7.378  0.00  0.00    +0.000 NA
ATOM      3  C   UNL     1      45.658   4.063   8.004  0.00  0.00    +0.000 A 
ATOM      4  C   UNL     1      44.739   3.587   8.915  0.00  0.00    +0.000 A 
ATOM      5  C   UNL     1      44.836   2.241   9.185  0.00  0.00    +0.000 A 
ATOM      6  N   UNL     1      45.723   1.417   8.594  0.00  0.00    +0.000 NA
ENDROOT
BRANCH   1   7
ATOM      7  C   UNL     1      47.610   1.072   7.081  0.00  0.00    +0.000 C 
BRANCH   7   8
ATOM      8  N   UNL     1      48.394   1.741   6.027  0.00  0.00    +0.000 NA
ATOM      9  H   UNL     1      48.288   2.745   6.129  0.00  0.00    +0.000 HD
ATOM     10  H   UNL     1      47.964   1.487   5.134  0.00  0.00    +0.000 HD
ENDBRANCH   7   8
ENDBRANCH   1   7
BRANCH   4  11
ATOM     11  O   UNL     1      43.854   4.469   9.448  0.00  0.00    +0.000 OA
BRANCH  11  12
ATOM     12  C   UNL     1      43.543   4.263  10.830  0.00  0.00    +0.000 C 
BRANCH  12  13
ATOM     13  C   UNL     1      44.593   4.954  11.654  0.00  0.00    +0.000 A 
ATOM     14  C   UNL     1      44.818   6.332  11.505  0.00  0.00    +0.000 A 
ATOM     15  C   UNL     1      45.777   6.981  12.285  0.00  0.00    +0.000 A 
ATOM     16  C   UNL     1      46.517   6.261  13.222  0.00  0.00    +0.000 A 
ATOM     17  C   UNL     1      46.291   4.894  13.386  0.00  0.00    +0.000 A 
ATOM     18 CL   UNL     1      47.203   4.021  14.557  0.00  0.00    +0.000 Cl
ATOM     19  C   UNL     1      45.331   4.249  12.608  0.00  0.00    +0.000 A 
ATOM     20  F   UNL     1      45.098   2.936  12.776  0.00  0.00    +0.000 F 
ENDBRANCH  12  13
ENDBRANCH  11  12
ENDBRANCH   4  11
TORSDOF 5
ENDMDL
MODEL 4
REMARK VINA RESULT:    -6.765      1.579      2.249
REMARK INTER + INTRA:          -8.917
REMARK INTER:                  -8.712
REMARK INTRA:                  -0.205
REMARK UNBOUND:                -0.373
REMARK  Name = 
REMARK  5 active torsions:
REMARK  status: ('A' for Active; 'I' for Inactive)
REMARK    1  A    between atoms: N_1  and  C_2
REMARK    2  A    between atoms: C_2  and  C_3
REMARK    3  A    between atoms: C_6  and  O_7
REMARK    4  A    between atoms: O_7  and  C_8
REMARK    5  A    between atoms: C_8  and  C_9
REMARK                            x       y       z     vdW  Elec       q    Type
REMARK                         _______ _______ _______ _____ _____    ______ ____
ROOT
ATOM      1  C   UNL     1      46.292   4.580  13.383  0.00  0.00    +0.000 A 
ATOM      2  N   UNL     1      45.851   3.324  13.168  0.00  0.00    +0.000 NA
ATOM      3  C   UNL     1      45.133   3.131  12.041  0.00  0.00    +0.000 A 
ATOM      4  C   UNL     1      44.819   4.130  11.144  0.00  0.00    +0.000 A 
ATOM      5  C   UNL     1      45.328   5.370  11.457  0.00  0.00    +0.000 A 
ATOM      6  N   UNL     1      46.048   5.629  12.566  0.00  0.00    +0.000 NA
ENDROOT
BRANCH   1   7
ATOM      7  C   UNL     1      47.148   4.856  14.605  0.00  0.00    +0.000 C 
BRANCH   7   8
ATOM      8  N   UNL     1      47.485   3.631  15.352  0.00  0.00    +0.000 NA
ATOM      9  H   UNL     1      48.251   3.161  14.880  0.00  0.00    +0.000 HD
ATOM     10  H   UNL     1      46.673   3.012  15.286  0.00  0.00    +0.000 HD
ENDBRANCH   7   8
ENDBRANCH   1   7
BRANCH   4  11
ATOM     11  O   UNL     1      44.063   3.802  10.064  0.00  0.00    +0.000 OA
BRANCH  11  12
ATOM     12  C   UNL     1      44.608   4.187   8.797  0.00  0.00    +0.000 C 
BRANCH  12  13
ATOM     13  C   UNL     1      45.421   3.039   8.269  0.00  0.00    +0.000 A 
ATOM     14  C   UNL     1      45.240   1.745   8.784  0.00  0.00    +0.000 A 
ATOM     15  C   UNL     1      45.977   0.673   8.280  0.00  0.00    +0.000 A 
ATOM     16  C   UNL     1      46.898   0.881   7.254  0.00  0.00    +0.000 A 
ATOM     17  C   UNL     1      47.076   2.160   6.727  0.00  0.00    +0.000 A 
ATOM     18 CL   UNL     1      48.208   2.399   5.452  0.00  0.00    +0.000 Cl
ATOM     19  C   UNL     1      46.336   3.229   7.231  0.00  0.00    +0.000 A 
ATOM     20  F   UNL     1      46.492   4.460   6.713  0.00  0.00    +0.000 F 
ENDBRANCH  12  13
ENDBRANCH  11  12
ENDBRANCH   4  11
TORSDOF 5
ENDMDL
MODEL 5
REMARK VINA RESULT:    -6.511      2.069      2.959
REMARK INTER + INTRA:          -8.596
REMARK INTER:                  -8.477
REMARK INTRA:                  -0.119
REMARK UNBOUND:                -0.373
REMARK  Name = 
REMARK  5 active torsions:
REMARK  status: ('A' for Active; 'I' for Inactive)
REMARK    1  A    between atoms: N_1  and  C_2
REMARK    2  A    between atoms: C_2  and  C_3
REMARK    3  A    between atoms: C_6  and  O_7
REMARK    4  A    between atoms: O_7  and  C_8
REMARK    5  A    between atoms: C_8  and  C_9
REMARK                            x       y       z     vdW  Elec       q    Type
REMARK                         _______ _______ _______ _____ _____    ______ ____
ROOT
ATOM      1  C   UNL     1      47.316   4.705  15.441  0.00  0.00    +0.000 A 
ATOM      2  N   UNL     1      46.356   4.046  14.762  0.00  0.00    +0.000 NA
ATOM      3  C   UNL     1      46.121   4.472  13.502  0.00  0.00    +0.000 A 
ATOM      4  C   UNL     1      46.776   5.529  12.908  0.00  0.00    +0.000 A 
ATOM      5  C   UNL     1      47.742   6.123  13.689  0.00  0.00    +0.000 A 
ATOM      6  N   UNL     1      48.024   5.749  14.952  0.00  0.00    +0.000 NA
ENDROOT
BRANCH   1   7
ATOM      7  C   UNL     1      47.666   4.246  16.844  0.00  0.00    +0.000 C 
BRANCH   7   8
ATOM      8  N   UNL     1      46.682   3.295  17.393  0.00  0.00    +0.000 NA
ATOM      9  H   UNL     1      47.010   2.350  17.223  0.00  0.00    +0.000 HD
ATOM     10  H   UNL     1      45.823   3.412  16.850  0.00  0.00    +0.000 HD
ENDBRANCH   7   8
ENDBRANCH   1   7
BRANCH   4  11
ATOM     11  O   UNL     1      46.420   5.871  11.642  0.00  0.00    +0.000 OA
BRANCH  11  12
ATOM     12  C   UNL     1      45.054   5.612  11.300  0.00  0.00    +0.000 C 
BRANCH  12  13
ATOM     13  C   UNL     1      45.025   4.479  10.314  0.00  0.00    +0.000 A 
ATOM     14  C   UNL     1      44.307   3.307  10.601  0.00  0.00    +0.000 A 
ATOM     15  C   UNL     1      44.260   2.262   9.677  0.00  0.00    +0.000 A 
ATOM     16  C   UNL     1      44.925   2.379   8.457  0.00  0.00    +0.000 A 
ATOM     17  C   UNL     1      45.631   3.544   8.158  0.00  0.00    +0.000 A 
ATOM     18 CL   UNL     1      46.436   3.679   6.642  0.00  0.00    +0.000 Cl
ATOM     19  C   UNL     1      45.674   4.588   9.081  0.00  0.00    +0.000 A 
ATOM     20  F   UNL     1      46.337   5.720   8.789  0.00  0.00    +0.000 F 
ENDBRANCH  12  13
ENDBRANCH  11  12
ENDBRANCH   4  11
TORSDOF 5
ENDMDL
MODEL 6
REMARK VINA RESULT:    -5.976      3.120      4.350
REMARK INTER + INTRA:          -7.920
REMARK INTER:                  -7.780
REMARK INTRA:                  -0.141
REMARK UNBOUND:                -0.373
REMARK  Name = 
REMARK  5 active torsions:
REMARK  status: ('A' for Active; 'I' for Inactive)
REMARK    1  A    between atoms: N_1  and  C_2
REMARK    2  A    between atoms: C_2  and  C_3
REMARK    3  A    between atoms: C_6  and  O_7
REMARK    4  A    between atoms: O_7  and  C_8
REMARK    5  A    between atoms: C_8  and  C_9
REMARK                            x       y       z     vdW  Elec       q    Type
REMARK                         _______ _______ _______ _____ _____    ______ ____
ROOT
ATOM      1  C   UNL     1      47.779   4.312  16.126  0.00  0.00    +0.000 A 
ATOM      2  N   UNL     1      47.144   3.699  15.109  0.00  0.00    +0.000 NA
ATOM      3  C   UNL     1      47.094   4.379  13.943  0.00  0.00    +0.000 A 
ATOM      4  C   UNL     1      47.624   5.639  13.759  0.00  0.00    +0.000 A 
ATOM      5  C   UNL     1      48.258   6.166  14.862  0.00  0.00    +0.000 A 
ATOM      6  N   UNL     1      48.339   5.541  16.053  0.00  0.00    +0.000 NA
ENDROOT
BRANCH   1   7
ATOM      7  C   UNL     1      47.915   3.583  17.450  0.00  0.00    +0.000 C 
BRANCH   7   8
ATOM      8  N   UNL     1      46.740   2.750  17.763  0.00  0.00    +0.000 NA
ATOM      9  H   UNL     1      45.901   3.307  17.634  0.00  0.00    +0.000 HD
ATOM     10  H   UNL     1      46.794   2.525  18.760  0.00  0.00    +0.000 HD
ENDBRANCH   7   8
ENDBRANCH   1   7
BRANCH   4  11
ATOM     11  O   UNL     1      47.478   6.221  12.541  0.00  0.00    +0.000 OA
BRANCH  11  12
ATOM     12  C   UNL     1      46.293   7.008  12.377  0.00  0.00    +0.000 C 
BRANCH  12  13
ATOM     13  C   UNL     1      45.189   6.099  11.915  0.00  0.00    +0.000 A 
ATOM     14  C   UNL     1      44.069   5.874  12.731  0.00  0.00    +0.000 A 
ATOM     15  C   UNL     1      43.030   5.048  12.297  0.00  0.00    +0.000 A 
ATOM     16  C   UNL     1      43.099   4.444  11.041  0.00  0.00    +0.000 A 
ATOM     17  C   UNL     1      44.202   4.673  10.219  0.00  0.00    +0.000 A 
ATOM     18 CL   UNL     1      44.266   3.931   8.666  0.00  0.00    +0.000 Cl
ATOM     19  C   UNL     1      45.236   5.500  10.654  0.00  0.00    +0.000 A 
ATOM     20  F   UNL     1      46.292   5.737   9.856  0.00  0.00    +0.000 F 
ENDBRANCH  12  13
ENDBRANCH  11  12
ENDBRANCH   4  11
TORSDOF 5
ENDMDL
MODEL 7
REMARK VINA RESULT:    -5.950      2.472      3.200
REMARK INTER + INTRA:          -7.888
REMARK INTER:                  -7.405
REMARK INTRA:                  -0.483
REMARK UNBOUND:                -0.373
REMARK  Name = 
REMARK  5 active torsions:
REMARK  status: ('A' for Active; 'I' for Inactive)
REMARK    1  A    between atoms: N_1  and  C_2
REMARK    2  A    between atoms: C_2  and  C_3
REMARK    3  A    between atoms: C_6  and  O_7
REMARK    4  A    between atoms: O_7  and  C_8
REMARK    5  A    between atoms: C_8  and  C_9
REMARK                            x       y       z     vdW  Elec       q    Type
REMARK                         _______ _______ _______ _____ _____    ______ ____
ROOT
ATOM      1  C   UNL     1      48.384   6.920  13.290  0.00  0.00    +0.000 A 
ATOM      2  N   UNL     1      47.519   7.556  12.475  0.00  0.00    +0.000 NA
ATOM      3  C   UNL     1      46.320   6.959  12.299  0.00  0.00    +0.000 A 
ATOM      4  C   UNL     1      45.962   5.759  12.874  0.00  0.00    +0.000 A 
ATOM      5  C   UNL     1      46.918   5.203  13.695  0.00  0.00    +0.000 A 
ATOM      6  N   UNL     1      48.133   5.745  13.909  0.00  0.00    +0.000 NA
ENDROOT
BRANCH   1   7
ATOM      7  C   UNL     1      49.730   7.561  13.571  0.00  0.00    +0.000 C 
BRANCH   7   8
ATOM      8  N   UNL     1      50.366   7.035  14.793  0.00  0.00    +0.000 NA
ATOM      9  H   UNL     1      49.719   7.138  15.568  0.00  0.00    +0.000 HD
ATOM     10  H   UNL     1      51.166   7.640  14.993  0.00  0.00    +0.000 HD
ENDBRANCH   7   8
ENDBRANCH   1   7
BRANCH   4  11
ATOM     11  O   UNL     1      44.733   5.256  12.589  0.00  0.00    +0.000 OA
BRANCH  11  12
ATOM     12  C   UNL     1      44.237   5.558  11.281  0.00  0.00    +0.000 C 
BRANCH  12  13
ATOM     13  C   UNL     1      44.579   4.411  10.374  0.00  0.00    +0.000 A 
ATOM     14  C   UNL     1      44.006   3.146  10.582  0.00  0.00    +0.000 A 
ATOM     15  C   UNL     1      44.305   2.084   9.728  0.00  0.00    +0.000 A 
ATOM     16  C   UNL     1      45.175   2.276   8.654  0.00  0.00    +0.000 A 
ATOM     17  C   UNL     1      45.738   3.532   8.432  0.00  0.00    +0.000 A 
ATOM     18 CL   UNL     1      46.799   3.758   7.094  0.00  0.00    +0.000 Cl
ATOM     19  C   UNL     1      45.436   4.592   9.285  0.00  0.00    +0.000 A 
ATOM     20  F   UNL     1      45.963   5.809   9.062  0.00  0.00    +0.000 F 
ENDBRANCH  12  13
ENDBRANCH  11  12
ENDBRANCH   4  11
TORSDOF 5
ENDMDL
MODEL 8
REMARK VINA RESULT:    -5.736      1.648      2.348
REMARK INTER + INTRA:          -7.618
REMARK INTER:                  -7.616
REMARK INTRA:                  -0.003
REMARK UNBOUND:                -0.373
REMARK  Name = 
REMARK  5 active torsions:
REMARK  status: ('A' for Active; 'I' for Inactive)
REMARK    1  A    between atoms: N_1  and  C_2
REMARK    2  A    between atoms: C_2  and  C_3
REMARK    3  A    between atoms: C_6  and  O_7
REMARK    4  A    between atoms: O_7  and  C_8
REMARK    5  A    between atoms: C_8  and  C_9
REMARK                            x       y       z     vdW  Elec       q    Type
REMARK                         _______ _______ _______ _____ _____    ______ ____
ROOT
ATOM      1  C   UNL     1      46.138   7.306  12.818  0.00  0.00    +0.000 A 
ATOM      2  N   UNL     1      45.503   7.922  11.802  0.00  0.00    +0.000 NA
ATOM      3  C   UNL     1      44.716   7.140  11.031  0.00  0.00    +0.000 A 
ATOM      4  C   UNL     1      44.558   5.783  11.215  0.00  0.00    +0.000 A 
ATOM      5  C   UNL     1      45.246   5.261  12.287  0.00  0.00    +0.000 A 
ATOM      6  N   UNL     1      46.048   5.985  13.091  0.00  0.00    +0.000 NA
ENDROOT
BRANCH   1   7
ATOM      7  C   UNL     1      46.999   8.135  13.753  0.00  0.00    +0.000 C 
BRANCH   7   8
ATOM      8  N   UNL     1      47.035   9.561  13.379  0.00  0.00    +0.000 NA
ATOM      9  H   UNL     1      46.600   9.671  12.469  0.00  0.00    +0.000 HD
ATOM     10  H   UNL     1      48.020   9.813  13.269  0.00  0.00    +0.000 HD
ENDBRANCH   7   8
ENDBRANCH   1   7
BRANCH   4  11
ATOM     11  O   UNL     1      43.758   5.111  10.347  0.00  0.00    +0.000 OA
BRANCH  11  12
ATOM     12  C   UNL     1      43.986   3.699  10.273  0.00  0.00    +0.000 C 
BRANCH  12  13
ATOM     13  C   UNL     1      45.006   3.446   9.199  0.00  0.00    +0.000 A 
ATOM     14  C   UNL     1      45.645   4.520   8.560  0.00  0.00    +0.000 A 
ATOM     15  C   UNL     1      46.609   4.288   7.578  0.00  0.00    +0.000 A 
ATOM     16  C   UNL     1      46.946   2.981   7.228  0.00  0.00    +0.000 A 
ATOM     17  C   UNL     1      46.326   1.907   7.866  0.00  0.00    +0.000 A 
ATOM     18 CL   UNL     1      46.763   0.299   7.432  0.00  0.00    +0.000 Cl
ATOM     19  C   UNL     1      45.366   2.142   8.848  0.00  0.00    +0.000 A 
ATOM     20  F   UNL     1      44.779   1.110   9.479  0.00  0.00    +0.000 F 
ENDBRANCH  12  13
ENDBRANCH  11  12
ENDBRANCH   4  11
TORSDOF 5
ENDMDL
MODEL 9
REMARK VINA RESULT:    -5.374      5.087      7.634
REMARK INTER + INTRA:          -7.161
REMARK INTER:                  -6.830
REMARK INTRA:                  -0.330
REMARK UNBOUND:                -0.373
REMARK  Name = 
REMARK  5 active torsions:
REMARK  status: ('A' for Active; 'I' for Inactive)
REMARK    1  A    between atoms: N_1  and  C_2
REMARK    2  A    between atoms: C_2  and  C_3
REMARK    3  A    between atoms: C_6  and  O_7
REMARK    4  A    between atoms: O_7  and  C_8
REMARK    5  A    between atoms: C_8  and  C_9
REMARK                            x       y       z     vdW  Elec       q    Type
REMARK                         _______ _______ _______ _____ _____    ______ ____
ROOT
ATOM      1  C   UNL     1      45.653   6.285  12.451  0.00  0.00    +0.000 A 
ATOM      2  N   UNL     1      45.105   5.057  12.543  0.00  0.00    +0.000 NA
ATOM      3  C   UNL     1      45.696   4.205  13.408  0.00  0.00    +0.000 A 
ATOM      4  C   UNL     1      46.811   4.514  14.157  0.00  0.00    +0.000 A 
ATOM      5  C   UNL     1      47.282   5.798  13.991  0.00  0.00    +0.000 A 
ATOM      6  N   UNL     1      46.740   6.694  13.144  0.00  0.00    +0.000 NA
ENDROOT
BRANCH   1   7
ATOM      7  C   UNL     1      45.008   7.308  11.535  0.00  0.00    +0.000 C 
BRANCH   7   8
ATOM      8  N   UNL     1      43.579   7.037  11.296  0.00  0.00    +0.000 NA
ATOM      9  H   UNL     1      43.343   7.328  10.353  0.00  0.00    +0.000 HD
ATOM     10  H   UNL     1      43.053   7.642  11.932  0.00  0.00    +0.000 HD
ENDBRANCH   7   8
ENDBRANCH   1   7
BRANCH   4  11
ATOM     11  O   UNL     1      47.322   3.552  14.968  0.00  0.00    +0.000 OA
BRANCH  11  12
ATOM     12  C   UNL     1      47.287   3.850  16.368  0.00  0.00    +0.000 C 
BRANCH  12  13
ATOM     13  C   UNL     1      48.698   3.845  16.883  0.00  0.00    +0.000 A 
ATOM     14  C   UNL     1      49.279   5.025  17.374  0.00  0.00    +0.000 A 
ATOM     15  C   UNL     1      50.582   5.019  17.873  0.00  0.00    +0.000 A 
ATOM     16  C   UNL     1      51.315   3.833  17.893  0.00  0.00    +0.000 A 
ATOM     17  C   UNL     1      50.742   2.653  17.420  0.00  0.00    +0.000 A 
ATOM     18 CL   UNL     1      51.656   1.193  17.463  0.00  0.00    +0.000 Cl
ATOM     19  C   UNL     1      49.440   2.661  16.924  0.00  0.00    +0.000 A 
ATOM     20  F   UNL     1      48.878   1.522  16.484  0.00  0.00    +0.000 F 
ENDBRANCH  12  13
ENDBRANCH  11  12
ENDBRANCH   4  11
TORSDOF 5
ENDMDL
