MODEL 1
REMARK VINA RESULT:    -8.530      0.000      0.000
REMARK INTER + INTRA:         -12.436
REMARK INTER:                 -11.772
REMARK INTRA:                  -0.665
REMARK UNBOUND:                -0.665
REMARK  Name = 
REMARK  8 active torsions:
REMARK  status: ('A' for Active; 'I' for Inactive)
REMARK    1  A    between atoms: C_1  and  O_2
REMARK    2  A    between atoms: O_2  and  C_3
REMARK    3  A    between atoms: C_9  and  C_10
REMARK    4  A    between atoms: C_10  and  C_11
REMARK    5  A    between atoms: C_11  and  O_12
REMARK    6  A    between atoms: O_12  and  C_13
REMARK    7  A    between atoms: C_17  and  C_18
REMARK    8  A    between atoms: C_18  and  O_20
REMARK                            x       y       z     vdW  Elec       q    Type
REMARK                         _______ _______ _______ _____ _____    ______ ____
ROOT
ATOM      1  C   UNL     1      43.358   4.398  10.845  0.00  0.00    +0.000 C 
ENDROOT
BRANCH   1   2
ATOM      2  C   UNL     1      43.332   4.340  12.372  0.00  0.00    +0.000 C 
BRANCH   2   9
ATOM      3  C   UNL     1      47.470   4.854  14.974  0.00  0.00    +0.000 C 
ATOM      4  O   UNL     1      48.340   5.588  15.430  0.00  0.00    +0.000 OA
ATOM      5  N   UNL     1      46.840   5.065  13.761  0.00  0.00    +0.000 N 
ATOM      6  C   UNL     1      47.232   6.191  12.928  0.00  0.00    +0.000 C 
ATOM      7  C   UNL     1      46.044   7.120  12.709  0.00  0.00    +0.000 C 
ATOM      8  C   UNL     1      44.844   6.355  12.143  0.00  0.00    +0.000 C 
ATOM      9  C   UNL     1      44.487   5.133  13.012  0.00  0.00    +0.000 C 
ATOM     10  C   UNL     1      45.735   4.262  13.255  0.00  0.00    +0.000 C 
BRANCH   3  12
ATOM     11  C   UNL     1      47.180   3.754  17.033  0.00  0.00    +0.000 C 
ATOM     12  O   UNL     1      47.021   3.737  15.613  0.00  0.00    +0.000 OA
ENDBRANCH   3  12
ENDBRANCH   2   9
ENDBRANCH   1   2
BRANCH   1  13
ATOM     13  O   UNL     1      43.697   3.117  10.315  0.00  0.00    +0.000 OA
BRANCH  13  14
ATOM     14  C   UNL     1      44.683   3.108   9.365  0.00  0.00    +0.000 A 
ATOM     15  C   UNL     1      45.021   4.341   8.814  0.00  0.00    +0.000 A 
ATOM     16  N   UNL     1      45.958   4.515   7.849  0.00  0.00    +0.000 NA
ATOM     17  C   UNL     1      46.586   3.401   7.403  0.00  0.00    +0.000 A 
ATOM     18  C   UNL     1      46.339   2.131   7.903  0.00  0.00    +0.000 A 
ATOM     19  C   UNL     1      45.361   1.982   8.893  0.00  0.00    +0.000 A 
BRANCH  18  20
ATOM     20  C   UNL     1      47.068   0.991   7.319  0.00  0.00    +0.000 C 
ATOM     21  O   UNL     1      47.853   1.121   6.395  0.00  0.00    +0.000 OA
BRANCH  20  22
ATOM     22  O   UNL     1      46.816  -0.197   7.908  0.00  0.00    +0.000 OA
ATOM     23  H   UNL     1      47.090  -0.989   7.411  0.00  0.00    +0.000 HD
ENDBRANCH  20  22
ENDBRANCH  18  20
ENDBRANCH  13  14
ENDBRANCH   1  13
TORSDOF 7
ENDMDL
MODEL 2
REMARK VINA RESULT:    -7.360      1.742      2.729
REMARK INTER + INTRA:         -10.822
REMARK INTER:                 -10.178
REMARK INTRA:                  -0.644
REMARK UNBOUND:                -0.665
REMARK  Name = 
REMARK  8 active torsions:
REMARK  status: ('A' for Active; 'I' for Inactive)
REMARK    1  A    between atoms: C_1  and  O_2
REMARK    2  A    between atoms: O_2  and  C_3
REMARK    3  A    between atoms: C_9  and  C_10
REMARK    4  A    between atoms: C_10  and  C_11
REMARK    5  A    between atoms: C_11  and  O_12
REMARK    6  A    between atoms: O_12  and  C_13
REMARK    7  A    between atoms: C_17  and  C_18
REMARK    8  A    between atoms: C_18  and  O_20
REMARK                            x       y       z     vdW  Elec       q    Type
REMARK                         _______ _______ _______ _____ _____    ______ ____
ROOT
ATOM      1  C   UNL     1      43.849   4.344  10.306  0.00  0.00    +0.000 C 
ENDROOT
BRANCH   1   2
ATOM      2  C   UNL     1      44.403   5.575  11.022  0.00  0.00    +0.000 C 
BRANCH   2   9
ATOM      3  C   UNL     1      48.120   6.648  14.055  0.00  0.00    +0.000 C 
ATOM      4  O   UNL     1      49.077   6.266  14.719  0.00  0.00    +0.000 OA
ATOM      5  N   UNL     1      46.969   5.905  13.863  0.00  0.00    +0.000 N 
ATOM      6  C   UNL     1      46.829   4.607  14.504  0.00  0.00    +0.000 C 
ATOM      7  C   UNL     1      46.654   3.519  13.452  0.00  0.00    +0.000 C 
ATOM      8  C   UNL     1      45.488   3.844  12.514  0.00  0.00    +0.000 C 
ATOM      9  C   UNL     1      45.631   5.247  11.894  0.00  0.00    +0.000 C 
ATOM     10  C   UNL     1      45.868   6.300  12.995  0.00  0.00    +0.000 C 
BRANCH   3  12
ATOM     11  C   UNL     1      48.443   8.971  14.240  0.00  0.00    +0.000 C 
ATOM     12  O   UNL     1      48.079   7.855  13.424  0.00  0.00    +0.000 OA
ENDBRANCH   3  12
ENDBRANCH   2   9
ENDBRANCH   1   2
BRANCH   1  13
ATOM     13  O   UNL     1      44.166   4.407   8.915  0.00  0.00    +0.000 OA
BRANCH  13  14
ATOM     14  C   UNL     1      44.967   3.404   8.441  0.00  0.00    +0.000 A 
ATOM     15  C   UNL     1      44.882   2.181   9.100  0.00  0.00    +0.000 A 
ATOM     16  N   UNL     1      45.616   1.087   8.779  0.00  0.00    +0.000 NA
ATOM     17  C   UNL     1      46.487   1.220   7.752  0.00  0.00    +0.000 A 
ATOM     18  C   UNL     1      46.631   2.388   7.016  0.00  0.00    +0.000 A 
ATOM     19  C   UNL     1      45.866   3.502   7.376  0.00  0.00    +0.000 A 
BRANCH  18  20
ATOM     20  C   UNL     1      47.634   2.420   5.935  0.00  0.00    +0.000 C 
ATOM     21  O   UNL     1      48.555   1.623   5.874  0.00  0.00    +0.000 OA
BRANCH  20  22
ATOM     22  O   UNL     1      47.431   3.382   5.011  0.00  0.00    +0.000 OA
ATOM     23  H   UNL     1      47.390   3.085   4.084  0.00  0.00    +0.000 HD
ENDBRANCH  20  22
ENDBRANCH  18  20
ENDBRANCH  13  14
ENDBRANCH   1  13
TORSDOF 7
ENDMDL
MODEL 3
REMARK VINA RESULT:    -6.896      1.272      6.579
REMARK INTER + INTRA:         -10.181
REMARK INTER:                  -9.459
REMARK INTRA:                  -0.722
REMARK UNBOUND:                -0.665
REMARK  Name = 
REMARK  8 active torsions:
REMARK  status: ('A' for Active; 'I' for Inactive)
REMARK    1  A    between atoms: C_1  and  O_2
REMARK    2  A    between atoms: O_2  and  C_3
REMARK    3  A    between atoms: C_9  and  C_10
REMARK    4  A    between atoms: C_10  and  C_11
REMARK    5  A    between atoms: C_11  and  O_12
REMARK    6  A    between atoms: O_12  and  C_13
REMARK    7  A    between atoms: C_17  and  C_18
REMARK    8  A    between atoms: C_18  and  O_20
REMARK                            x       y       z     vdW  Elec       q    Type
REMARK                         _______ _______ _______ _____ _____    ______ ____
ROOT
ATOM      1  C   UNL     1      43.382   4.971  10.668  0.00  0.00    +0.000 C 
ENDROOT
BRANCH   1   2
ATOM      2  C   UNL     1      43.922   3.546  10.553  0.00  0.00    +0.000 C 
BRANCH   2   9
ATOM      3  C   UNL     1      46.988   1.308   7.429  0.00  0.00    +0.000 C 
ATOM      4  O   UNL     1      47.990   1.356   6.725  0.00  0.00    +0.000 OA
ATOM      5  N   UNL     1      46.139   2.380   7.640  0.00  0.00    +0.000 N 
ATOM      6  C   UNL     1      46.393   3.647   6.972  0.00  0.00    +0.000 C 
ATOM      7  C   UNL     1      46.614   4.748   8.001  0.00  0.00    +0.000 C 
ATOM      8  C   UNL     1      45.442   4.823   8.985  0.00  0.00    +0.000 C 
ATOM      9  C   UNL     1      45.156   3.455   9.634  0.00  0.00    +0.000 C 
ATOM     10  C   UNL     1      45.005   2.367   8.553  0.00  0.00    +0.000 C 
BRANCH   3  12
ATOM     11  C   UNL     1      46.477  -0.984   7.275  0.00  0.00    +0.000 C 
ATOM     12  O   UNL     1      46.590   0.184   8.091  0.00  0.00    +0.000 OA
ENDBRANCH   3  12
ENDBRANCH   2   9
ENDBRANCH   1   2
BRANCH   1  13
ATOM     13  O   UNL     1      43.402   5.390  12.033  0.00  0.00    +0.000 OA
BRANCH  13  14
ATOM     14  C   UNL     1      44.643   5.570  12.581  0.00  0.00    +0.000 A 
ATOM     15  C   UNL     1      45.376   6.655  12.109  0.00  0.00    +0.000 A 
ATOM     16  N   UNL     1      46.628   6.971  12.524  0.00  0.00    +0.000 NA
ATOM     17  C   UNL     1      47.183   6.158  13.454  0.00  0.00    +0.000 A 
ATOM     18  C   UNL     1      46.528   5.066  14.006  0.00  0.00    +0.000 A 
ATOM     19  C   UNL     1      45.240   4.762  13.551  0.00  0.00    +0.000 A 
BRANCH  18  20
ATOM     20  C   UNL     1      47.246   4.240  14.993  0.00  0.00    +0.000 C 
ATOM     21  O   UNL     1      47.556   3.081  14.773  0.00  0.00    +0.000 OA
BRANCH  20  22
ATOM     22  O   UNL     1      47.554   4.878  16.141  0.00  0.00    +0.000 OA
ATOM     23  H   UNL     1      47.784   5.822  16.059  0.00  0.00    +0.000 HD
ENDBRANCH  20  22
ENDBRANCH  18  20
ENDBRANCH  13  14
ENDBRANCH   1  13
TORSDOF 7
ENDMDL
MODEL 4
REMARK VINA RESULT:    -6.785      1.421      1.839
REMARK INTER + INTRA:         -10.028
REMARK INTER:                  -9.538
REMARK INTRA:                  -0.490
REMARK UNBOUND:                -0.665
REMARK  Name = 
REMARK  8 active torsions:
REMARK  status: ('A' for Active; 'I' for Inactive)
REMARK    1  A    between atoms: C_1  and  O_2
REMARK    2  A    between atoms: O_2  and  C_3
REMARK    3  A    between atoms: C_9  and  C_10
REMARK    4  A    between atoms: C_10  and  C_11
REMARK    5  A    between atoms: C_11  and  O_12
REMARK    6  A    between atoms: O_12  and  C_13
REMARK    7  A    between atoms: C_17  and  C_18
REMARK    8  A    between atoms: C_18  and  O_20
REMARK                            x       y       z     vdW  Elec       q    Type
REMARK                         _______ _______ _______ _____ _____    ______ ____
ROOT
ATOM      1  C   UNL     1      44.807   5.247   9.968  0.00  0.00    +0.000 C 
ENDROOT
BRANCH   1   2
ATOM      2  C   UNL     1      44.260   5.143  11.391  0.00  0.00    +0.000 C 
BRANCH   2   9
ATOM      3  C   UNL     1      47.840   5.406  14.749  0.00  0.00    +0.000 C 
ATOM      4  O   UNL     1      48.494   6.081  15.536  0.00  0.00    +0.000 OA
ATOM      5  N   UNL     1      47.356   5.880  13.543  0.00  0.00    +0.000 N 
ATOM      6  C   UNL     1      47.655   7.242  13.127  0.00  0.00    +0.000 C 
ATOM      7  C   UNL     1      46.364   8.031  12.951  0.00  0.00    +0.000 C 
ATOM      8  C   UNL     1      45.409   7.315  11.991  0.00  0.00    +0.000 C 
ATOM      9  C   UNL     1      45.156   5.858  12.421  0.00  0.00    +0.000 C 
ATOM     10  C   UNL     1      46.493   5.124  12.647  0.00  0.00    +0.000 C 
BRANCH   3  12
ATOM     11  C   UNL     1      47.441   3.729  16.350  0.00  0.00    +0.000 C 
ATOM     12  O   UNL     1      47.511   4.102  14.973  0.00  0.00    +0.000 OA
ENDBRANCH   3  12
ENDBRANCH   2   9
ENDBRANCH   1   2
BRANCH   1  13
ATOM     13  O   UNL     1      44.139   4.312   9.120  0.00  0.00    +0.000 OA
BRANCH  13  14
ATOM     14  C   UNL     1      44.922   3.320   8.596  0.00  0.00    +0.000 A 
ATOM     15  C   UNL     1      44.806   2.065   9.185  0.00  0.00    +0.000 A 
ATOM     16  N   UNL     1      45.518   0.974   8.808  0.00  0.00    +0.000 NA
ATOM     17  C   UNL     1      46.400   1.146   7.794  0.00  0.00    +0.000 A 
ATOM     18  C   UNL     1      46.574   2.349   7.126  0.00  0.00    +0.000 A 
ATOM     19  C   UNL     1      45.830   3.458   7.544  0.00  0.00    +0.000 A 
BRANCH  18  20
ATOM     20  C   UNL     1      47.585   2.420   6.055  0.00  0.00    +0.000 C 
ATOM     21  O   UNL     1      48.475   1.593   5.941  0.00  0.00    +0.000 OA
BRANCH  20  22
ATOM     22  O   UNL     1      47.426   3.452   5.201  0.00  0.00    +0.000 OA
ATOM     23  H   UNL     1      47.622   4.338   5.558  0.00  0.00    +0.000 HD
ENDBRANCH  20  22
ENDBRANCH  18  20
ENDBRANCH  13  14
ENDBRANCH   1  13
TORSDOF 7
ENDMDL
MODEL 5
REMARK VINA RESULT:    -6.616      3.093      4.196
REMARK INTER + INTRA:          -9.795
REMARK INTER:                  -9.320
REMARK INTRA:                  -0.475
REMARK UNBOUND:                -0.665
REMARK  Name = 
REMARK  8 active torsions:
REMARK  status: ('A' for Active; 'I' for Inactive)
REMARK    1  A    between atoms: C_1  and  O_2
REMARK    2  A    between atoms: O_2  and  C_3
REMARK    3  A    between atoms: C_9  and  C_10
REMARK    4  A    between atoms: C_10  and  C_11
REMARK    5  A    between atoms: C_11  and  O_12
REMARK    6  A    between atoms: O_12  and  C_13
REMARK    7  A    between atoms: C_17  and  C_18
REMARK    8  A    between atoms: C_18  and  O_20
REMARK                            x       y       z     vdW  Elec       q    Type
REMARK                         _______ _______ _______ _____ _____    ______ ____
ROOT
ATOM      1  C   UNL     1      44.222   4.918  10.868  0.00  0.00    +0.000 C 
ENDROOT
BRANCH   1   2
ATOM      2  C   UNL     1      45.632   5.108  11.428  0.00  0.00    +0.000 C 
BRANCH   2   9
ATOM      3  C   UNL     1      44.919   9.963  11.713  0.00  0.00    +0.000 C 
ATOM      4  O   UNL     1      45.387  11.096  11.702  0.00  0.00    +0.000 OA
ATOM      5  N   UNL     1      45.572   8.863  12.239  0.00  0.00    +0.000 N 
ATOM      6  C   UNL     1      46.877   9.024  12.861  0.00  0.00    +0.000 C 
ATOM      7  C   UNL     1      47.917   8.189  12.124  0.00  0.00    +0.000 C 
ATOM      8  C   UNL     1      47.481   6.724  12.035  0.00  0.00    +0.000 C 
ATOM      9  C   UNL     1      46.072   6.584  11.427  0.00  0.00    +0.000 C 
ATOM     10  C   UNL     1      45.074   7.496  12.167  0.00  0.00    +0.000 C 
BRANCH   3  12
ATOM     11  C   UNL     1      42.901  10.780  10.823  0.00  0.00    +0.000 C 
ATOM     12  O   UNL     1      43.692   9.654  11.207  0.00  0.00    +0.000 OA
ENDBRANCH   3  12
ENDBRANCH   2   9
ENDBRANCH   1   2
BRANCH   1  13
ATOM     13  O   UNL     1      44.270   4.850   9.443  0.00  0.00    +0.000 OA
BRANCH  13  14
ATOM     14  C   UNL     1      44.912   3.761   8.920  0.00  0.00    +0.000 A 
ATOM     15  C   UNL     1      44.556   2.522   9.446  0.00  0.00    +0.000 A 
ATOM     16  N   UNL     1      45.103   1.343   9.062  0.00  0.00    +0.000 NA
ATOM     17  C   UNL     1      46.063   1.400   8.108  0.00  0.00    +0.000 A 
ATOM     18  C   UNL     1      46.473   2.581   7.505  0.00  0.00    +0.000 A 
ATOM     19  C   UNL     1      45.895   3.782   7.928  0.00  0.00    +0.000 A 
BRANCH  18  20
ATOM     20  C   UNL     1      47.547   2.520   6.496  0.00  0.00    +0.000 C 
ATOM     21  O   UNL     1      48.454   1.707   6.556  0.00  0.00    +0.000 OA
BRANCH  20  22
ATOM     22  O   UNL     1      47.427   3.415   5.494  0.00  0.00    +0.000 OA
ATOM     23  H   UNL     1      47.539   3.066   4.591  0.00  0.00    +0.000 HD
ENDBRANCH  20  22
ENDBRANCH  18  20
ENDBRANCH  13  14
ENDBRANCH   1  13
TORSDOF 7
ENDMDL
MODEL 6
REMARK VINA RESULT:    -6.281      2.056      6.893
REMARK INTER + INTRA:          -9.332
REMARK INTER:                  -8.540
REMARK INTRA:                  -0.792
REMARK UNBOUND:                -0.665
REMARK  Name = 
REMARK  8 active torsions:
REMARK  status: ('A' for Active; 'I' for Inactive)
REMARK    1  A    between atoms: C_1  and  O_2
REMARK    2  A    between atoms: O_2  and  C_3
REMARK    3  A    between atoms: C_9  and  C_10
REMARK    4  A    between atoms: C_10  and  C_11
REMARK    5  A    between atoms: C_11  and  O_12
REMARK    6  A    between atoms: O_12  and  C_13
REMARK    7  A    between atoms: C_17  and  C_18
REMARK    8  A    between atoms: C_18  and  O_20
REMARK                            x       y       z     vdW  Elec       q    Type
REMARK                         _______ _______ _______ _____ _____    ______ ____
ROOT
ATOM      1  C   UNL     1      45.669   7.741  12.852  0.00  0.00    +0.000 C 
ENDROOT
BRANCH   1   2
ATOM      2  C   UNL     1      44.948   7.583  11.514  0.00  0.00    +0.000 C 
BRANCH   2   9
ATOM      3  C   UNL     1      44.581   3.195   9.329  0.00  0.00    +0.000 C 
ATOM      4  O   UNL     1      44.053   2.090   9.274  0.00  0.00    +0.000 OA
ATOM      5  N   UNL     1      44.823   3.878  10.508  0.00  0.00    +0.000 N 
ATOM      6  C   UNL     1      44.483   3.264  11.783  0.00  0.00    +0.000 C 
ATOM      7  C   UNL     1      43.465   4.122  12.523  0.00  0.00    +0.000 C 
ATOM      8  C   UNL     1      43.965   5.562  12.673  0.00  0.00    +0.000 C 
ATOM      9  C   UNL     1      44.373   6.168  11.317  0.00  0.00    +0.000 C 
ATOM     10  C   UNL     1      45.354   5.231  10.583  0.00  0.00    +0.000 C 
BRANCH   3  12
ATOM     11  C   UNL     1      45.945   3.198   7.412  0.00  0.00    +0.000 C 
ATOM     12  O   UNL     1      44.994   3.885   8.228  0.00  0.00    +0.000 OA
ENDBRANCH   3  12
ENDBRANCH   2   9
ENDBRANCH   1   2
BRANCH   1  13
ATOM     13  O   UNL     1      46.984   7.191  12.764  0.00  0.00    +0.000 OA
BRANCH  13  14
ATOM     14  C   UNL     1      47.475   6.637  13.915  0.00  0.00    +0.000 A 
ATOM     15  C   UNL     1      48.355   7.424  14.652  0.00  0.00    +0.000 A 
ATOM     16  N   UNL     1      48.952   7.029  15.804  0.00  0.00    +0.000 NA
ATOM     17  C   UNL     1      48.664   5.779  16.241  0.00  0.00    +0.000 A 
ATOM     18  C   UNL     1      47.782   4.926  15.592  0.00  0.00    +0.000 A 
ATOM     19  C   UNL     1      47.188   5.360  14.402  0.00  0.00    +0.000 A 
BRANCH  18  20
ATOM     20  C   UNL     1      47.568   3.578  16.150  0.00  0.00    +0.000 C 
ATOM     21  O   UNL     1      46.733   3.352  17.009  0.00  0.00    +0.000 OA
BRANCH  20  22
ATOM     22  O   UNL     1      48.351   2.619  15.614  0.00  0.00    +0.000 OA
ATOM     23  H   UNL     1      49.184   2.432  16.083  0.00  0.00    +0.000 HD
ENDBRANCH  20  22
ENDBRANCH  18  20
ENDBRANCH  13  14
ENDBRANCH   1  13
TORSDOF 7
ENDMDL
MODEL 7
REMARK VINA RESULT:    -6.088      2.644      7.652
REMARK INTER + INTRA:          -9.066
REMARK INTER:                  -8.592
REMARK INTRA:                  -0.474
REMARK UNBOUND:                -0.665
REMARK  Name = 
REMARK  8 active torsions:
REMARK  status: ('A' for Active; 'I' for Inactive)
REMARK    1  A    between atoms: C_1  and  O_2
REMARK    2  A    between atoms: O_2  and  C_3
REMARK    3  A    between atoms: C_9  and  C_10
REMARK    4  A    between atoms: C_10  and  C_11
REMARK    5  A    between atoms: C_11  and  O_12
REMARK    6  A    between atoms: O_12  and  C_13
REMARK    7  A    between atoms: C_17  and  C_18
REMARK    8  A    between atoms: C_18  and  O_20
REMARK                            x       y       z     vdW  Elec       q    Type
REMARK                         _______ _______ _______ _____ _____    ______ ____
ROOT
ATOM      1  C   UNL     1      47.039   3.767  14.369  0.00  0.00    +0.000 C 
ENDROOT
BRANCH   1   2
ATOM      2  C   UNL     1      47.157   5.234  13.956  0.00  0.00    +0.000 C 
BRANCH   2   9
ATOM      3  C   UNL     1      44.381   4.122  10.055  0.00  0.00    +0.000 C 
ATOM      4  O   UNL     1      43.786   4.492   9.049  0.00  0.00    +0.000 OA
ATOM      5  N   UNL     1      44.497   4.880  11.206  0.00  0.00    +0.000 N 
ATOM      6  C   UNL     1      43.856   6.184  11.283  0.00  0.00    +0.000 C 
ATOM      7  C   UNL     1      44.900   7.269  11.513  0.00  0.00    +0.000 C 
ATOM      8  C   UNL     1      45.754   6.957  12.746  0.00  0.00    +0.000 C 
ATOM      9  C   UNL     1      46.374   5.548  12.667  0.00  0.00    +0.000 C 
ATOM     10  C   UNL     1      45.286   4.498  12.369  0.00  0.00    +0.000 C 
BRANCH   3  12
ATOM     11  C   UNL     1      45.032   2.150   8.948  0.00  0.00    +0.000 C 
ATOM     12  O   UNL     1      44.999   2.912  10.157  0.00  0.00    +0.000 OA
ENDBRANCH   3  12
ENDBRANCH   2   9
ENDBRANCH   1   2
BRANCH   1  13
ATOM     13  O   UNL     1      46.713   3.677  15.756  0.00  0.00    +0.000 OA
BRANCH  13  14
ATOM     14  C   UNL     1      47.776   3.666  16.618  0.00  0.00    +0.000 A 
ATOM     15  C   UNL     1      47.790   4.657  17.595  0.00  0.00    +0.000 A 
ATOM     16  N   UNL     1      48.774   4.808  18.516  0.00  0.00    +0.000 NA
ATOM     17  C   UNL     1      49.803   3.929  18.456  0.00  0.00    +0.000 A 
ATOM     18  C   UNL     1      49.872   2.892  17.537  0.00  0.00    +0.000 A 
ATOM     19  C   UNL     1      48.845   2.767  16.594  0.00  0.00    +0.000 A 
BRANCH  18  20
ATOM     20  C   UNL     1      51.056   2.015  17.553  0.00  0.00    +0.000 C 
ATOM     21  O   UNL     1      51.148   1.027  16.843  0.00  0.00    +0.000 OA
BRANCH  20  22
ATOM     22  O   UNL     1      52.035   2.410  18.393  0.00  0.00    +0.000 OA
ATOM     23  H   UNL     1      51.768   3.015  19.109  0.00  0.00    +0.000 HD
ENDBRANCH  20  22
ENDBRANCH  18  20
ENDBRANCH  13  14
ENDBRANCH   1  13
TORSDOF 7
ENDMDL
MODEL 8
REMARK VINA RESULT:    -6.031      2.164      7.391
REMARK INTER + INTRA:          -8.987
REMARK INTER:                  -8.819
REMARK INTRA:                  -0.169
REMARK UNBOUND:                -0.665
REMARK  Name = 
REMARK  8 active torsions:
REMARK  status: ('A' for Active; 'I' for Inactive)
REMARK    1  A    between atoms: C_1  and  O_2
REMARK    2  A    between atoms: O_2  and  C_3
REMARK    3  A    between atoms: C_9  and  C_10
REMARK    4  A    between atoms: C_10  and  C_11
REMARK    5  A    between atoms: C_11  and  O_12
REMARK    6  A    between atoms: O_12  and  C_13
REMARK    7  A    between atoms: C_17  and  C_18
REMARK    8  A    between atoms: C_18  and  O_20
REMARK                            x       y       z     vdW  Elec       q    Type
REMARK                         _______ _______ _______ _____ _____    ______ ____
ROOT
ATOM      1  C   UNL     1      47.092   6.637  12.630  0.00  0.00    +0.000 C 
ENDROOT
BRANCH   1   2
ATOM      2  C   UNL     1      45.932   7.388  11.977  0.00  0.00    +0.000 C 
BRANCH   2   9
ATOM      3  C   UNL     1      45.059   4.013   8.511  0.00  0.00    +0.000 C 
ATOM      4  O   UNL     1      44.254   3.323   7.896  0.00  0.00    +0.000 OA
ATOM      5  N   UNL     1      44.923   4.355   9.845  0.00  0.00    +0.000 N 
ATOM      6  C   UNL     1      43.792   3.853  10.610  0.00  0.00    +0.000 C 
ATOM      7  C   UNL     1      42.957   5.013  11.135  0.00  0.00    +0.000 C 
ATOM      8  C   UNL     1      43.820   5.996  11.931  0.00  0.00    +0.000 C 
ATOM      9  C   UNL     1      45.042   6.468  11.120  0.00  0.00    +0.000 C 
ATOM     10  C   UNL     1      45.815   5.257  10.559  0.00  0.00    +0.000 C 
BRANCH   3  12
ATOM     11  C   UNL     1      46.820   3.678   6.987  0.00  0.00    +0.000 C 
ATOM     12  O   UNL     1      46.189   4.527   7.949  0.00  0.00    +0.000 OA
ENDBRANCH   3  12
ENDBRANCH   2   9
ENDBRANCH   1   2
BRANCH   1  13
ATOM     13  O   UNL     1      46.587   5.630  13.507  0.00  0.00    +0.000 OA
BRANCH  13  14
ATOM     14  C   UNL     1      47.313   5.415  14.647  0.00  0.00    +0.000 A 
ATOM     15  C   UNL     1      48.392   6.268  14.863  0.00  0.00    +0.000 A 
ATOM     16  N   UNL     1      49.230   6.187  15.926  0.00  0.00    +0.000 NA
ATOM     17  C   UNL     1      48.985   5.198  16.818  0.00  0.00    +0.000 A 
ATOM     18  C   UNL     1      47.924   4.311  16.707  0.00  0.00    +0.000 A 
ATOM     19  C   UNL     1      47.081   4.416  15.595  0.00  0.00    +0.000 A 
BRANCH  18  20
ATOM     20  C   UNL     1      47.776   3.259  17.729  0.00  0.00    +0.000 C 
ATOM     21  O   UNL     1      48.678   2.956  18.491  0.00  0.00    +0.000 OA
BRANCH  20  22
ATOM     22  O   UNL     1      46.556   2.682  17.767  0.00  0.00    +0.000 OA
ATOM     23  H   UNL     1      46.000   2.904  18.537  0.00  0.00    +0.000 HD
ENDBRANCH  20  22
ENDBRANCH  18  20
ENDBRANCH  13  14
ENDBRANCH   1  13
TORSDOF 7
ENDMDL
MODEL 9
REMARK VINA RESULT:    -5.839      2.407      3.883
REMARK INTER + INTRA:          -8.722
REMARK INTER:                  -8.081
REMARK INTRA:                  -0.642
REMARK UNBOUND:                -0.665
REMARK  Name = 
REMARK  8 active torsions:
REMARK  status: ('A' for Active; 'I' for Inactive)
REMARK    1  A    between atoms: C_1  and  O_2
REMARK    2  A    between atoms: O_2  and  C_3
REMARK    3  A    between atoms: C_9  and  C_10
REMARK    4  A    between atoms: C_10  and  C_11
REMARK    5  A    between atoms: C_11  and  O_12
REMARK    6  A    between atoms: O_12  and  C_13
REMARK    7  A    between atoms: C_17  and  C_18
REMARK    8  A    between atoms: C_18  and  O_20
REMARK                            x       y       z     vdW  Elec       q    Type
REMARK                         _______ _______ _______ _____ _____    ______ ____
ROOT
ATOM      1  C   UNL     1      45.446   7.541  11.900  0.00  0.00    +0.000 C 
ENDROOT
BRANCH   1   2
ATOM      2  C   UNL     1      46.950   7.727  12.102  0.00  0.00    +0.000 C 
BRANCH   2   9
ATOM      3  C   UNL     1      48.599   5.795  16.311  0.00  0.00    +0.000 C 
ATOM      4  O   UNL     1      48.888   5.944  17.493  0.00  0.00    +0.000 OA
ATOM      5  N   UNL     1      48.775   6.770  15.344  0.00  0.00    +0.000 N 
ATOM      6  C   UNL     1      49.373   8.046  15.703  0.00  0.00    +0.000 C 
ATOM      7  C   UNL     1      48.398   9.181  15.417  0.00  0.00    +0.000 C 
ATOM      8  C   UNL     1      47.920   9.140  13.963  0.00  0.00    +0.000 C 
ATOM      9  C   UNL     1      47.345   7.760  13.591  0.00  0.00    +0.000 C 
ATOM     10  C   UNL     1      48.343   6.645  13.959  0.00  0.00    +0.000 C 
BRANCH   3  12
ATOM     11  C   UNL     1      47.228   3.926  16.713  0.00  0.00    +0.000 C 
ATOM     12  O   UNL     1      48.068   4.645  15.808  0.00  0.00    +0.000 OA
ENDBRANCH   3  12
ENDBRANCH   2   9
ENDBRANCH   1   2
BRANCH   1  13
ATOM     13  O   UNL     1      44.939   6.607  12.852  0.00  0.00    +0.000 OA
BRANCH  13  14
ATOM     14  C   UNL     1      44.547   5.397  12.348  0.00  0.00    +0.000 A 
ATOM     15  C   UNL     1      43.903   4.537  13.233  0.00  0.00    +0.000 A 
ATOM     16  N   UNL     1      43.466   3.295  12.911  0.00  0.00    +0.000 NA
ATOM     17  C   UNL     1      43.690   2.882  11.640  0.00  0.00    +0.000 A 
ATOM     18  C   UNL     1      44.303   3.670  10.676  0.00  0.00    +0.000 A 
ATOM     19  C   UNL     1      44.749   4.945  11.042  0.00  0.00    +0.000 A 
BRANCH  18  20
ATOM     20  C   UNL     1      44.515   3.101   9.333  0.00  0.00    +0.000 C 
ATOM     21  O   UNL     1      44.538   3.790   8.327  0.00  0.00    +0.000 OA
BRANCH  20  22
ATOM     22  O   UNL     1      44.710   1.766   9.314  0.00  0.00    +0.000 OA
ATOM     23  H   UNL     1      44.057   1.230   9.801  0.00  0.00    +0.000 HD
ENDBRANCH  20  22
ENDBRANCH  18  20
ENDBRANCH  13  14
ENDBRANCH   1  13
TORSDOF 7
ENDMDL
