MODEL 1
REMARK VINA RESULT:    -7.578      0.000      0.000
REMARK INTER + INTRA:         -10.834
REMARK INTER:                  -9.792
REMARK INTRA:                  -1.042
REMARK UNBOUND:                -1.042
REMARK  Name = 
REMARK  6 active torsions:
REMARK  status: ('A' for Active; 'I' for Inactive)
REMARK    1  A    between atoms: C_1  and  C_2
REMARK    2  A    between atoms: C_2  and  C_3
REMARK    3  A    between atoms: C_2  and  C_18
REMARK    4  A    between atoms: C_3  and  N_4
REMARK    5  A    between atoms: C_9  and  O_10
REMARK    6  A    between atoms: O_10  and  C_11
REMARK                            x       y       z     vdW  Elec       q    Type
REMARK                         _______ _______ _______ _____ _____    ______ ____
ROOT
ATOM      1  N   UNL     1      46.356   7.243  12.094  0.00  0.00    +0.000 N 
ATOM      2  C   UNL     1      45.382   6.337  11.627  0.00  0.00    +0.000 A 
ATOM      3  C   UNL     1      44.046   6.735  11.704  0.00  0.00    +0.000 A 
ATOM      4  C   UNL     1      43.043   5.882  11.252  0.00  0.00    +0.000 A 
ATOM      5  C   UNL     1      43.398   4.652  10.724  0.00  0.00    +0.000 A 
ATOM      6  C   UNL     1      44.747   4.344  10.661  0.00  0.00    +0.000 A 
ATOM      7  N   UNL     1      45.737   5.155  11.089  0.00  0.00    +0.000 NA
ATOM      8  H   UNL     1      46.033   7.604  12.986  0.00  0.00    +0.000 HD
ENDROOT
BRANCH   1   9
ATOM      9  C   UNL     1      47.713   6.683  12.198  0.00  0.00    +0.000 C 
BRANCH   9  11
ATOM     10  C   UNL     1      47.867   8.482  14.006  0.00  0.00    +0.000 C 
ATOM     11  C   UNL     1      48.370   7.114  13.527  0.00  0.00    +0.000 C 
BRANCH  11  12
ATOM     12  C   UNL     1      48.113   6.069  14.596  0.00  0.00    +0.000 A 
ATOM     13  C   UNL     1      48.619   6.240  15.885  0.00  0.00    +0.000 A 
ATOM     14  C   UNL     1      48.385   5.255  16.844  0.00  0.00    +0.000 A 
ATOM     15  C   UNL     1      47.650   4.131  16.495  0.00  0.00    +0.000 A 
ATOM     16 CL   UNL     1      47.358   2.886  17.639  0.00  0.00    +0.000 Cl
ATOM     17  C   UNL     1      47.167   4.039  15.200  0.00  0.00    +0.000 A 
ATOM     18  N   UNL     1      47.379   4.981  14.248  0.00  0.00    +0.000 NA
ENDBRANCH  11  12
ENDBRANCH   9  11
ENDBRANCH   1   9
BRANCH   6  19
ATOM     19  O   UNL     1      45.071   3.097  10.161  0.00  0.00    +0.000 OA
BRANCH  19  20
ATOM     20  C   UNL     1      45.147   2.984   8.723  0.00  0.00    +0.000 C 
ATOM     21  C   UNL     1      46.118   1.887   8.244  0.00  0.00    +0.000 C 
ATOM     22  C   UNL     1      46.663   2.859   7.187  0.00  0.00    +0.000 C 
ATOM     23  F   UNL     1      48.010   2.918   7.096  0.00  0.00    +0.000 F 
ATOM     24  F   UNL     1      46.200   2.655   5.932  0.00  0.00    +0.000 F 
ATOM     25  C   UNL     1      46.000   4.012   7.953  0.00  0.00    +0.000 C 
ENDBRANCH  19  20
ENDBRANCH   6  19
TORSDOF 5
ENDMDL
MODEL 2
REMARK VINA RESULT:    -7.517      4.398      7.668
REMARK INTER + INTRA:         -10.755
REMARK INTER:                  -9.822
REMARK INTRA:                  -0.933
REMARK UNBOUND:                -1.042
REMARK  Name = 
REMARK  6 active torsions:
REMARK  status: ('A' for Active; 'I' for Inactive)
REMARK    1  A    between atoms: C_1  and  C_2
REMARK    2  A    between atoms: C_2  and  C_3
REMARK    3  A    between atoms: C_2  and  C_18
REMARK    4  A    between atoms: C_3  and  N_4
REMARK    5  A    between atoms: C_9  and  O_10
REMARK    6  A    between atoms: O_10  and  C_11
REMARK                            x       y       z     vdW  Elec       q    Type
REMARK                         _______ _______ _______ _____ _____    ______ ____
ROOT
ATOM      1  N   UNL     1      45.842   5.736  11.811  0.00  0.00    +0.000 N 
ATOM      2  C   UNL     1      46.923   6.190  12.594  0.00  0.00    +0.000 A 
ATOM      3  C   UNL     1      47.700   7.227  12.073  0.00  0.00    +0.000 A 
ATOM      4  C   UNL     1      48.778   7.719  12.806  0.00  0.00    +0.000 A 
ATOM      5  C   UNL     1      49.048   7.170  14.048  0.00  0.00    +0.000 A 
ATOM      6  C   UNL     1      48.213   6.162  14.503  0.00  0.00    +0.000 A 
ATOM      7  N   UNL     1      47.162   5.672  13.812  0.00  0.00    +0.000 NA
ATOM      8  H   UNL     1      46.179   5.626  10.861  0.00  0.00    +0.000 HD
ENDROOT
BRANCH   1   9
ATOM      9  C   UNL     1      45.206   4.504  12.304  0.00  0.00    +0.000 C 
BRANCH   9  11
ATOM     10  C   UNL     1      43.060   5.063  11.032  0.00  0.00    +0.000 C 
ATOM     11  C   UNL     1      44.145   4.010  11.297  0.00  0.00    +0.000 C 
BRANCH  11  12
ATOM     12  C   UNL     1      44.811   3.619   9.991  0.00  0.00    +0.000 A 
ATOM     13  C   UNL     1      44.958   2.274   9.650  0.00  0.00    +0.000 A 
ATOM     14  C   UNL     1      45.592   1.941   8.454  0.00  0.00    +0.000 A 
ATOM     15  C   UNL     1      46.057   2.955   7.628  0.00  0.00    +0.000 A 
ATOM     16 CL   UNL     1      46.861   2.588   6.158  0.00  0.00    +0.000 Cl
ATOM     17  C   UNL     1      45.860   4.267   8.026  0.00  0.00    +0.000 A 
ATOM     18  N   UNL     1      45.247   4.619   9.184  0.00  0.00    +0.000 NA
ENDBRANCH  11  12
ENDBRANCH   9  11
ENDBRANCH   1   9
BRANCH   6  19
ATOM     19  O   UNL     1      48.526   5.609  15.729  0.00  0.00    +0.000 OA
BRANCH  19  20
ATOM     20  C   UNL     1      47.710   4.496  16.155  0.00  0.00    +0.000 C 
ATOM     21  C   UNL     1      47.281   4.580  17.634  0.00  0.00    +0.000 C 
ATOM     22  C   UNL     1      47.618   3.090  17.795  0.00  0.00    +0.000 C 
ATOM     23  F   UNL     1      48.341   2.776  18.893  0.00  0.00    +0.000 F 
ATOM     24  F   UNL     1      46.550   2.259  17.786  0.00  0.00    +0.000 F 
ATOM     25  C   UNL     1      48.408   3.160  16.480  0.00  0.00    +0.000 C 
ENDBRANCH  19  20
ENDBRANCH   6  19
TORSDOF 5
ENDMDL
MODEL 3
REMARK VINA RESULT:    -6.925      2.066      3.007
REMARK INTER + INTRA:          -9.991
REMARK INTER:                  -9.565
REMARK INTRA:                  -0.426
REMARK UNBOUND:                -1.042
REMARK  Name = 
REMARK  6 active torsions:
REMARK  status: ('A' for Active; 'I' for Inactive)
REMARK    1  A    between atoms: C_1  and  C_2
REMARK    2  A    between atoms: C_2  and  C_3
REMARK    3  A    between atoms: C_2  and  C_18
REMARK    4  A    between atoms: C_3  and  N_4
REMARK    5  A    between atoms: C_9  and  O_10
REMARK    6  A    between atoms: O_10  and  C_11
REMARK                            x       y       z     vdW  Elec       q    Type
REMARK                         _______ _______ _______ _____ _____    ______ ____
ROOT
ATOM      1  N   UNL     1      46.764   5.520  14.474  0.00  0.00    +0.000 N 
ATOM      2  C   UNL     1      45.929   5.455  13.339  0.00  0.00    +0.000 A 
ATOM      3  C   UNL     1      45.367   6.651  12.887  0.00  0.00    +0.000 A 
ATOM      4  C   UNL     1      44.539   6.646  11.768  0.00  0.00    +0.000 A 
ATOM      5  C   UNL     1      44.299   5.447  11.118  0.00  0.00    +0.000 A 
ATOM      6  C   UNL     1      44.915   4.311  11.615  0.00  0.00    +0.000 A 
ATOM      7  N   UNL     1      45.724   4.291  12.696  0.00  0.00    +0.000 NA
ATOM      8  H   UNL     1      46.295   6.098  15.163  0.00  0.00    +0.000 HD
ENDROOT
BRANCH   1   9
ATOM      9  C   UNL     1      47.139   4.211  15.032  0.00  0.00    +0.000 C 
BRANCH   9  11
ATOM     10  C   UNL     1      47.152   3.031  17.299  0.00  0.00    +0.000 C 
ATOM     11  C   UNL     1      47.430   4.337  16.543  0.00  0.00    +0.000 C 
BRANCH  11  12
ATOM     12  C   UNL     1      48.872   4.759  16.760  0.00  0.00    +0.000 A 
ATOM     13  C   UNL     1      49.742   3.945  17.484  0.00  0.00    +0.000 A 
ATOM     14  C   UNL     1      51.057   4.365  17.687  0.00  0.00    +0.000 A 
ATOM     15  C   UNL     1      51.468   5.580  17.159  0.00  0.00    +0.000 A 
ATOM     16 CL   UNL     1      53.070   6.144  17.403  0.00  0.00    +0.000 Cl
ATOM     17  C   UNL     1      50.551   6.327  16.438  0.00  0.00    +0.000 A 
ATOM     18  N   UNL     1      49.267   5.942  16.226  0.00  0.00    +0.000 NA
ENDBRANCH  11  12
ENDBRANCH   9  11
ENDBRANCH   1   9
BRANCH   6  19
ATOM     19  O   UNL     1      44.632   3.123  10.969  0.00  0.00    +0.000 OA
BRANCH  19  20
ATOM     20  C   UNL     1      44.591   3.175   9.526  0.00  0.00    +0.000 C 
ATOM     21  C   UNL     1      45.233   1.948   8.849  0.00  0.00    +0.000 C 
ATOM     22  C   UNL     1      45.933   2.888   7.856  0.00  0.00    +0.000 C 
ATOM     23  F   UNL     1      47.247   2.639   7.653  0.00  0.00    +0.000 F 
ATOM     24  F   UNL     1      45.359   2.955   6.632  0.00  0.00    +0.000 F 
ATOM     25  C   UNL     1      45.620   4.060   8.796  0.00  0.00    +0.000 C 
ENDBRANCH  19  20
ENDBRANCH   6  19
TORSDOF 5
ENDMDL
MODEL 4
REMARK VINA RESULT:    -6.722      2.351      2.863
REMARK INTER + INTRA:          -9.728
REMARK INTER:                  -8.943
REMARK INTRA:                  -0.785
REMARK UNBOUND:                -1.042
REMARK  Name = 
REMARK  6 active torsions:
REMARK  status: ('A' for Active; 'I' for Inactive)
REMARK    1  A    between atoms: C_1  and  C_2
REMARK    2  A    between atoms: C_2  and  C_3
REMARK    3  A    between atoms: C_2  and  C_18
REMARK    4  A    between atoms: C_3  and  N_4
REMARK    5  A    between atoms: C_9  and  O_10
REMARK    6  A    between atoms: O_10  and  C_11
REMARK                            x       y       z     vdW  Elec       q    Type
REMARK                         _______ _______ _______ _____ _____    ______ ____
ROOT
ATOM      1  N   UNL     1      45.859   6.541  13.285  0.00  0.00    +0.000 N 
ATOM      2  C   UNL     1      45.014   5.661  12.577  0.00  0.00    +0.000 A 
ATOM      3  C   UNL     1      43.644   5.928  12.603  0.00  0.00    +0.000 A 
ATOM      4  C   UNL     1      42.764   5.095  11.917  0.00  0.00    +0.000 A 
ATOM      5  C   UNL     1      43.274   4.018  11.211  0.00  0.00    +0.000 A 
ATOM      6  C   UNL     1      44.648   3.839  11.215  0.00  0.00    +0.000 A 
ATOM      7  N   UNL     1      45.520   4.634  11.870  0.00  0.00    +0.000 NA
ATOM      8  H   UNL     1      45.438   6.701  14.194  0.00  0.00    +0.000 HD
ENDROOT
BRANCH   1   9
ATOM      9  C   UNL     1      47.252   6.084  13.408  0.00  0.00    +0.000 C 
BRANCH   9  11
ATOM     10  C   UNL     1      47.474   8.271  12.105  0.00  0.00    +0.000 C 
ATOM     11  C   UNL     1      48.193   7.014  12.613  0.00  0.00    +0.000 C 
BRANCH  11  12
ATOM     12  C   UNL     1      49.377   7.413  13.474  0.00  0.00    +0.000 A 
ATOM     13  C   UNL     1      49.444   7.014  14.809  0.00  0.00    +0.000 A 
ATOM     14  C   UNL     1      50.534   7.410  15.584  0.00  0.00    +0.000 A 
ATOM     15  C   UNL     1      51.527   8.188  15.007  0.00  0.00    +0.000 A 
ATOM     16 CL   UNL     1      52.873   8.715  15.931  0.00  0.00    +0.000 Cl
ATOM     17  C   UNL     1      51.399   8.532  13.672  0.00  0.00    +0.000 A 
ATOM     18  N   UNL     1      50.351   8.161  12.895  0.00  0.00    +0.000 NA
ENDBRANCH  11  12
ENDBRANCH   9  11
ENDBRANCH   1   9
BRANCH   6  19
ATOM     19  O   UNL     1      45.127   2.739  10.531  0.00  0.00    +0.000 OA
BRANCH  19  20
ATOM     20  C   UNL     1      45.051   2.798   9.090  0.00  0.00    +0.000 C 
ATOM     21  C   UNL     1      46.026   1.836   8.383  0.00  0.00    +0.000 C 
ATOM     22  C   UNL     1      46.392   2.960   7.402  0.00  0.00    +0.000 C 
ATOM     23  F   UNL     1      47.715   3.126   7.181  0.00  0.00    +0.000 F 
ATOM     24  F   UNL     1      45.806   2.869   6.186  0.00  0.00    +0.000 F 
ATOM     25  C   UNL     1      45.751   3.967   8.368  0.00  0.00    +0.000 C 
ENDBRANCH  19  20
ENDBRANCH   6  19
TORSDOF 5
ENDMDL
MODEL 5
REMARK VINA RESULT:    -6.316      2.360      3.638
REMARK INTER + INTRA:          -9.204
REMARK INTER:                  -8.371
REMARK INTRA:                  -0.834
REMARK UNBOUND:                -1.042
REMARK  Name = 
REMARK  6 active torsions:
REMARK  status: ('A' for Active; 'I' for Inactive)
REMARK    1  A    between atoms: C_1  and  C_2
REMARK    2  A    between atoms: C_2  and  C_3
REMARK    3  A    between atoms: C_2  and  C_18
REMARK    4  A    between atoms: C_3  and  N_4
REMARK    5  A    between atoms: C_9  and  O_10
REMARK    6  A    between atoms: O_10  and  C_11
REMARK                            x       y       z     vdW  Elec       q    Type
REMARK                         _______ _______ _______ _____ _____    ______ ____
ROOT
ATOM      1  N   UNL     1      47.637   5.809  14.790  0.00  0.00    +0.000 N 
ATOM      2  C   UNL     1      46.845   6.246  13.709  0.00  0.00    +0.000 A 
ATOM      3  C   UNL     1      46.907   7.602  13.376  0.00  0.00    +0.000 A 
ATOM      4  C   UNL     1      46.149   8.088  12.314  0.00  0.00    +0.000 A 
ATOM      5  C   UNL     1      45.353   7.207  11.600  0.00  0.00    +0.000 A 
ATOM      6  C   UNL     1      45.369   5.875  11.979  0.00  0.00    +0.000 A 
ATOM      7  N   UNL     1      46.097   5.379  13.002  0.00  0.00    +0.000 NA
ATOM      8  H   UNL     1      47.516   6.474  15.545  0.00  0.00    +0.000 HD
ENDROOT
BRANCH   1   9
ATOM      9  C   UNL     1      47.360   4.433  15.233  0.00  0.00    +0.000 C 
BRANCH   9  11
ATOM     10  C   UNL     1      46.731   3.205  17.384  0.00  0.00    +0.000 C 
ATOM     11  C   UNL     1      47.600   4.301  16.752  0.00  0.00    +0.000 C 
BRANCH  11  12
ATOM     12  C   UNL     1      49.065   4.013  17.023  0.00  0.00    +0.000 A 
ATOM     13  C   UNL     1      49.508   2.700  17.179  0.00  0.00    +0.000 A 
ATOM     14  C   UNL     1      50.857   2.464  17.447  0.00  0.00    +0.000 A 
ATOM     15  C   UNL     1      51.725   3.541  17.547  0.00  0.00    +0.000 A 
ATOM     16 CL   UNL     1      53.387   3.296  17.897  0.00  0.00    +0.000 Cl
ATOM     17  C   UNL     1      51.215   4.816  17.364  0.00  0.00    +0.000 A 
ATOM     18  N   UNL     1      49.909   5.074  17.103  0.00  0.00    +0.000 NA
ENDBRANCH  11  12
ENDBRANCH   9  11
ENDBRANCH   1   9
BRANCH   6  19
ATOM     19  O   UNL     1      44.541   5.024  11.272  0.00  0.00    +0.000 OA
BRANCH  19  20
ATOM     20  C   UNL     1      45.194   4.026  10.459  0.00  0.00    +0.000 C 
ATOM     21  C   UNL     1      45.572   4.531   9.052  0.00  0.00    +0.000 C 
ATOM     22  C   UNL     1      45.046   3.214   8.461  0.00  0.00    +0.000 C 
ATOM     23  F   UNL     1      44.246   3.345   7.378  0.00  0.00    +0.000 F 
ATOM     24  F   UNL     1      46.002   2.316   8.128  0.00  0.00    +0.000 F 
ATOM     25  C   UNL     1      44.324   2.944   9.788  0.00  0.00    +0.000 C 
ENDBRANCH  19  20
ENDBRANCH   6  19
TORSDOF 5
ENDMDL
MODEL 6
REMARK VINA RESULT:    -6.236      4.148      6.694
REMARK INTER + INTRA:          -9.101
REMARK INTER:                  -8.549
REMARK INTRA:                  -0.552
REMARK UNBOUND:                -1.042
REMARK  Name = 
REMARK  6 active torsions:
REMARK  status: ('A' for Active; 'I' for Inactive)
REMARK    1  A    between atoms: C_1  and  C_2
REMARK    2  A    between atoms: C_2  and  C_3
REMARK    3  A    between atoms: C_2  and  C_18
REMARK    4  A    between atoms: C_3  and  N_4
REMARK    5  A    between atoms: C_9  and  O_10
REMARK    6  A    between atoms: O_10  and  C_11
REMARK                            x       y       z     vdW  Elec       q    Type
REMARK                         _______ _______ _______ _____ _____    ______ ____
ROOT
ATOM      1  N   UNL     1      44.321   7.054  12.538  0.00  0.00    +0.000 N 
ATOM      2  C   UNL     1      45.423   7.926  12.654  0.00  0.00    +0.000 A 
ATOM      3  C   UNL     1      45.257   9.234  12.193  0.00  0.00    +0.000 A 
ATOM      4  C   UNL     1      46.310  10.140  12.287  0.00  0.00    +0.000 A 
ATOM      5  C   UNL     1      47.504   9.722  12.851  0.00  0.00    +0.000 A 
ATOM      6  C   UNL     1      47.578   8.416  13.307  0.00  0.00    +0.000 A 
ATOM      7  N   UNL     1      46.570   7.521  13.229  0.00  0.00    +0.000 NA
ATOM      8  H   UNL     1      43.940   7.168  11.605  0.00  0.00    +0.000 HD
ENDROOT
BRANCH   1   9
ATOM      9  C   UNL     1      44.625   5.643  12.828  0.00  0.00    +0.000 C 
BRANCH   9  11
ATOM     10  C   UNL     1      42.309   5.389  11.779  0.00  0.00    +0.000 C 
ATOM     11  C   UNL     1      43.661   4.718  12.055  0.00  0.00    +0.000 C 
BRANCH  11  12
ATOM     12  C   UNL     1      44.295   4.283  10.747  0.00  0.00    +0.000 A 
ATOM     13  C   UNL     1      45.198   5.120  10.090  0.00  0.00    +0.000 A 
ATOM     14  C   UNL     1      45.752   4.705   8.879  0.00  0.00    +0.000 A 
ATOM     15  C   UNL     1      45.395   3.469   8.359  0.00  0.00    +0.000 A 
ATOM     16 CL   UNL     1      46.037   2.931   6.862  0.00  0.00    +0.000 Cl
ATOM     17  C   UNL     1      44.505   2.688   9.077  0.00  0.00    +0.000 A 
ATOM     18  N   UNL     1      43.951   3.066  10.256  0.00  0.00    +0.000 NA
ENDBRANCH  11  12
ENDBRANCH   9  11
ENDBRANCH   1   9
BRANCH   6  19
ATOM     19  O   UNL     1      48.790   8.015  13.834  0.00  0.00    +0.000 OA
BRANCH  19  20
ATOM     20  C   UNL     1      49.753   7.491  12.893  0.00  0.00    +0.000 C 
ATOM     21  C   UNL     1      51.020   8.359  12.764  0.00  0.00    +0.000 C 
ATOM     22  C   UNL     1      50.951   8.197  11.238  0.00  0.00    +0.000 C 
ATOM     23  F   UNL     1      51.112   9.336  10.528  0.00  0.00    +0.000 F 
ATOM     24  F   UNL     1      51.814   7.293  10.720  0.00  0.00    +0.000 F 
ATOM     25  C   UNL     1      49.502   7.712  11.388  0.00  0.00    +0.000 C 
ENDBRANCH  19  20
ENDBRANCH   6  19
TORSDOF 5
ENDMDL
MODEL 7
REMARK VINA RESULT:    -5.933      5.336      8.633
REMARK INTER + INTRA:          -8.709
REMARK INTER:                  -8.064
REMARK INTRA:                  -0.645
REMARK UNBOUND:                -1.042
REMARK  Name = 
REMARK  6 active torsions:
REMARK  status: ('A' for Active; 'I' for Inactive)
REMARK    1  A    between atoms: C_1  and  C_2
REMARK    2  A    between atoms: C_2  and  C_3
REMARK    3  A    between atoms: C_2  and  C_18
REMARK    4  A    between atoms: C_3  and  N_4
REMARK    5  A    between atoms: C_9  and  O_10
REMARK    6  A    between atoms: O_10  and  C_11
REMARK                            x       y       z     vdW  Elec       q    Type
REMARK                         _______ _______ _______ _____ _____    ______ ____
ROOT
ATOM      1  N   UNL     1      46.734   4.186  14.821  0.00  0.00    +0.000 N 
ATOM      2  C   UNL     1      47.507   4.175  15.999  0.00  0.00    +0.000 A 
ATOM      3  C   UNL     1      47.154   3.256  16.990  0.00  0.00    +0.000 A 
ATOM      4  C   UNL     1      47.886   3.198  18.172  0.00  0.00    +0.000 A 
ATOM      5  C   UNL     1      48.963   4.054  18.336  0.00  0.00    +0.000 A 
ATOM      6  C   UNL     1      49.262   4.917  17.295  0.00  0.00    +0.000 A 
ATOM      7  N   UNL     1      48.569   4.990  16.139  0.00  0.00    +0.000 NA
ATOM      8  H   UNL     1      45.758   4.158  15.096  0.00  0.00    +0.000 HD
ENDROOT
BRANCH   1   9
ATOM      9  C   UNL     1      47.008   5.317  13.920  0.00  0.00    +0.000 C 
BRANCH   9  11
ATOM     10  C   UNL     1      45.737   7.300  12.928  0.00  0.00    +0.000 C 
ATOM     11  C   UNL     1      45.702   5.800  13.254  0.00  0.00    +0.000 C 
BRANCH  11  12
ATOM     12  C   UNL     1      45.440   5.006  11.988  0.00  0.00    +0.000 A 
ATOM     13  C   UNL     1      45.584   5.606  10.737  0.00  0.00    +0.000 A 
ATOM     14  C   UNL     1      45.318   4.860   9.590  0.00  0.00    +0.000 A 
ATOM     15  C   UNL     1      44.921   3.537   9.720  0.00  0.00    +0.000 A 
ATOM     16 CL   UNL     1      44.563   2.590   8.334  0.00  0.00    +0.000 Cl
ATOM     17  C   UNL     1      44.815   3.005  10.994  0.00  0.00    +0.000 A 
ATOM     18  N   UNL     1      45.068   3.708  12.127  0.00  0.00    +0.000 NA
ENDBRANCH  11  12
ENDBRANCH   9  11
ENDBRANCH   1   9
BRANCH   6  19
ATOM     19  O   UNL     1      50.319   5.783  17.498  0.00  0.00    +0.000 OA
BRANCH  19  20
ATOM     20  C   UNL     1      49.989   7.077  18.049  0.00  0.00    +0.000 C 
ATOM     21  C   UNL     1      49.767   7.055  19.575  0.00  0.00    +0.000 C 
ATOM     22  C   UNL     1      48.528   7.943  19.386  0.00  0.00    +0.000 C 
ATOM     23  F   UNL     1      47.426   7.548  20.064  0.00  0.00    +0.000 F 
ATOM     24  F   UNL     1      48.712   9.251  19.677  0.00  0.00    +0.000 F 
ATOM     25  C   UNL     1      48.545   7.592  17.891  0.00  0.00    +0.000 C 
ENDBRANCH  19  20
ENDBRANCH   6  19
TORSDOF 5
ENDMDL
MODEL 8
REMARK VINA RESULT:    -5.831      3.416      5.011
REMARK INTER + INTRA:          -8.576
REMARK INTER:                  -7.897
REMARK INTRA:                  -0.680
REMARK UNBOUND:                -1.042
REMARK  Name = 
REMARK  6 active torsions:
REMARK  status: ('A' for Active; 'I' for Inactive)
REMARK    1  A    between atoms: C_1  and  C_2
REMARK    2  A    between atoms: C_2  and  C_3
REMARK    3  A    between atoms: C_2  and  C_18
REMARK    4  A    between atoms: C_3  and  N_4
REMARK    5  A    between atoms: C_9  and  O_10
REMARK    6  A    between atoms: O_10  and  C_11
REMARK                            x       y       z     vdW  Elec       q    Type
REMARK                         _______ _______ _______ _____ _____    ______ ____
ROOT
ATOM      1  N   UNL     1      49.721   7.142  15.369  0.00  0.00    +0.000 N 
ATOM      2  C   UNL     1      48.970   7.053  14.179  0.00  0.00    +0.000 A 
ATOM      3  C   UNL     1      49.228   8.002  13.186  0.00  0.00    +0.000 A 
ATOM      4  C   UNL     1      48.520   7.959  11.989  0.00  0.00    +0.000 A 
ATOM      5  C   UNL     1      47.576   6.962  11.804  0.00  0.00    +0.000 A 
ATOM      6  C   UNL     1      47.400   6.046  12.827  0.00  0.00    +0.000 A 
ATOM      7  N   UNL     1      48.076   6.065  13.996  0.00  0.00    +0.000 NA
ATOM      8  H   UNL     1      49.727   8.116  15.654  0.00  0.00    +0.000 HD
ENDROOT
BRANCH   1   9
ATOM      9  C   UNL     1      49.251   6.266  16.455  0.00  0.00    +0.000 C 
BRANCH   9  11
ATOM     10  C   UNL     1      49.784   6.558  18.937  0.00  0.00    +0.000 C 
ATOM     11  C   UNL     1      50.325   6.157  17.558  0.00  0.00    +0.000 C 
BRANCH  11  12
ATOM     12  C   UNL     1      50.871   4.742  17.612  0.00  0.00    +0.000 A 
ATOM     13  C   UNL     1      52.159   4.502  18.091  0.00  0.00    +0.000 A 
ATOM     14  C   UNL     1      52.644   3.195  18.112  0.00  0.00    +0.000 A 
ATOM     15  C   UNL     1      51.832   2.164  17.660  0.00  0.00    +0.000 A 
ATOM     16 CL   UNL     1      52.398   0.544  17.649  0.00  0.00    +0.000 Cl
ATOM     17  C   UNL     1      50.559   2.478  17.214  0.00  0.00    +0.000 A 
ATOM     18  N   UNL     1      50.062   3.740  17.183  0.00  0.00    +0.000 NA
ENDBRANCH  11  12
ENDBRANCH   9  11
ENDBRANCH   1   9
BRANCH   6  19
ATOM     19  O   UNL     1      46.428   5.083  12.631  0.00  0.00    +0.000 OA
BRANCH  19  20
ATOM     20  C   UNL     1      45.117   5.563  12.262  0.00  0.00    +0.000 C 
ATOM     21  C   UNL     1      43.969   4.820  12.972  0.00  0.00    +0.000 C 
ATOM     22  C   UNL     1      43.213   4.754  11.636  0.00  0.00    +0.000 C 
ATOM     23  F   UNL     1      42.684   3.547  11.331  0.00  0.00    +0.000 F 
ATOM     24  F   UNL     1      42.216   5.659  11.499  0.00  0.00    +0.000 F 
ATOM     25  C   UNL     1      44.523   5.103  10.916  0.00  0.00    +0.000 C 
ENDBRANCH  19  20
ENDBRANCH   6  19
TORSDOF 5
ENDMDL
MODEL 9
REMARK VINA RESULT:    -5.633      5.149      8.454
REMARK INTER + INTRA:          -8.321
REMARK INTER:                  -7.693
REMARK INTRA:                  -0.627
REMARK UNBOUND:                -1.042
REMARK  Name = 
REMARK  6 active torsions:
REMARK  status: ('A' for Active; 'I' for Inactive)
REMARK    1  A    between atoms: C_1  and  C_2
REMARK    2  A    between atoms: C_2  and  C_3
REMARK    3  A    between atoms: C_2  and  C_18
REMARK    4  A    between atoms: C_3  and  N_4
REMARK    5  A    between atoms: C_9  and  O_10
REMARK    6  A    between atoms: O_10  and  C_11
REMARK                            x       y       z     vdW  Elec       q    Type
REMARK                         _______ _______ _______ _____ _____    ______ ____
ROOT
ATOM      1  N   UNL     1      46.706   3.741  14.687  0.00  0.00    +0.000 N 
ATOM      2  C   UNL     1      47.466   4.098  15.820  0.00  0.00    +0.000 A 
ATOM      3  C   UNL     1      47.296   3.330  16.974  0.00  0.00    +0.000 A 
ATOM      4  C   UNL     1      48.024   3.634  18.121  0.00  0.00    +0.000 A 
ATOM      5  C   UNL     1      48.914   4.694  18.087  0.00  0.00    +0.000 A 
ATOM      6  C   UNL     1      49.042   5.389  16.896  0.00  0.00    +0.000 A 
ATOM      7  N   UNL     1      48.350   5.112  15.771  0.00  0.00    +0.000 NA
ATOM      8  H   UNL     1      45.754   3.581  14.997  0.00  0.00    +0.000 HD
ENDROOT
BRANCH   1   9
ATOM      9  C   UNL     1      46.758   4.716  13.585  0.00  0.00    +0.000 C 
BRANCH   9  11
ATOM     10  C   UNL     1      44.892   6.406  13.144  0.00  0.00    +0.000 C 
ATOM     11  C   UNL     1      45.345   4.946  13.007  0.00  0.00    +0.000 C 
BRANCH  11  12
ATOM     12  C   UNL     1      45.307   4.531  11.548  0.00  0.00    +0.000 A 
ATOM     13  C   UNL     1      45.655   5.440  10.548  0.00  0.00    +0.000 A 
ATOM     14  C   UNL     1      45.593   5.040   9.214  0.00  0.00    +0.000 A 
ATOM     15  C   UNL     1      45.191   3.747   8.913  0.00  0.00    +0.000 A 
ATOM     16 CL   UNL     1      45.081   3.221   7.283  0.00  0.00    +0.000 Cl
ATOM     17  C   UNL     1      44.876   2.897   9.960  0.00  0.00    +0.000 A 
ATOM     18  N   UNL     1      44.928   3.259  11.266  0.00  0.00    +0.000 NA
ENDBRANCH  11  12
ENDBRANCH   9  11
ENDBRANCH   1   9
BRANCH   6  19
ATOM     19  O   UNL     1      49.911   6.463  16.900  0.00  0.00    +0.000 OA
BRANCH  19  20
ATOM     20  C   UNL     1      51.319   6.147  16.837  0.00  0.00    +0.000 C 
ATOM     21  C   UNL     1      52.128   6.711  18.021  0.00  0.00    +0.000 C 
ATOM     22  C   UNL     1      53.217   7.161  17.036  0.00  0.00    +0.000 C 
ATOM     23  F   UNL     1      53.670   8.423  17.212  0.00  0.00    +0.000 F 
ATOM     24  F   UNL     1      54.309   6.363  16.988  0.00  0.00    +0.000 F 
ATOM     25  C   UNL     1      52.213   6.973  15.891  0.00  0.00    +0.000 C 
ENDBRANCH  19  20
ENDBRANCH   6  19
TORSDOF 5
ENDMDL
