MODEL 1
REMARK VINA RESULT:    -7.748      0.000      0.000
REMARK INTER + INTRA:          -9.546
REMARK INTER:                  -9.333
REMARK INTRA:                  -0.213
REMARK UNBOUND:                -0.213
REMARK  Name = 
REMARK  4 active torsions:
REMARK  status: ('A' for Active; 'I' for Inactive)
REMARK    1  A    between atoms: N_1  and  C_2
REMARK    2  A    between atoms: C_2  and  C_3
REMARK    3  A    between atoms: C_7  and  C_8
REMARK    4  A    between atoms: C_8  and  N_9
REMARK                            x       y       z     vdW  Elec       q    Type
REMARK                         _______ _______ _______ _____ _____    ______ ____
ROOT
ATOM      1  C   UNL     1      44.146   4.345   8.998  0.00  0.00    +0.000 C 
ENDROOT
BRANCH   1   2
ATOM      2  N   UNL     1      44.160   4.303  10.454  0.00  0.00    +0.000 N 
ATOM      3  N   UNL     1      43.345   3.428  11.095  0.00  0.00    +0.000 NA
ATOM      4  C   UNL     1      43.766   3.474  12.361  0.00  0.00    +0.000 A 
ATOM      5  C   UNL     1      44.847   4.362  12.547  0.00  0.00    +0.000 A 
ATOM      6  C   UNL     1      45.660   4.743  13.628  0.00  0.00    +0.000 A 
ATOM      7  C   UNL     1      46.668   5.678  13.396  0.00  0.00    +0.000 A 
ATOM      8  F   UNL     1      47.466   6.039  14.411  0.00  0.00    +0.000 F 
ATOM      9  C   UNL     1      46.871   6.242  12.142  0.00  0.00    +0.000 A 
ATOM     10  C   UNL     1      46.070   5.875  11.056  0.00  0.00    +0.000 A 
ATOM     11  C   UNL     1      45.070   4.919  11.289  0.00  0.00    +0.000 A 
ENDBRANCH   1   2
BRANCH   1  16
ATOM     12  C   UNL     1      46.553   2.721   6.718  0.00  0.00    +0.000 A 
ATOM     13  C   UNL     1      46.745   1.459   7.274  0.00  0.00    +0.000 A 
ATOM     14  C   UNL     1      46.021   1.108   8.406  0.00  0.00    +0.000 A 
ATOM     15  C   UNL     1      45.138   2.025   8.963  0.00  0.00    +0.000 A 
ATOM     16  C   UNL     1      44.993   3.277   8.364  0.00  0.00    +0.000 A 
ATOM     17  N   UNL     1      45.688   3.626   7.247  0.00  0.00    +0.000 NA
BRANCH  12  18
ATOM     18  C   UNL     1      47.328   3.134   5.484  0.00  0.00    +0.000 C 
BRANCH  18  19
ATOM     19  N   UNL     1      48.386   2.183   5.131  0.00  0.00    +0.000 NA
ATOM     20  H   UNL     1      48.838   1.866   5.986  0.00  0.00    +0.000 HD
ATOM     21  H   UNL     1      49.101   2.691   4.607  0.00  0.00    +0.000 HD
ENDBRANCH  18  19
ENDBRANCH  12  18
ENDBRANCH   1  16
TORSDOF 4
ENDMDL
MODEL 2
REMARK VINA RESULT:    -7.207      2.918      5.943
REMARK INTER + INTRA:          -8.895
REMARK INTER:                  -8.407
REMARK INTRA:                  -0.488
REMARK UNBOUND:                -0.213
REMARK  Name = 
REMARK  4 active torsions:
REMARK  status: ('A' for Active; 'I' for Inactive)
REMARK    1  A    between atoms: N_1  and  C_2
REMARK    2  A    between atoms: C_2  and  C_3
REMARK    3  A    between atoms: C_7  and  C_8
REMARK    4  A    between atoms: C_8  and  N_9
REMARK                            x       y       z     vdW  Elec       q    Type
REMARK                         _______ _______ _______ _____ _____    ______ ____
ROOT
ATOM      1  C   UNL     1      43.756   4.997  10.665  0.00  0.00    +0.000 C 
ENDROOT
BRANCH   1   2
ATOM      2  N   UNL     1      44.301   3.779  10.082  0.00  0.00    +0.000 N 
ATOM      3  N   UNL     1      43.752   2.586  10.421  0.00  0.00    +0.000 NA
ATOM      4  C   UNL     1      44.304   1.728   9.559  0.00  0.00    +0.000 A 
ATOM      5  C   UNL     1      45.197   2.353   8.662  0.00  0.00    +0.000 A 
ATOM      6  C   UNL     1      45.984   1.937   7.574  0.00  0.00    +0.000 A 
ATOM      7  C   UNL     1      46.752   2.894   6.912  0.00  0.00    +0.000 A 
ATOM      8  F   UNL     1      47.493   2.518   5.860  0.00  0.00    +0.000 F 
ATOM      9  C   UNL     1      46.767   4.225   7.311  0.00  0.00    +0.000 A 
ATOM     10  C   UNL     1      45.991   4.656   8.393  0.00  0.00    +0.000 A 
ATOM     11  C   UNL     1      45.204   3.693   9.043  0.00  0.00    +0.000 A 
ENDBRANCH   1   2
BRANCH   1  16
ATOM     12  C   UNL     1      46.235   5.529  13.348  0.00  0.00    +0.000 A 
ATOM     13  C   UNL     1      46.660   6.842  13.161  0.00  0.00    +0.000 A 
ATOM     14  C   UNL     1      46.075   7.597  12.152  0.00  0.00    +0.000 A 
ATOM     15  C   UNL     1      45.096   7.023  11.349  0.00  0.00    +0.000 A 
ATOM     16  C   UNL     1      44.718   5.700  11.583  0.00  0.00    +0.000 A 
ATOM     17  N   UNL     1      45.275   4.955  12.576  0.00  0.00    +0.000 NA
BRANCH  12  18
ATOM     18  C   UNL     1      46.854   4.679  14.439  0.00  0.00    +0.000 C 
BRANCH  18  19
ATOM     19  N   UNL     1      47.200   3.329  13.983  0.00  0.00    +0.000 NA
ATOM     20  H   UNL     1      46.397   2.934  13.498  0.00  0.00    +0.000 HD
ATOM     21  H   UNL     1      47.345   2.747  14.809  0.00  0.00    +0.000 HD
ENDBRANCH  18  19
ENDBRANCH  12  18
ENDBRANCH   1  16
TORSDOF 4
ENDMDL
MODEL 3
REMARK VINA RESULT:    -7.042      3.124      6.208
REMARK INTER + INTRA:          -8.696
REMARK INTER:                  -8.315
REMARK INTRA:                  -0.381
REMARK UNBOUND:                -0.213
REMARK  Name = 
REMARK  4 active torsions:
REMARK  status: ('A' for Active; 'I' for Inactive)
REMARK    1  A    between atoms: N_1  and  C_2
REMARK    2  A    between atoms: C_2  and  C_3
REMARK    3  A    between atoms: C_7  and  C_8
REMARK    4  A    between atoms: C_8  and  N_9
REMARK                            x       y       z     vdW  Elec       q    Type
REMARK                         _______ _______ _______ _____ _____    ______ ____
ROOT
ATOM      1  C   UNL     1      43.483   5.578  10.856  0.00  0.00    +0.000 C 
ENDROOT
BRANCH   1   2
ATOM      2  N   UNL     1      43.986   4.243  10.563  0.00  0.00    +0.000 N 
ATOM      3  N   UNL     1      43.428   3.178  11.190  0.00  0.00    +0.000 NA
ATOM      4  C   UNL     1      43.934   2.127  10.539  0.00  0.00    +0.000 A 
ATOM      5  C   UNL     1      44.806   2.499   9.494  0.00  0.00    +0.000 A 
ATOM      6  C   UNL     1      45.547   1.818   8.513  0.00  0.00    +0.000 A 
ATOM      7  C   UNL     1      46.309   2.572   7.621  0.00  0.00    +0.000 A 
ATOM      8  F   UNL     1      47.006   1.941   6.667  0.00  0.00    +0.000 F 
ATOM      9  C   UNL     1      46.362   3.959   7.693  0.00  0.00    +0.000 A 
ATOM     10  C   UNL     1      45.632   4.653   8.665  0.00  0.00    +0.000 A 
ATOM     11  C   UNL     1      44.850   3.891   9.547  0.00  0.00    +0.000 A 
ENDBRANCH   1   2
BRANCH   1  16
ATOM     12  C   UNL     1      45.170   8.628  12.074  0.00  0.00    +0.000 A 
ATOM     13  C   UNL     1      46.159   8.148  12.928  0.00  0.00    +0.000 A 
ATOM     14  C   UNL     1      46.313   6.775  13.070  0.00  0.00    +0.000 A 
ATOM     15  C   UNL     1      45.471   5.917  12.371  0.00  0.00    +0.000 A 
ATOM     16  C   UNL     1      44.495   6.459  11.535  0.00  0.00    +0.000 A 
ATOM     17  N   UNL     1      44.344   7.803  11.378  0.00  0.00    +0.000 NA
BRANCH  12  18
ATOM     18  C   UNL     1      44.976  10.120  11.898  0.00  0.00    +0.000 C 
BRANCH  18  19
ATOM     19  N   UNL     1      43.588  10.542  12.102  0.00  0.00    +0.000 NA
ATOM     20  H   UNL     1      43.569  11.553  12.218  0.00  0.00    +0.000 HD
ATOM     21  H   UNL     1      43.269  10.151  12.990  0.00  0.00    +0.000 HD
ENDBRANCH  18  19
ENDBRANCH  12  18
ENDBRANCH   1  16
TORSDOF 4
ENDMDL
MODEL 4
REMARK VINA RESULT:    -6.702      1.690      2.273
REMARK INTER + INTRA:          -8.287
REMARK INTER:                  -7.786
REMARK INTRA:                  -0.501
REMARK UNBOUND:                -0.213
REMARK  Name = 
REMARK  4 active torsions:
REMARK  status: ('A' for Active; 'I' for Inactive)
REMARK    1  A    between atoms: N_1  and  C_2
REMARK    2  A    between atoms: C_2  and  C_3
REMARK    3  A    between atoms: C_7  and  C_8
REMARK    4  A    between atoms: C_8  and  N_9
REMARK                            x       y       z     vdW  Elec       q    Type
REMARK                         _______ _______ _______ _____ _____    ______ ____
ROOT
ATOM      1  C   UNL     1      44.290   4.152  10.479  0.00  0.00    +0.000 C 
ENDROOT
BRANCH   1   2
ATOM      2  N   UNL     1      45.013   4.408  11.717  0.00  0.00    +0.000 N 
ATOM      3  N   UNL     1      45.266   3.374  12.558  0.00  0.00    +0.000 NA
ATOM      4  C   UNL     1      46.123   3.889  13.443  0.00  0.00    +0.000 A 
ATOM      5  C   UNL     1      46.435   5.240  13.181  0.00  0.00    +0.000 A 
ATOM      6  C   UNL     1      47.278   6.207  13.755  0.00  0.00    +0.000 A 
ATOM      7  C   UNL     1      47.316   7.475  13.177  0.00  0.00    +0.000 A 
ATOM      8  F   UNL     1      48.130   8.404  13.700  0.00  0.00    +0.000 F 
ATOM      9  C   UNL     1      46.538   7.801  12.072  0.00  0.00    +0.000 A 
ATOM     10  C   UNL     1      45.692   6.851  11.489  0.00  0.00    +0.000 A 
ATOM     11  C   UNL     1      45.672   5.570  12.062  0.00  0.00    +0.000 A 
ENDBRANCH   1   2
BRANCH   1  16
ATOM     12  C   UNL     1      45.986   1.855   8.139  0.00  0.00    +0.000 A 
ATOM     13  C   UNL     1      46.581   2.702   7.207  0.00  0.00    +0.000 A 
ATOM     14  C   UNL     1      46.466   4.076   7.380  0.00  0.00    +0.000 A 
ATOM     15  C   UNL     1      45.752   4.570   8.466  0.00  0.00    +0.000 A 
ATOM     16  C   UNL     1      45.174   3.670   9.362  0.00  0.00    +0.000 A 
ATOM     17  N   UNL     1      45.291   2.322   9.209  0.00  0.00    +0.000 NA
BRANCH  12  18
ATOM     18  C   UNL     1      46.092   0.353   7.976  0.00  0.00    +0.000 C 
BRANCH  18  19
ATOM     19  N   UNL     1      47.463  -0.097   7.718  0.00  0.00    +0.000 NA
ATOM     20  H   UNL     1      48.061   0.721   7.617  0.00  0.00    +0.000 HD
ATOM     21  H   UNL     1      47.473  -0.567   6.812  0.00  0.00    +0.000 HD
ENDBRANCH  18  19
ENDBRANCH  12  18
ENDBRANCH   1  16
TORSDOF 4
ENDMDL
MODEL 5
REMARK VINA RESULT:    -6.440      1.533      2.344
REMARK INTER + INTRA:          -7.971
REMARK INTER:                  -7.483
REMARK INTRA:                  -0.488
REMARK UNBOUND:                -0.213
REMARK  Name = 
REMARK  4 active torsions:
REMARK  status: ('A' for Active; 'I' for Inactive)
REMARK    1  A    between atoms: N_1  and  C_2
REMARK    2  A    between atoms: C_2  and  C_3
REMARK    3  A    between atoms: C_7  and  C_8
REMARK    4  A    between atoms: C_8  and  N_9
REMARK                            x       y       z     vdW  Elec       q    Type
REMARK                         _______ _______ _______ _____ _____    ______ ____
ROOT
ATOM      1  C   UNL     1      44.235   5.150  10.526  0.00  0.00    +0.000 C 
ENDROOT
BRANCH   1   2
ATOM      2  N   UNL     1      45.312   5.797  11.263  0.00  0.00    +0.000 N 
ATOM      3  N   UNL     1      45.600   7.096  11.001  0.00  0.00    +0.000 NA
ATOM      4  C   UNL     1      46.440   7.437  11.982  0.00  0.00    +0.000 A 
ATOM      5  C   UNL     1      46.691   6.378  12.880  0.00  0.00    +0.000 A 
ATOM      6  C   UNL     1      47.438   6.217  14.060  0.00  0.00    +0.000 A 
ATOM      7  C   UNL     1      47.425   4.969  14.682  0.00  0.00    +0.000 A 
ATOM      8  F   UNL     1      48.115   4.802  15.819  0.00  0.00    +0.000 F 
ATOM      9  C   UNL     1      46.713   3.896  14.159  0.00  0.00    +0.000 A 
ATOM     10  C   UNL     1      45.966   4.039  12.984  0.00  0.00    +0.000 A 
ATOM     11  C   UNL     1      45.966   5.302  12.372  0.00  0.00    +0.000 A 
ENDBRANCH   1   2
BRANCH   1  16
ATOM     12  C   UNL     1      46.098   3.444   7.834  0.00  0.00    +0.000 A 
ATOM     13  C   UNL     1      45.820   2.094   8.034  0.00  0.00    +0.000 A 
ATOM     14  C   UNL     1      44.950   1.734   9.056  0.00  0.00    +0.000 A 
ATOM     15  C   UNL     1      44.392   2.723   9.858  0.00  0.00    +0.000 A 
ATOM     16  C   UNL     1      44.714   4.057   9.611  0.00  0.00    +0.000 A 
ATOM     17  N   UNL     1      45.555   4.423   8.605  0.00  0.00    +0.000 NA
BRANCH  12  18
ATOM     18  C   UNL     1      47.044   3.869   6.730  0.00  0.00    +0.000 C 
BRANCH  18  19
ATOM     19  N   UNL     1      48.134   2.912   6.513  0.00  0.00    +0.000 NA
ATOM     20  H   UNL     1      48.990   3.301   6.903  0.00  0.00    +0.000 HD
ATOM     21  H   UNL     1      48.290   2.839   5.507  0.00  0.00    +0.000 HD
ENDBRANCH  18  19
ENDBRANCH  12  18
ENDBRANCH   1  16
TORSDOF 4
ENDMDL
MODEL 6
REMARK VINA RESULT:    -6.400      1.787      2.506
REMARK INTER + INTRA:          -7.923
REMARK INTER:                  -7.479
REMARK INTRA:                  -0.444
REMARK UNBOUND:                -0.213
REMARK  Name = 
REMARK  4 active torsions:
REMARK  status: ('A' for Active; 'I' for Inactive)
REMARK    1  A    between atoms: N_1  and  C_2
REMARK    2  A    between atoms: C_2  and  C_3
REMARK    3  A    between atoms: C_7  and  C_8
REMARK    4  A    between atoms: C_8  and  N_9
REMARK                            x       y       z     vdW  Elec       q    Type
REMARK                         _______ _______ _______ _____ _____    ______ ____
ROOT
ATOM      1  C   UNL     1      44.043   4.592  11.702  0.00  0.00    +0.000 C 
ENDROOT
BRANCH   1   2
ATOM      2  N   UNL     1      45.140   4.788  12.640  0.00  0.00    +0.000 N 
ATOM      3  N   UNL     1      45.716   3.704  13.215  0.00  0.00    +0.000 NA
ATOM      4  C   UNL     1      46.803   4.201  13.809  0.00  0.00    +0.000 A 
ATOM      5  C   UNL     1      46.942   5.592  13.618  0.00  0.00    +0.000 A 
ATOM      6  C   UNL     1      47.888   6.567  13.981  0.00  0.00    +0.000 A 
ATOM      7  C   UNL     1      47.665   7.884  13.579  0.00  0.00    +0.000 A 
ATOM      8  F   UNL     1      48.566   8.823  13.899  0.00  0.00    +0.000 F 
ATOM      9  C   UNL     1      46.537   8.247  12.854  0.00  0.00    +0.000 A 
ATOM     10  C   UNL     1      45.585   7.290  12.486  0.00  0.00    +0.000 A 
ATOM     11  C   UNL     1      45.824   5.963  12.874  0.00  0.00    +0.000 A 
ENDBRANCH   1   2
BRANCH   1  16
ATOM     12  C   UNL     1      45.746   3.803   8.523  0.00  0.00    +0.000 A 
ATOM     13  C   UNL     1      45.421   2.470   8.287  0.00  0.00    +0.000 A 
ATOM     14  C   UNL     1      44.571   1.821   9.174  0.00  0.00    +0.000 A 
ATOM     15  C   UNL     1      44.080   2.510  10.277  0.00  0.00    +0.000 A 
ATOM     16  C   UNL     1      44.447   3.843  10.462  0.00  0.00    +0.000 A 
ATOM     17  N   UNL     1      45.268   4.493   9.592  0.00  0.00    +0.000 NA
BRANCH  12  18
ATOM     18  C   UNL     1      46.671   4.539   7.575  0.00  0.00    +0.000 C 
BRANCH  18  19
ATOM     19  N   UNL     1      46.765   3.899   6.259  0.00  0.00    +0.000 NA
ATOM     20  H   UNL     1      47.048   4.599   5.577  0.00  0.00    +0.000 HD
ATOM     21  H   UNL     1      45.826   3.604   5.987  0.00  0.00    +0.000 HD
ENDBRANCH  18  19
ENDBRANCH  12  18
ENDBRANCH   1  16
TORSDOF 4
ENDMDL
MODEL 7
REMARK VINA RESULT:    -6.247      3.629      6.758
REMARK INTER + INTRA:          -7.739
REMARK INTER:                  -7.258
REMARK INTRA:                  -0.481
REMARK UNBOUND:                -0.213
REMARK  Name = 
REMARK  4 active torsions:
REMARK  status: ('A' for Active; 'I' for Inactive)
REMARK    1  A    between atoms: N_1  and  C_2
REMARK    2  A    between atoms: C_2  and  C_3
REMARK    3  A    between atoms: C_7  and  C_8
REMARK    4  A    between atoms: C_8  and  N_9
REMARK                            x       y       z     vdW  Elec       q    Type
REMARK                         _______ _______ _______ _____ _____    ______ ____
ROOT
ATOM      1  C   UNL     1      45.644   7.545  12.068  0.00  0.00    +0.000 C 
ENDROOT
BRANCH   1   2
ATOM      2  N   UNL     1      45.171   6.169  12.136  0.00  0.00    +0.000 N 
ATOM      3  N   UNL     1      44.557   5.740  13.267  0.00  0.00    +0.000 NA
ATOM      4  C   UNL     1      44.051   4.554  12.920  0.00  0.00    +0.000 A 
ATOM      5  C   UNL     1      44.324   4.213  11.579  0.00  0.00    +0.000 A 
ATOM      6  C   UNL     1      44.003   3.140  10.729  0.00  0.00    +0.000 A 
ATOM      7  C   UNL     1      44.470   3.178   9.415  0.00  0.00    +0.000 A 
ATOM      8  F   UNL     1      44.157   2.173   8.585  0.00  0.00    +0.000 F 
ATOM      9  C   UNL     1      45.246   4.230   8.943  0.00  0.00    +0.000 A 
ATOM     10  C   UNL     1      45.575   5.305   9.776  0.00  0.00    +0.000 A 
ATOM     11  C   UNL     1      45.087   5.273  11.091  0.00  0.00    +0.000 A 
ENDBRANCH   1   2
BRANCH   1  16
ATOM     12  C   UNL     1      48.557   8.113  14.263  0.00  0.00    +0.000 A 
ATOM     13  C   UNL     1      49.651   7.798  13.460  0.00  0.00    +0.000 A 
ATOM     14  C   UNL     1      49.429   7.438  12.137  0.00  0.00    +0.000 A 
ATOM     15  C   UNL     1      48.127   7.386  11.652  0.00  0.00    +0.000 A 
ATOM     16  C   UNL     1      47.073   7.706  12.508  0.00  0.00    +0.000 A 
ATOM     17  N   UNL     1      47.279   8.073  13.802  0.00  0.00    +0.000 NA
BRANCH  12  18
ATOM     18  C   UNL     1      48.766   8.508  15.710  0.00  0.00    +0.000 C 
BRANCH  18  19
ATOM     19  N   UNL     1      47.679   9.338  16.237  0.00  0.00    +0.000 NA
ATOM     20  H   UNL     1      47.002   9.498  15.493  0.00  0.00    +0.000 HD
ATOM     21  H   UNL     1      48.067  10.254  16.465  0.00  0.00    +0.000 HD
ENDBRANCH  18  19
ENDBRANCH  12  18
ENDBRANCH   1  16
TORSDOF 4
ENDMDL
MODEL 8
REMARK VINA RESULT:    -5.995      4.744      7.662
REMARK INTER + INTRA:          -7.435
REMARK INTER:                  -7.039
REMARK INTRA:                  -0.396
REMARK UNBOUND:                -0.213
REMARK  Name = 
REMARK  4 active torsions:
REMARK  status: ('A' for Active; 'I' for Inactive)
REMARK    1  A    between atoms: N_1  and  C_2
REMARK    2  A    between atoms: C_2  and  C_3
REMARK    3  A    between atoms: C_7  and  C_8
REMARK    4  A    between atoms: C_8  and  N_9
REMARK                            x       y       z     vdW  Elec       q    Type
REMARK                         _______ _______ _______ _____ _____    ______ ____
ROOT
ATOM      1  C   UNL     1      48.223   6.439  13.792  0.00  0.00    +0.000 C 
ENDROOT
BRANCH   1   2
ATOM      2  N   UNL     1      46.855   6.724  13.380  0.00  0.00    +0.000 N 
ATOM      3  N   UNL     1      46.484   8.013  13.178  0.00  0.00    +0.000 NA
ATOM      4  C   UNL     1      45.287   7.909  12.595  0.00  0.00    +0.000 A 
ATOM      5  C   UNL     1      44.882   6.570  12.411  0.00  0.00    +0.000 A 
ATOM      6  C   UNL     1      43.774   5.925  11.835  0.00  0.00    +0.000 A 
ATOM      7  C   UNL     1      43.747   4.531  11.840  0.00  0.00    +0.000 A 
ATOM      8  F   UNL     1      42.707   3.899  11.278  0.00  0.00    +0.000 F 
ATOM      9  C   UNL     1      44.769   3.780  12.408  0.00  0.00    +0.000 A 
ATOM     10  C   UNL     1      45.879   4.406  12.986  0.00  0.00    +0.000 A 
ATOM     11  C   UNL     1      45.912   5.809  12.961  0.00  0.00    +0.000 A 
ENDBRANCH   1   2
BRANCH   1  16
ATOM     12  C   UNL     1      48.317   4.571  16.975  0.00  0.00    +0.000 A 
ATOM     13  C   UNL     1      48.793   5.499  17.897  0.00  0.00    +0.000 A 
ATOM     14  C   UNL     1      49.044   6.798  17.472  0.00  0.00    +0.000 A 
ATOM     15  C   UNL     1      48.827   7.135  16.141  0.00  0.00    +0.000 A 
ATOM     16  C   UNL     1      48.354   6.158  15.264  0.00  0.00    +0.000 A 
ATOM     17  N   UNL     1      48.093   4.886  15.672  0.00  0.00    +0.000 NA
BRANCH  12  18
ATOM     18  C   UNL     1      48.036   3.147  17.407  0.00  0.00    +0.000 C 
BRANCH  18  19
ATOM     19  N   UNL     1      46.616   2.903  17.678  0.00  0.00    +0.000 NA
ATOM     20  H   UNL     1      46.080   3.145  16.848  0.00  0.00    +0.000 HD
ATOM     21  H   UNL     1      46.320   3.556  18.405  0.00  0.00    +0.000 HD
ENDBRANCH  18  19
ENDBRANCH  12  18
ENDBRANCH   1  16
TORSDOF 4
ENDMDL
MODEL 9
REMARK VINA RESULT:    -5.974      4.939      7.579
REMARK INTER + INTRA:          -7.410
REMARK INTER:                  -7.083
REMARK INTRA:                  -0.327
REMARK UNBOUND:                -0.213
REMARK  Name = 
REMARK  4 active torsions:
REMARK  status: ('A' for Active; 'I' for Inactive)
REMARK    1  A    between atoms: N_1  and  C_2
REMARK    2  A    between atoms: C_2  and  C_3
REMARK    3  A    between atoms: C_7  and  C_8
REMARK    4  A    between atoms: C_8  and  N_9
REMARK                            x       y       z     vdW  Elec       q    Type
REMARK                         _______ _______ _______ _____ _____    ______ ____
ROOT
ATOM      1  C   UNL     1      47.137   3.292  14.293  0.00  0.00    +0.000 C 
ENDROOT
BRANCH   1   2
ATOM      2  N   UNL     1      46.860   4.623  13.769  0.00  0.00    +0.000 N 
ATOM      3  N   UNL     1      47.886   5.499  13.624  0.00  0.00    +0.000 NA
ATOM      4  C   UNL     1      47.350   6.498  12.920  0.00  0.00    +0.000 A 
ATOM      5  C   UNL     1      45.993   6.277  12.601  0.00  0.00    +0.000 A 
ATOM      6  C   UNL     1      45.006   6.965  11.873  0.00  0.00    +0.000 A 
ATOM      7  C   UNL     1      43.740   6.391  11.775  0.00  0.00    +0.000 A 
ATOM      8  F   UNL     1      42.792   7.023  11.069  0.00  0.00    +0.000 F 
ATOM      9  C   UNL     1      43.434   5.180  12.385  0.00  0.00    +0.000 A 
ATOM     10  C   UNL     1      44.404   4.483  13.115  0.00  0.00    +0.000 A 
ATOM     11  C   UNL     1      45.683   5.054  13.194  0.00  0.00    +0.000 A 
ENDBRANCH   1   2
BRANCH   1  16
ATOM     12  C   UNL     1      49.385   2.634  17.147  0.00  0.00    +0.000 A 
ATOM     13  C   UNL     1      48.894   3.455  18.159  0.00  0.00    +0.000 A 
ATOM     14  C   UNL     1      47.755   4.212  17.915  0.00  0.00    +0.000 A 
ATOM     15  C   UNL     1      47.144   4.143  16.668  0.00  0.00    +0.000 A 
ATOM     16  C   UNL     1      47.687   3.307  15.693  0.00  0.00    +0.000 A 
ATOM     17  N   UNL     1      48.795   2.551  15.925  0.00  0.00    +0.000 NA
BRANCH  12  18
ATOM     18  C   UNL     1      50.626   1.798  17.381  0.00  0.00    +0.000 C 
BRANCH  18  19
ATOM     19  N   UNL     1      51.657   2.509  18.143  0.00  0.00    +0.000 NA
ATOM     20  H   UNL     1      51.559   3.507  17.970  0.00  0.00    +0.000 HD
ATOM     21  H   UNL     1      52.566   2.245  17.760  0.00  0.00    +0.000 HD
ENDBRANCH  18  19
ENDBRANCH  12  18
ENDBRANCH   1  16
TORSDOF 4
ENDMDL
