MODEL 1
REMARK VINA RESULT:    -7.822      0.000      0.000
REMARK INTER + INTRA:         -10.257
REMARK INTER:                  -9.651
REMARK INTRA:                  -0.606
REMARK UNBOUND:                -0.606
REMARK  Name = 
REMARK  6 active torsions:
REMARK  status: ('A' for Active; 'I' for Inactive)
REMARK    1  A    between atoms: C_1  and  C_2
REMARK    2  A    between atoms: C_4  and  C_5
REMARK    3  A    between atoms: C_9  and  C_10
REMARK    4  A    between atoms: C_10  and  O_11
REMARK    5  A    between atoms: O_11  and  C_12
REMARK    6  A    between atoms: C_14  and  C_15
REMARK                            x       y       z     vdW  Elec       q    Type
REMARK                         _______ _______ _______ _____ _____    ______ ____
ROOT
ATOM      1  C   UNL     1      46.074   5.873  12.130  0.00  0.00    +0.000 A 
ATOM      2  C   UNL     1      46.246   5.042  13.240  0.00  0.00    +0.000 A 
ATOM      3  N   UNL     1      45.829   3.754  13.331  0.00  0.00    +0.000 NA
ATOM      4  C   UNL     1      45.207   3.241  12.250  0.00  0.00    +0.000 A 
ATOM      5  C   UNL     1      44.965   3.957  11.087  0.00  0.00    +0.000 A 
ATOM      6  C   UNL     1      45.411   5.285  11.039  0.00  0.00    +0.000 A 
ENDROOT
BRANCH   1  10
ATOM      7  C   UNL     1      49.789   9.229  11.626  0.00  0.00    +0.000 C 
ATOM      8  C   UNL     1      48.347   8.897  11.865  0.00  0.00    +0.000 A 
ATOM      9  C   UNL     1      47.916   7.572  11.896  0.00  0.00    +0.000 A 
ATOM     10  C   UNL     1      46.560   7.272  12.100  0.00  0.00    +0.000 A 
ATOM     11  C   UNL     1      45.695   8.360  12.274  0.00  0.00    +0.000 A 
ATOM     12  C   UNL     1      46.205   9.649  12.243  0.00  0.00    +0.000 A 
ATOM     13  N   UNL     1      47.506   9.939  12.040  0.00  0.00    +0.000 NA
ENDBRANCH   1  10
BRANCH   5  14
ATOM     14  C   UNL     1      44.246   3.325   9.927  0.00  0.00    +0.000 C 
BRANCH  14  15
ATOM     15  O   UNL     1      44.797   3.808   8.699  0.00  0.00    +0.000 OA
BRANCH  15  16
ATOM     16  C   UNL     1      45.582   2.856   8.073  0.00  0.00    +0.000 A 
ATOM     17  C   UNL     1      46.253   3.245   6.932  0.00  0.00    +0.000 A 
ATOM     18  C   UNL     1      47.051   2.283   6.343  0.00  0.00    +0.000 A 
ATOM     19  C   UNL     1      47.859   2.574   5.115  0.00  0.00    +0.000 C 
ATOM     20  N   UNL     1      47.170   1.039   6.849  0.00  0.00    +0.000 NA
ATOM     21  C   UNL     1      46.466   0.772   7.956  0.00  0.00    +0.000 A 
ATOM     22  N   UNL     1      45.666   1.624   8.604  0.00  0.00    +0.000 NA
ENDBRANCH  15  16
ENDBRANCH  14  15
ENDBRANCH   5  14
TORSDOF 4
ENDMDL
MODEL 2
REMARK VINA RESULT:    -7.761      2.374      3.783
REMARK INTER + INTRA:         -10.182
REMARK INTER:                  -9.525
REMARK INTRA:                  -0.657
REMARK UNBOUND:                -0.606
REMARK  Name = 
REMARK  6 active torsions:
REMARK  status: ('A' for Active; 'I' for Inactive)
REMARK    1  A    between atoms: C_1  and  C_2
REMARK    2  A    between atoms: C_4  and  C_5
REMARK    3  A    between atoms: C_9  and  C_10
REMARK    4  A    between atoms: C_10  and  O_11
REMARK    5  A    between atoms: O_11  and  C_12
REMARK    6  A    between atoms: C_14  and  C_15
REMARK                            x       y       z     vdW  Elec       q    Type
REMARK                         _______ _______ _______ _____ _____    ______ ____
ROOT
ATOM      1  C   UNL     1      46.215   5.630  13.268  0.00  0.00    +0.000 A 
ATOM      2  C   UNL     1      45.797   6.881  12.805  0.00  0.00    +0.000 A 
ATOM      3  N   UNL     1      44.932   7.092  11.781  0.00  0.00    +0.000 NA
ATOM      4  C   UNL     1      44.434   5.997  11.174  0.00  0.00    +0.000 A 
ATOM      5  C   UNL     1      44.770   4.698  11.526  0.00  0.00    +0.000 A 
ATOM      6  C   UNL     1      45.669   4.527  12.588  0.00  0.00    +0.000 A 
ENDROOT
BRANCH   1  10
ATOM      7  C   UNL     1      47.969   3.046  17.213  0.00  0.00    +0.000 C 
ATOM      8  C   UNL     1      48.009   4.238  16.304  0.00  0.00    +0.000 A 
ATOM      9  C   UNL     1      47.102   4.365  15.254  0.00  0.00    +0.000 A 
ATOM     10  C   UNL     1      47.162   5.475  14.396  0.00  0.00    +0.000 A 
ATOM     11  C   UNL     1      48.158   6.423  14.663  0.00  0.00    +0.000 A 
ATOM     12  C   UNL     1      49.013   6.229  15.738  0.00  0.00    +0.000 A 
ATOM     13  N   UNL     1      48.962   5.160  16.557  0.00  0.00    +0.000 NA
ENDBRANCH   1  10
BRANCH   5  14
ATOM     14  C   UNL     1      44.189   3.523  10.789  0.00  0.00    +0.000 C 
BRANCH  14  15
ATOM     15  O   UNL     1      44.027   3.854   9.408  0.00  0.00    +0.000 OA
BRANCH  15  16
ATOM     16  C   UNL     1      45.105   3.439   8.645  0.00  0.00    +0.000 A 
ATOM     17  C   UNL     1      45.366   2.085   8.608  0.00  0.00    +0.000 A 
ATOM     18  C   UNL     1      46.430   1.697   7.817  0.00  0.00    +0.000 A 
ATOM     19  C   UNL     1      46.810   0.255   7.661  0.00  0.00    +0.000 C 
ATOM     20  N   UNL     1      47.171   2.583   7.123  0.00  0.00    +0.000 NA
ATOM     21  C   UNL     1      46.830   3.873   7.241  0.00  0.00    +0.000 A 
ATOM     22  N   UNL     1      45.825   4.356   7.976  0.00  0.00    +0.000 NA
ENDBRANCH  15  16
ENDBRANCH  14  15
ENDBRANCH   5  14
TORSDOF 4
ENDMDL
MODEL 3
REMARK VINA RESULT:    -7.755      1.888      6.685
REMARK INTER + INTRA:         -10.175
REMARK INTER:                  -9.427
REMARK INTRA:                  -0.748
REMARK UNBOUND:                -0.606
REMARK  Name = 
REMARK  6 active torsions:
REMARK  status: ('A' for Active; 'I' for Inactive)
REMARK    1  A    between atoms: C_1  and  C_2
REMARK    2  A    between atoms: C_4  and  C_5
REMARK    3  A    between atoms: C_9  and  C_10
REMARK    4  A    between atoms: C_10  and  O_11
REMARK    5  A    between atoms: O_11  and  C_12
REMARK    6  A    between atoms: C_14  and  C_15
REMARK                            x       y       z     vdW  Elec       q    Type
REMARK                         _______ _______ _______ _____ _____    ______ ____
ROOT
ATOM      1  C   UNL     1      44.815   3.096   9.539  0.00  0.00    +0.000 A 
ATOM      2  C   UNL     1      43.916   2.381  10.334  0.00  0.00    +0.000 A 
ATOM      3  N   UNL     1      43.142   2.908  11.315  0.00  0.00    +0.000 NA
ATOM      4  C   UNL     1      43.251   4.235  11.526  0.00  0.00    +0.000 A 
ATOM      5  C   UNL     1      44.108   5.061  10.815  0.00  0.00    +0.000 A 
ATOM      6  C   UNL     1      44.891   4.473   9.812  0.00  0.00    +0.000 A 
ENDROOT
BRANCH   1  10
ATOM      7  C   UNL     1      47.273   3.292   5.153  0.00  0.00    +0.000 C 
ATOM      8  C   UNL     1      46.810   2.538   6.363  0.00  0.00    +0.000 A 
ATOM      9  C   UNL     1      46.039   3.163   7.341  0.00  0.00    +0.000 A 
ATOM     10  C   UNL     1      45.628   2.454   8.480  0.00  0.00    +0.000 A 
ATOM     11  C   UNL     1      46.023   1.112   8.562  0.00  0.00    +0.000 A 
ATOM     12  C   UNL     1      46.778   0.560   7.538  0.00  0.00    +0.000 A 
ATOM     13  N   UNL     1      47.181   1.243   6.447  0.00  0.00    +0.000 NA
ENDBRANCH   1  10
BRANCH   5  14
ATOM     14  C   UNL     1      44.191   6.532  11.118  0.00  0.00    +0.000 C 
BRANCH  14  15
ATOM     15  O   UNL     1      44.538   6.721  12.492  0.00  0.00    +0.000 OA
BRANCH  15  16
ATOM     16  C   UNL     1      45.884   6.491  12.724  0.00  0.00    +0.000 A 
ATOM     17  C   UNL     1      46.784   7.265  12.023  0.00  0.00    +0.000 A 
ATOM     18  C   UNL     1      48.119   7.034  12.294  0.00  0.00    +0.000 A 
ATOM     19  C   UNL     1      49.206   7.821  11.627  0.00  0.00    +0.000 C 
ATOM     20  N   UNL     1      48.521   6.109  13.188  0.00  0.00    +0.000 NA
ATOM     21  C   UNL     1      47.558   5.411  13.804  0.00  0.00    +0.000 A 
ATOM     22  N   UNL     1      46.243   5.552  13.616  0.00  0.00    +0.000 NA
ENDBRANCH  15  16
ENDBRANCH  14  15
ENDBRANCH   5  14
TORSDOF 4
ENDMDL
MODEL 4
REMARK VINA RESULT:    -7.732      1.695      2.248
REMARK INTER + INTRA:         -10.147
REMARK INTER:                  -9.464
REMARK INTRA:                  -0.683
REMARK UNBOUND:                -0.606
REMARK  Name = 
REMARK  6 active torsions:
REMARK  status: ('A' for Active; 'I' for Inactive)
REMARK    1  A    between atoms: C_1  and  C_2
REMARK    2  A    between atoms: C_4  and  C_5
REMARK    3  A    between atoms: C_9  and  C_10
REMARK    4  A    between atoms: C_10  and  O_11
REMARK    5  A    between atoms: O_11  and  C_12
REMARK    6  A    between atoms: C_14  and  C_15
REMARK                            x       y       z     vdW  Elec       q    Type
REMARK                         _______ _______ _______ _____ _____    ______ ____
ROOT
ATOM      1  C   UNL     1      46.732   5.784  12.673  0.00  0.00    +0.000 A 
ATOM      2  C   UNL     1      46.391   4.909  13.708  0.00  0.00    +0.000 A 
ATOM      3  N   UNL     1      45.351   4.037  13.690  0.00  0.00    +0.000 NA
ATOM      4  C   UNL     1      44.598   4.015  12.573  0.00  0.00    +0.000 A 
ATOM      5  C   UNL     1      44.820   4.834  11.476  0.00  0.00    +0.000 A 
ATOM      6  C   UNL     1      45.904   5.721  11.539  0.00  0.00    +0.000 A 
ENDROOT
BRANCH   1  10
ATOM      7  C   UNL     1      50.624   7.734  15.195  0.00  0.00    +0.000 C 
ATOM      8  C   UNL     1      49.761   7.659  13.972  0.00  0.00    +0.000 A 
ATOM      9  C   UNL     1      48.676   6.786  13.918  0.00  0.00    +0.000 A 
ATOM     10  C   UNL     1      47.887   6.708  12.760  0.00  0.00    +0.000 A 
ATOM     11  C   UNL     1      48.245   7.547  11.696  0.00  0.00    +0.000 A 
ATOM     12  C   UNL     1      49.332   8.397  11.836  0.00  0.00    +0.000 A 
ATOM     13  N   UNL     1      50.095   8.468  12.944  0.00  0.00    +0.000 NA
ENDBRANCH   1  10
BRANCH   5  14
ATOM     14  C   UNL     1      43.925   4.769  10.269  0.00  0.00    +0.000 C 
BRANCH  14  15
ATOM     15  O   UNL     1      43.882   3.428   9.774  0.00  0.00    +0.000 OA
BRANCH  15  16
ATOM     16  C   UNL     1      44.899   3.176   8.870  0.00  0.00    +0.000 A 
ATOM     17  C   UNL     1      45.351   1.877   8.777  0.00  0.00    +0.000 A 
ATOM     18  C   UNL     1      46.347   1.648   7.846  0.00  0.00    +0.000 A 
ATOM     19  C   UNL     1      46.913   0.280   7.618  0.00  0.00    +0.000 C 
ATOM     20  N   UNL     1      46.849   2.633   7.074  0.00  0.00    +0.000 NA
ATOM     21  C   UNL     1      46.338   3.857   7.257  0.00  0.00    +0.000 A 
ATOM     22  N   UNL     1      45.379   4.188   8.126  0.00  0.00    +0.000 NA
ENDBRANCH  15  16
ENDBRANCH  14  15
ENDBRANCH   5  14
TORSDOF 4
ENDMDL
MODEL 5
REMARK VINA RESULT:    -7.732      1.016      2.066
REMARK INTER + INTRA:         -10.146
REMARK INTER:                  -9.493
REMARK INTRA:                  -0.653
REMARK UNBOUND:                -0.606
REMARK  Name = 
REMARK  6 active torsions:
REMARK  status: ('A' for Active; 'I' for Inactive)
REMARK    1  A    between atoms: C_1  and  C_2
REMARK    2  A    between atoms: C_4  and  C_5
REMARK    3  A    between atoms: C_9  and  C_10
REMARK    4  A    between atoms: C_10  and  O_11
REMARK    5  A    between atoms: O_11  and  C_12
REMARK    6  A    between atoms: C_14  and  C_15
REMARK                            x       y       z     vdW  Elec       q    Type
REMARK                         _______ _______ _______ _____ _____    ______ ____
ROOT
ATOM      1  C   UNL     1      45.926   6.005  12.310  0.00  0.00    +0.000 A 
ATOM      2  C   UNL     1      46.284   5.237  13.421  0.00  0.00    +0.000 A 
ATOM      3  N   UNL     1      46.000   3.921  13.591  0.00  0.00    +0.000 NA
ATOM      4  C   UNL     1      45.324   3.313  12.596  0.00  0.00    +0.000 A 
ATOM      5  C   UNL     1      44.901   3.959  11.444  0.00  0.00    +0.000 A 
ATOM      6  C   UNL     1      45.214   5.319  11.311  0.00  0.00    +0.000 A 
ENDROOT
BRANCH   1  10
ATOM      7  C   UNL     1      44.591  10.819  11.707  0.00  0.00    +0.000 C 
ATOM      8  C   UNL     1      45.638   9.763  11.892  0.00  0.00    +0.000 A 
ATOM      9  C   UNL     1      45.286   8.419  11.995  0.00  0.00    +0.000 A 
ATOM     10  C   UNL     1      46.273   7.440  12.190  0.00  0.00    +0.000 A 
ATOM     11  C   UNL     1      47.599   7.890  12.262  0.00  0.00    +0.000 A 
ATOM     12  C   UNL     1      47.867   9.244  12.136  0.00  0.00    +0.000 A 
ATOM     13  N   UNL     1      46.919  10.186  11.957  0.00  0.00    +0.000 NA
ENDBRANCH   1  10
BRANCH   5  14
ATOM     14  C   UNL     1      44.131   3.220  10.383  0.00  0.00    +0.000 C 
BRANCH  14  15
ATOM     15  O   UNL     1      44.303   3.874   9.123  0.00  0.00    +0.000 OA
BRANCH  15  16
ATOM     16  C   UNL     1      45.337   3.319   8.388  0.00  0.00    +0.000 A 
ATOM     17  C   UNL     1      45.504   1.953   8.469  0.00  0.00    +0.000 A 
ATOM     18  C   UNL     1      46.525   1.423   7.704  0.00  0.00    +0.000 A 
ATOM     19  C   UNL     1      46.803  -0.050   7.672  0.00  0.00    +0.000 C 
ATOM     20  N   UNL     1      47.313   2.191   6.924  0.00  0.00    +0.000 NA
ATOM     21  C   UNL     1      47.063   3.506   6.930  0.00  0.00    +0.000 A 
ATOM     22  N   UNL     1      46.106   4.122   7.631  0.00  0.00    +0.000 NA
ENDBRANCH  15  16
ENDBRANCH  14  15
ENDBRANCH   5  14
TORSDOF 4
ENDMDL
MODEL 6
REMARK VINA RESULT:    -7.721      1.710      2.267
REMARK INTER + INTRA:         -10.132
REMARK INTER:                  -9.481
REMARK INTRA:                  -0.651
REMARK UNBOUND:                -0.606
REMARK  Name = 
REMARK  6 active torsions:
REMARK  status: ('A' for Active; 'I' for Inactive)
REMARK    1  A    between atoms: C_1  and  C_2
REMARK    2  A    between atoms: C_4  and  C_5
REMARK    3  A    between atoms: C_9  and  C_10
REMARK    4  A    between atoms: C_10  and  O_11
REMARK    5  A    between atoms: O_11  and  C_12
REMARK    6  A    between atoms: C_14  and  C_15
REMARK                            x       y       z     vdW  Elec       q    Type
REMARK                         _______ _______ _______ _____ _____    ______ ____
ROOT
ATOM      1  C   UNL     1      45.644   5.767  12.079  0.00  0.00    +0.000 A 
ATOM      2  C   UNL     1      44.440   5.779  12.788  0.00  0.00    +0.000 A 
ATOM      3  N   UNL     1      43.263   5.264  12.349  0.00  0.00    +0.000 NA
ATOM      4  C   UNL     1      43.271   4.687  11.131  0.00  0.00    +0.000 A 
ATOM      5  C   UNL     1      44.393   4.613  10.320  0.00  0.00    +0.000 A 
ATOM      6  C   UNL     1      45.586   5.160  10.812  0.00  0.00    +0.000 A 
ENDROOT
BRANCH   1  10
ATOM      7  C   UNL     1      49.706   8.696  11.599  0.00  0.00    +0.000 C 
ATOM      8  C   UNL     1      48.859   7.752  12.396  0.00  0.00    +0.000 A 
ATOM      9  C   UNL     1      47.691   7.214  11.860  0.00  0.00    +0.000 A 
ATOM     10  C   UNL     1      46.894   6.346  12.623  0.00  0.00    +0.000 A 
ATOM     11  C   UNL     1      47.341   6.058  13.919  0.00  0.00    +0.000 A 
ATOM     12  C   UNL     1      48.522   6.624  14.374  0.00  0.00    +0.000 A 
ATOM     13  N   UNL     1      49.285   7.463  13.645  0.00  0.00    +0.000 NA
ENDBRANCH   1  10
BRANCH   5  14
ATOM     14  C   UNL     1      44.323   3.970   8.961  0.00  0.00    +0.000 C 
BRANCH  14  15
ATOM     15  O   UNL     1      45.338   4.520   8.117  0.00  0.00    +0.000 OA
BRANCH  15  16
ATOM     16  C   UNL     1      46.046   3.535   7.449  0.00  0.00    +0.000 A 
ATOM     17  C   UNL     1      46.025   2.268   7.992  0.00  0.00    +0.000 A 
ATOM     18  C   UNL     1      46.716   1.299   7.289  0.00  0.00    +0.000 A 
ATOM     19  C   UNL     1      46.756  -0.128   7.747  0.00  0.00    +0.000 C 
ATOM     20  N   UNL     1      47.372   1.572   6.144  0.00  0.00    +0.000 NA
ATOM     21  C   UNL     1      47.329   2.839   5.715  0.00  0.00    +0.000 A 
ATOM     22  N   UNL     1      46.694   3.851   6.315  0.00  0.00    +0.000 NA
ENDBRANCH  15  16
ENDBRANCH  14  15
ENDBRANCH   5  14
TORSDOF 4
ENDMDL
MODEL 7
REMARK VINA RESULT:    -7.250      1.975      2.803
REMARK INTER + INTRA:          -9.552
REMARK INTER:                  -8.907
REMARK INTRA:                  -0.644
REMARK UNBOUND:                -0.606
REMARK  Name = 
REMARK  6 active torsions:
REMARK  status: ('A' for Active; 'I' for Inactive)
REMARK    1  A    between atoms: C_1  and  C_2
REMARK    2  A    between atoms: C_4  and  C_5
REMARK    3  A    between atoms: C_9  and  C_10
REMARK    4  A    between atoms: C_10  and  O_11
REMARK    5  A    between atoms: O_11  and  C_12
REMARK    6  A    between atoms: C_14  and  C_15
REMARK                            x       y       z     vdW  Elec       q    Type
REMARK                         _______ _______ _______ _____ _____    ______ ____
ROOT
ATOM      1  C   UNL     1      46.621   6.963  12.100  0.00  0.00    +0.000 A 
ATOM      2  C   UNL     1      45.593   7.895  11.937  0.00  0.00    +0.000 A 
ATOM      3  N   UNL     1      44.328   7.609  11.539  0.00  0.00    +0.000 NA
ATOM      4  C   UNL     1      44.049   6.313  11.292  0.00  0.00    +0.000 A 
ATOM      5  C   UNL     1      44.977   5.289  11.406  0.00  0.00    +0.000 A 
ATOM      6  C   UNL     1      46.273   5.631  11.817  0.00  0.00    +0.000 A 
ENDROOT
BRANCH   1  10
ATOM      7  C   UNL     1      50.242   7.078  15.592  0.00  0.00    +0.000 C 
ATOM      8  C   UNL     1      49.730   7.413  14.224  0.00  0.00    +0.000 A 
ATOM      9  C   UNL     1      48.444   7.047  13.834  0.00  0.00    +0.000 A 
ATOM     10  C   UNL     1      47.982   7.348  12.543  0.00  0.00    +0.000 A 
ATOM     11  C   UNL     1      48.871   8.028  11.700  0.00  0.00    +0.000 A 
ATOM     12  C   UNL     1      50.130   8.369  12.169  0.00  0.00    +0.000 A 
ATOM     13  N   UNL     1      50.577   8.074  13.406  0.00  0.00    +0.000 NA
ENDBRANCH   1  10
BRANCH   5  14
ATOM     14  C   UNL     1      44.600   3.867  11.093  0.00  0.00    +0.000 C 
BRANCH  14  15
ATOM     15  O   UNL     1      44.117   3.782   9.750  0.00  0.00    +0.000 OA
BRANCH  15  16
ATOM     16  C   UNL     1      45.112   3.404   8.865  0.00  0.00    +0.000 A 
ATOM     17  C   UNL     1      45.412   2.060   8.791  0.00  0.00    +0.000 A 
ATOM     18  C   UNL     1      46.388   1.708   7.880  0.00  0.00    +0.000 A 
ATOM     19  C   UNL     1      46.796   0.280   7.674  0.00  0.00    +0.000 C 
ATOM     20  N   UNL     1      47.013   2.619   7.107  0.00  0.00    +0.000 NA
ATOM     21  C   UNL     1      46.645   3.896   7.270  0.00  0.00    +0.000 A 
ATOM     22  N   UNL     1      45.717   4.345   8.120  0.00  0.00    +0.000 NA
ENDBRANCH  15  16
ENDBRANCH  14  15
ENDBRANCH   5  14
TORSDOF 4
ENDMDL
MODEL 8
REMARK VINA RESULT:    -7.246      3.424      7.584
REMARK INTER + INTRA:          -9.546
REMARK INTER:                  -9.012
REMARK INTRA:                  -0.535
REMARK UNBOUND:                -0.606
REMARK  Name = 
REMARK  6 active torsions:
REMARK  status: ('A' for Active; 'I' for Inactive)
REMARK    1  A    between atoms: C_1  and  C_2
REMARK    2  A    between atoms: C_4  and  C_5
REMARK    3  A    between atoms: C_9  and  C_10
REMARK    4  A    between atoms: C_10  and  O_11
REMARK    5  A    between atoms: O_11  and  C_12
REMARK    6  A    between atoms: C_14  and  C_15
REMARK                            x       y       z     vdW  Elec       q    Type
REMARK                         _______ _______ _______ _____ _____    ______ ____
ROOT
ATOM      1  C   UNL     1      44.911   3.969  10.321  0.00  0.00    +0.000 A 
ATOM      2  C   UNL     1      43.607   4.469  10.352  0.00  0.00    +0.000 A 
ATOM      3  N   UNL     1      42.993   4.998  11.441  0.00  0.00    +0.000 NA
ATOM      4  C   UNL     1      43.715   5.048  12.579  0.00  0.00    +0.000 A 
ATOM      5  C   UNL     1      45.016   4.580  12.688  0.00  0.00    +0.000 A 
ATOM      6  C   UNL     1      45.609   4.039  11.539  0.00  0.00    +0.000 A 
ENDROOT
BRANCH   1  10
ATOM      7  C   UNL     1      46.636   0.067   7.653  0.00  0.00    +0.000 C 
ATOM      8  C   UNL     1      46.359   1.533   7.802  0.00  0.00    +0.000 A 
ATOM      9  C   UNL     1      45.794   2.037   8.971  0.00  0.00    +0.000 A 
ATOM     10  C   UNL     1      45.518   3.408   9.091  0.00  0.00    +0.000 A 
ATOM     11  C   UNL     1      45.848   4.214   7.994  0.00  0.00    +0.000 A 
ATOM     12  C   UNL     1      46.421   3.636   6.871  0.00  0.00    +0.000 A 
ATOM     13  N   UNL     1      46.679   2.319   6.751  0.00  0.00    +0.000 NA
ENDBRANCH   1  10
BRANCH   5  14
ATOM     14  C   UNL     1      45.754   4.650  13.997  0.00  0.00    +0.000 C 
BRANCH  14  15
ATOM     15  O   UNL     1      46.816   3.693  14.001  0.00  0.00    +0.000 OA
BRANCH  15  16
ATOM     16  C   UNL     1      47.416   3.588  15.245  0.00  0.00    +0.000 A 
ATOM     17  C   UNL     1      47.081   4.539  16.186  0.00  0.00    +0.000 A 
ATOM     18  C   UNL     1      47.672   4.394  17.426  0.00  0.00    +0.000 A 
ATOM     19  C   UNL     1      47.379   5.338  18.554  0.00  0.00    +0.000 C 
ATOM     20  N   UNL     1      48.524   3.387  17.704  0.00  0.00    +0.000 NA
ATOM     21  C   UNL     1      48.780   2.527  16.710  0.00  0.00    +0.000 A 
ATOM     22  N   UNL     1      48.267   2.574  15.477  0.00  0.00    +0.000 NA
ENDBRANCH  15  16
ENDBRANCH  14  15
ENDBRANCH   5  14
TORSDOF 4
ENDMDL
MODEL 9
REMARK VINA RESULT:    -7.070      1.898      7.058
REMARK INTER + INTRA:          -9.329
REMARK INTER:                  -8.682
REMARK INTRA:                  -0.648
REMARK UNBOUND:                -0.606
REMARK  Name = 
REMARK  6 active torsions:
REMARK  status: ('A' for Active; 'I' for Inactive)
REMARK    1  A    between atoms: C_1  and  C_2
REMARK    2  A    between atoms: C_4  and  C_5
REMARK    3  A    between atoms: C_9  and  C_10
REMARK    4  A    between atoms: C_10  and  O_11
REMARK    5  A    between atoms: O_11  and  C_12
REMARK    6  A    between atoms: C_14  and  C_15
REMARK                            x       y       z     vdW  Elec       q    Type
REMARK                         _______ _______ _______ _____ _____    ______ ____
ROOT
ATOM      1  C   UNL     1      44.822   3.940   9.871  0.00  0.00    +0.000 A 
ATOM      2  C   UNL     1      43.662   3.389  10.423  0.00  0.00    +0.000 A 
ATOM      3  N   UNL     1      42.930   3.939  11.424  0.00  0.00    +0.000 NA
ATOM      4  C   UNL     1      43.362   5.119  11.913  0.00  0.00    +0.000 A 
ATOM      5  C   UNL     1      44.500   5.770  11.463  0.00  0.00    +0.000 A 
ATOM      6  C   UNL     1      45.227   5.164  10.429  0.00  0.00    +0.000 A 
ENDROOT
BRANCH   1  10
ATOM      7  C   UNL     1      46.655  -0.187   7.651  0.00  0.00    +0.000 C 
ATOM      8  C   UNL     1      46.463   1.299   7.701  0.00  0.00    +0.000 A 
ATOM      9  C   UNL     1      45.762   1.893   8.748  0.00  0.00    +0.000 A 
ATOM     10  C   UNL     1      45.570   3.283   8.774  0.00  0.00    +0.000 A 
ATOM     11  C   UNL     1      46.122   4.014   7.713  0.00  0.00    +0.000 A 
ATOM     12  C   UNL     1      46.819   3.348   6.716  0.00  0.00    +0.000 A 
ATOM     13  N   UNL     1      46.997   2.013   6.686  0.00  0.00    +0.000 NA
ENDBRANCH   1  10
BRANCH   5  14
ATOM     14  C   UNL     1      44.934   7.077  12.070  0.00  0.00    +0.000 C 
BRANCH  14  15
ATOM     15  O   UNL     1      46.212   6.918  12.689  0.00  0.00    +0.000 OA
BRANCH  15  16
ATOM     16  C   UNL     1      47.088   7.931  12.338  0.00  0.00    +0.000 A 
ATOM     17  C   UNL     1      48.394   7.572  12.079  0.00  0.00    +0.000 A 
ATOM     18  C   UNL     1      49.239   8.599  11.703  0.00  0.00    +0.000 A 
ATOM     19  C   UNL     1      50.678   8.351  11.364  0.00  0.00    +0.000 C 
ATOM     20  N   UNL     1      48.817   9.875  11.597  0.00  0.00    +0.000 NA
ATOM     21  C   UNL     1      47.530  10.107  11.881  0.00  0.00    +0.000 A 
ATOM     22  N   UNL     1      46.629   9.192  12.253  0.00  0.00    +0.000 NA
ENDBRANCH  15  16
ENDBRANCH  14  15
ENDBRANCH   5  14
TORSDOF 4
ENDMDL
