MODEL 1
REMARK VINA RESULT:    -7.520      0.000      0.000
REMARK INTER + INTRA:          -8.807
REMARK INTER:                  -8.400
REMARK INTRA:                  -0.407
REMARK UNBOUND:                -0.407
REMARK  Name = 
REMARK  2 active torsions:
REMARK  status: ('A' for Active; 'I' for Inactive)
REMARK    1  A    between atoms: N_9  and  C_10
REMARK    2  A    between atoms: C_10  and  C_11
REMARK                            x       y       z     vdW  Elec       q    Type
REMARK                         _______ _______ _______ _____ _____    ______ ____
ROOT
ATOM      1  C   UNL     1      43.846   3.659  13.075  0.00  0.00    +0.000 A 
ATOM      2  C   UNL     1      43.396   2.866  12.028  0.00  0.00    +0.000 A 
ATOM      3  N   UNL     1      43.718   3.020  10.722  0.00  0.00    +0.000 NA
ATOM      4  C   UNL     1      44.549   4.060  10.503  0.00  0.00    +0.000 A 
ATOM      5  C   UNL     1      45.078   4.925  11.457  0.00  0.00    +0.000 A 
ATOM      6  C   UNL     1      44.712   4.717  12.797  0.00  0.00    +0.000 A 
ATOM      7  C   UNL     1      45.912   5.844  10.768  0.00  0.00    +0.000 A 
ATOM      8  C   UNL     1      45.862   5.531   9.425  0.00  0.00    +0.000 A 
ATOM      9  N   UNL     1      45.015   4.457   9.273  0.00  0.00    +0.000 N 
ENDROOT
BRANCH   9  10
ATOM     10  C   UNL     1      44.735   3.778   8.017  0.00  0.00    +0.000 C 
BRANCH  10  11
ATOM     11  C   UNL     1      45.840   2.851   7.593  0.00  0.00    +0.000 A 
ATOM     12  C   UNL     1      46.783   3.222   6.636  0.00  0.00    +0.000 A 
ATOM     13  C   UNL     1      47.812   2.344   6.345  0.00  0.00    +0.000 A 
ATOM     14  N   UNL     1      47.935   1.143   6.944  0.00  0.00    +0.000 NA
ATOM     15  N   UNL     1      47.017   0.767   7.871  0.00  0.00    +0.000 NA
ATOM     16  C   UNL     1      46.002   1.604   8.182  0.00  0.00    +0.000 A 
ENDBRANCH  10  11
ENDBRANCH   9  10
TORSDOF 2
ENDMDL
MODEL 2
REMARK VINA RESULT:    -7.368      0.988      2.188
REMARK INTER + INTRA:          -8.637
REMARK INTER:                  -8.428
REMARK INTRA:                  -0.209
REMARK UNBOUND:                -0.407
REMARK  Name = 
REMARK  2 active torsions:
REMARK  status: ('A' for Active; 'I' for Inactive)
REMARK    1  A    between atoms: N_9  and  C_10
REMARK    2  A    between atoms: C_10  and  C_11
REMARK                            x       y       z     vdW  Elec       q    Type
REMARK                         _______ _______ _______ _____ _____    ______ ____
ROOT
ATOM      1  C   UNL     1      46.041   6.245  12.875  0.00  0.00    +0.000 A 
ATOM      2  C   UNL     1      46.282   6.490  11.530  0.00  0.00    +0.000 A 
ATOM      3  N   UNL     1      45.837   5.740  10.495  0.00  0.00    +0.000 NA
ATOM      4  C   UNL     1      45.107   4.677  10.890  0.00  0.00    +0.000 A 
ATOM      5  C   UNL     1      44.785   4.322  12.197  0.00  0.00    +0.000 A 
ATOM      6  C   UNL     1      45.271   5.138  13.232  0.00  0.00    +0.000 A 
ATOM      7  C   UNL     1      43.985   3.150  12.125  0.00  0.00    +0.000 A 
ATOM      8  C   UNL     1      43.852   2.815  10.793  0.00  0.00    +0.000 A 
ATOM      9  N   UNL     1      44.554   3.738  10.053  0.00  0.00    +0.000 N 
ENDROOT
BRANCH   9  10
ATOM     10  C   UNL     1      44.617   3.778   8.599  0.00  0.00    +0.000 C 
BRANCH  10  11
ATOM     11  C   UNL     1      45.710   2.912   8.037  0.00  0.00    +0.000 A 
ATOM     12  C   UNL     1      46.718   3.436   7.229  0.00  0.00    +0.000 A 
ATOM     13  C   UNL     1      47.729   2.593   6.802  0.00  0.00    +0.000 A 
ATOM     14  N   UNL     1      47.774   1.287   7.130  0.00  0.00    +0.000 NA
ATOM     15  N   UNL     1      46.793   0.764   7.910  0.00  0.00    +0.000 NA
ATOM     16  C   UNL     1      45.793   1.562   8.347  0.00  0.00    +0.000 A 
ENDBRANCH  10  11
ENDBRANCH   9  10
TORSDOF 2
ENDMDL
MODEL 3
REMARK VINA RESULT:    -7.112      1.721      5.548
REMARK INTER + INTRA:          -8.350
REMARK INTER:                  -8.055
REMARK INTRA:                  -0.295
REMARK UNBOUND:                -0.407
REMARK  Name = 
REMARK  2 active torsions:
REMARK  status: ('A' for Active; 'I' for Inactive)
REMARK    1  A    between atoms: N_9  and  C_10
REMARK    2  A    between atoms: C_10  and  C_11
REMARK                            x       y       z     vdW  Elec       q    Type
REMARK                         _______ _______ _______ _____ _____    ______ ____
ROOT
ATOM      1  C   UNL     1      47.556   1.020   6.663  0.00  0.00    +0.000 A 
ATOM      2  C   UNL     1      46.777   0.348   7.594  0.00  0.00    +0.000 A 
ATOM      3  N   UNL     1      45.907   0.918   8.460  0.00  0.00    +0.000 NA
ATOM      4  C   UNL     1      45.855   2.262   8.346  0.00  0.00    +0.000 A 
ATOM      5  C   UNL     1      46.572   3.055   7.454  0.00  0.00    +0.000 A 
ATOM      6  C   UNL     1      47.459   2.409   6.577  0.00  0.00    +0.000 A 
ATOM      7  C   UNL     1      46.178   4.399   7.683  0.00  0.00    +0.000 A 
ATOM      8  C   UNL     1      45.251   4.396   8.706  0.00  0.00    +0.000 A 
ATOM      9  N   UNL     1      45.077   3.094   9.114  0.00  0.00    +0.000 N 
ENDROOT
BRANCH   9  10
ATOM     10  C   UNL     1      44.137   2.650  10.133  0.00  0.00    +0.000 C 
BRANCH  10  11
ATOM     11  C   UNL     1      44.080   3.572  11.318  0.00  0.00    +0.000 A 
ATOM     12  C   UNL     1      42.975   4.388  11.560  0.00  0.00    +0.000 A 
ATOM     13  C   UNL     1      42.961   5.161  12.707  0.00  0.00    +0.000 A 
ATOM     14  N   UNL     1      43.974   5.163  13.595  0.00  0.00    +0.000 NA
ATOM     15  N   UNL     1      45.060   4.380  13.366  0.00  0.00    +0.000 NA
ATOM     16  C   UNL     1      45.102   3.609  12.257  0.00  0.00    +0.000 A 
ENDBRANCH  10  11
ENDBRANCH   9  10
TORSDOF 2
ENDMDL
MODEL 4
REMARK VINA RESULT:    -6.374      2.557      5.331
REMARK INTER + INTRA:          -7.526
REMARK INTER:                  -7.222
REMARK INTRA:                  -0.304
REMARK UNBOUND:                -0.407
REMARK  Name = 
REMARK  2 active torsions:
REMARK  status: ('A' for Active; 'I' for Inactive)
REMARK    1  A    between atoms: N_9  and  C_10
REMARK    2  A    between atoms: C_10  and  C_11
REMARK                            x       y       z     vdW  Elec       q    Type
REMARK                         _______ _______ _______ _____ _____    ______ ____
ROOT
ATOM      1  C   UNL     1      45.268   2.911   8.075  0.00  0.00    +0.000 A 
ATOM      2  C   UNL     1      45.737   4.198   8.301  0.00  0.00    +0.000 A 
ATOM      3  N   UNL     1      45.517   4.938   9.413  0.00  0.00    +0.000 NA
ATOM      4  C   UNL     1      44.764   4.298  10.332  0.00  0.00    +0.000 A 
ATOM      5  C   UNL     1      44.240   3.012  10.236  0.00  0.00    +0.000 A 
ATOM      6  C   UNL     1      44.501   2.289   9.060  0.00  0.00    +0.000 A 
ATOM      7  C   UNL     1      43.539   2.757  11.444  0.00  0.00    +0.000 A 
ATOM      8  C   UNL     1      43.640   3.884  12.233  0.00  0.00    +0.000 A 
ATOM      9  N   UNL     1      44.370   4.822  11.540  0.00  0.00    +0.000 N 
ENDROOT
BRANCH   9  10
ATOM     10  C   UNL     1      44.756   6.130  12.046  0.00  0.00    +0.000 C 
BRANCH  10  11
ATOM     11  C   UNL     1      46.188   6.183  12.500  0.00  0.00    +0.000 A 
ATOM     12  C   UNL     1      47.116   7.033  11.900  0.00  0.00    +0.000 A 
ATOM     13  C   UNL     1      48.400   7.079  12.414  0.00  0.00    +0.000 A 
ATOM     14  N   UNL     1      48.790   6.332  13.465  0.00  0.00    +0.000 NA
ATOM     15  N   UNL     1      47.897   5.494  14.052  0.00  0.00    +0.000 NA
ATOM     16  C   UNL     1      46.633   5.429  13.576  0.00  0.00    +0.000 A 
ENDBRANCH  10  11
ENDBRANCH   9  10
TORSDOF 2
ENDMDL
MODEL 5
REMARK VINA RESULT:    -6.351      1.796      5.499
REMARK INTER + INTRA:          -7.501
REMARK INTER:                  -7.111
REMARK INTRA:                  -0.390
REMARK UNBOUND:                -0.407
REMARK  Name = 
REMARK  2 active torsions:
REMARK  status: ('A' for Active; 'I' for Inactive)
REMARK    1  A    between atoms: N_9  and  C_10
REMARK    2  A    between atoms: C_10  and  C_11
REMARK                            x       y       z     vdW  Elec       q    Type
REMARK                         _______ _______ _______ _____ _____    ______ ____
ROOT
ATOM      1  C   UNL     1      47.764   2.587   6.484  0.00  0.00    +0.000 A 
ATOM      2  C   UNL     1      47.411   3.901   6.761  0.00  0.00    +0.000 A 
ATOM      3  N   UNL     1      46.438   4.297   7.614  0.00  0.00    +0.000 NA
ATOM      4  C   UNL     1      45.798   3.264   8.201  0.00  0.00    +0.000 A 
ATOM      5  C   UNL     1      46.055   1.909   8.018  0.00  0.00    +0.000 A 
ATOM      6  C   UNL     1      47.078   1.554   7.124  0.00  0.00    +0.000 A 
ATOM      7  C   UNL     1      45.153   1.199   8.854  0.00  0.00    +0.000 A 
ATOM      8  C   UNL     1      44.368   2.127   9.508  0.00  0.00    +0.000 A 
ATOM      9  N   UNL     1      44.755   3.378   9.088  0.00  0.00    +0.000 N 
ENDROOT
BRANCH   9  10
ATOM     10  C   UNL     1      44.216   4.636   9.584  0.00  0.00    +0.000 C 
BRANCH  10  11
ATOM     11  C   UNL     1      44.904   5.116  10.831  0.00  0.00    +0.000 A 
ATOM     12  C   UNL     1      45.945   6.043  10.784  0.00  0.00    +0.000 A 
ATOM     13  C   UNL     1      46.486   6.491  11.975  0.00  0.00    +0.000 A 
ATOM     14  N   UNL     1      46.053   6.065  13.178  0.00  0.00    +0.000 NA
ATOM     15  N   UNL     1      45.046   5.155  13.236  0.00  0.00    +0.000 NA
ATOM     16  C   UNL     1      44.493   4.701  12.090  0.00  0.00    +0.000 A 
ENDBRANCH  10  11
ENDBRANCH   9  10
TORSDOF 2
ENDMDL
MODEL 6
REMARK VINA RESULT:    -6.216      1.689      2.148
REMARK INTER + INTRA:          -7.350
REMARK INTER:                  -6.988
REMARK INTRA:                  -0.362
REMARK UNBOUND:                -0.407
REMARK  Name = 
REMARK  2 active torsions:
REMARK  status: ('A' for Active; 'I' for Inactive)
REMARK    1  A    between atoms: N_9  and  C_10
REMARK    2  A    between atoms: C_10  and  C_11
REMARK                            x       y       z     vdW  Elec       q    Type
REMARK                         _______ _______ _______ _____ _____    ______ ____
ROOT
ATOM      1  C   UNL     1      47.084   4.327  14.249  0.00  0.00    +0.000 A 
ATOM      2  C   UNL     1      46.417   3.283  13.623  0.00  0.00    +0.000 A 
ATOM      3  N   UNL     1      45.660   3.382  12.505  0.00  0.00    +0.000 NA
ATOM      4  C   UNL     1      45.597   4.641  12.022  0.00  0.00    +0.000 A 
ATOM      5  C   UNL     1      46.220   5.770  12.544  0.00  0.00    +0.000 A 
ATOM      6  C   UNL     1      46.995   5.608  13.705  0.00  0.00    +0.000 A 
ATOM      7  C   UNL     1      45.887   6.859  11.696  0.00  0.00    +0.000 A 
ATOM      8  C   UNL     1      45.067   6.376  10.696  0.00  0.00    +0.000 A 
ATOM      9  N   UNL     1      44.881   5.031  10.915  0.00  0.00    +0.000 N 
ENDROOT
BRANCH   9  10
ATOM     10  C   UNL     1      44.129   4.134  10.051  0.00  0.00    +0.000 C 
BRANCH  10  11
ATOM     11  C   UNL     1      45.001   3.384   9.083  0.00  0.00    +0.000 A 
ATOM     12  C   UNL     1      45.700   4.037   8.069  0.00  0.00    +0.000 A 
ATOM     13  C   UNL     1      46.537   3.293   7.257  0.00  0.00    +0.000 A 
ATOM     14  N   UNL     1      46.699   1.964   7.402  0.00  0.00    +0.000 NA
ATOM     15  N   UNL     1      46.016   1.315   8.381  0.00  0.00    +0.000 NA
ATOM     16  C   UNL     1      45.193   2.014   9.194  0.00  0.00    +0.000 A 
ENDBRANCH  10  11
ENDBRANCH   9  10
TORSDOF 2
ENDMDL
MODEL 7
REMARK VINA RESULT:    -5.966      2.001      3.262
REMARK INTER + INTRA:          -7.070
REMARK INTER:                  -6.668
REMARK INTRA:                  -0.403
REMARK UNBOUND:                -0.407
REMARK  Name = 
REMARK  2 active torsions:
REMARK  status: ('A' for Active; 'I' for Inactive)
REMARK    1  A    between atoms: N_9  and  C_10
REMARK    2  A    between atoms: C_10  and  C_11
REMARK                            x       y       z     vdW  Elec       q    Type
REMARK                         _______ _______ _______ _____ _____    ______ ____
ROOT
ATOM      1  C   UNL     1      45.947   8.291  12.750  0.00  0.00    +0.000 A 
ATOM      2  C   UNL     1      45.155   8.061  11.633  0.00  0.00    +0.000 A 
ATOM      3  N   UNL     1      44.786   6.848  11.159  0.00  0.00    +0.000 NA
ATOM      4  C   UNL     1      45.276   5.825  11.891  0.00  0.00    +0.000 A 
ATOM      5  C   UNL     1      46.070   5.916  13.031  0.00  0.00    +0.000 A 
ATOM      6  C   UNL     1      46.420   7.201  13.479  0.00  0.00    +0.000 A 
ATOM      7  C   UNL     1      46.321   4.589  13.470  0.00  0.00    +0.000 A 
ATOM      8  C   UNL     1      45.693   3.730  12.590  0.00  0.00    +0.000 A 
ATOM      9  N   UNL     1      45.078   4.491  11.624  0.00  0.00    +0.000 N 
ENDROOT
BRANCH   9  10
ATOM     10  C   UNL     1      44.255   3.972  10.541  0.00  0.00    +0.000 C 
BRANCH  10  11
ATOM     11  C   UNL     1      45.065   3.496   9.368  0.00  0.00    +0.000 A 
ATOM     12  C   UNL     1      45.333   2.143   9.163  0.00  0.00    +0.000 A 
ATOM     13  C   UNL     1      46.027   1.771   8.026  0.00  0.00    +0.000 A 
ATOM     14  N   UNL     1      46.458   2.661   7.112  0.00  0.00    +0.000 NA
ATOM     15  N   UNL     1      46.209   3.983   7.304  0.00  0.00    +0.000 NA
ATOM     16  C   UNL     1      45.530   4.379   8.404  0.00  0.00    +0.000 A 
ENDBRANCH  10  11
ENDBRANCH   9  10
TORSDOF 2
ENDMDL
MODEL 8
REMARK VINA RESULT:    -5.451      2.579      4.030
REMARK INTER + INTRA:          -6.496
REMARK INTER:                  -6.087
REMARK INTRA:                  -0.409
REMARK UNBOUND:                -0.407
REMARK  Name = 
REMARK  2 active torsions:
REMARK  status: ('A' for Active; 'I' for Inactive)
REMARK    1  A    between atoms: N_9  and  C_10
REMARK    2  A    between atoms: C_10  and  C_11
REMARK                            x       y       z     vdW  Elec       q    Type
REMARK                         _______ _______ _______ _____ _____    ______ ____
ROOT
ATOM      1  C   UNL     1      47.659   8.406  13.439  0.00  0.00    +0.000 A 
ATOM      2  C   UNL     1      46.616   8.530  12.531  0.00  0.00    +0.000 A 
ATOM      3  N   UNL     1      45.809   7.528  12.110  0.00  0.00    +0.000 NA
ATOM      4  C   UNL     1      46.115   6.336  12.664  0.00  0.00    +0.000 A 
ATOM      5  C   UNL     1      47.124   6.077  13.587  0.00  0.00    +0.000 A 
ATOM      6  C   UNL     1      47.929   7.154  13.992  0.00  0.00    +0.000 A 
ATOM      7  C   UNL     1      47.055   4.693  13.901  0.00  0.00    +0.000 A 
ATOM      8  C   UNL     1      46.027   4.146  13.159  0.00  0.00    +0.000 A 
ATOM      9  N   UNL     1      45.476   5.149  12.396  0.00  0.00    +0.000 N 
ENDROOT
BRANCH   9  10
ATOM     10  C   UNL     1      44.325   5.003  11.518  0.00  0.00    +0.000 C 
BRANCH  10  11
ATOM     11  C   UNL     1      44.634   4.214  10.276  0.00  0.00    +0.000 A 
ATOM     12  C   UNL     1      45.384   4.753   9.232  0.00  0.00    +0.000 A 
ATOM     13  C   UNL     1      45.687   3.947   8.149  0.00  0.00    +0.000 A 
ATOM     14  N   UNL     1      45.281   2.666   8.059  0.00  0.00    +0.000 NA
ATOM     15  N   UNL     1      44.541   2.132   9.066  0.00  0.00    +0.000 NA
ATOM     16  C   UNL     1      44.232   2.892  10.140  0.00  0.00    +0.000 A 
ENDBRANCH  10  11
ENDBRANCH   9  10
TORSDOF 2
ENDMDL
MODEL 9
REMARK VINA RESULT:    -5.211      3.760      6.059
REMARK INTER + INTRA:          -6.227
REMARK INTER:                  -6.114
REMARK INTRA:                  -0.114
REMARK UNBOUND:                -0.407
REMARK  Name = 
REMARK  2 active torsions:
REMARK  status: ('A' for Active; 'I' for Inactive)
REMARK    1  A    between atoms: N_9  and  C_10
REMARK    2  A    between atoms: C_10  and  C_11
REMARK                            x       y       z     vdW  Elec       q    Type
REMARK                         _______ _______ _______ _____ _____    ______ ____
ROOT
ATOM      1  C   UNL     1      50.306   7.719  14.752  0.00  0.00    +0.000 A 
ATOM      2  C   UNL     1      49.631   6.791  15.533  0.00  0.00    +0.000 A 
ATOM      3  N   UNL     1      48.530   6.095  15.163  0.00  0.00    +0.000 NA
ATOM      4  C   UNL     1      48.114   6.391  13.914  0.00  0.00    +0.000 A 
ATOM      5  C   UNL     1      48.700   7.290  13.028  0.00  0.00    +0.000 A 
ATOM      6  C   UNL     1      49.841   7.983  13.463  0.00  0.00    +0.000 A 
ATOM      7  C   UNL     1      47.934   7.254  11.833  0.00  0.00    +0.000 A 
ATOM      8  C   UNL     1      46.904   6.355  12.021  0.00  0.00    +0.000 A 
ATOM      9  N   UNL     1      47.011   5.851  13.297  0.00  0.00    +0.000 N 
ENDROOT
BRANCH   9  10
ATOM     10  C   UNL     1      46.153   4.826  13.872  0.00  0.00    +0.000 C 
BRANCH  10  11
ATOM     11  C   UNL     1      44.996   4.464  12.982  0.00  0.00    +0.000 A 
ATOM     12  C   UNL     1      43.836   5.236  12.938  0.00  0.00    +0.000 A 
ATOM     13  C   UNL     1      42.839   4.882  12.046  0.00  0.00    +0.000 A 
ATOM     14  N   UNL     1      42.941   3.820  11.225  0.00  0.00    +0.000 NA
ATOM     15  N   UNL     1      44.063   3.055  11.265  0.00  0.00    +0.000 NA
ATOM     16  C   UNL     1      45.058   3.376  12.122  0.00  0.00    +0.000 A 
ENDBRANCH  10  11
ENDBRANCH   9  10
TORSDOF 2
ENDMDL
