MODEL 1
REMARK VINA RESULT:    -8.285      0.000      0.000
REMARK INTER + INTRA:         -10.752
REMARK INTER:                 -10.223
REMARK INTRA:                  -0.530
REMARK UNBOUND:                -0.530
REMARK  Name = 
REMARK  5 active torsions:
REMARK  status: ('A' for Active; 'I' for Inactive)
REMARK    1  A    between atoms: C_1  and  C_2
REMARK    2  A    between atoms: C_4  and  C_5
REMARK    3  A    between atoms: C_10  and  N_11
REMARK    4  A    between atoms: N_11  and  C_12
REMARK    5  A    between atoms: C_12  and  C_13
REMARK                            x       y       z     vdW  Elec       q    Type
REMARK                         _______ _______ _______ _____ _____    ______ ____
ROOT
ATOM      1  C   UNL     1      43.984   2.003  10.248  0.00  0.00    +0.000 C 
ATOM      2  C   UNL     1      44.871   2.761   9.302  0.00  0.00    +0.000 A 
ATOM      3  C   UNL     1      45.767   2.016   8.512  0.00  0.00    +0.000 A 
ATOM      4  C   UNL     1      46.614   2.648   7.606  0.00  0.00    +0.000 A 
ATOM      5  C   UNL     1      46.505   4.021   7.516  0.00  0.00    +0.000 A 
ATOM      6  N   UNL     1      45.645   4.773   8.260  0.00  0.00    +0.000 NA
ATOM      7  C   UNL     1      44.842   4.162   9.153  0.00  0.00    +0.000 A 
ENDROOT
BRANCH   4   8
ATOM      8  C   UNL     1      47.563   1.821   6.822  0.00  0.00    +0.000 C 
ATOM      9  N   UNL     1      48.706   2.392   6.336  0.00  0.00    +0.000 N 
ATOM     10  O   UNL     1      47.342   0.633   6.615  0.00  0.00    +0.000 OA
ATOM     11  H   UNL     1      48.992   3.349   6.454  0.00  0.00    +0.000 HD
ATOM     12  H   UNL     1      49.328   1.774   5.826  0.00  0.00    +0.000 HD
ENDBRANCH   4   8
BRANCH   7  13
ATOM     13  N   UNL     1      43.905   4.931   9.891  0.00  0.00    +0.000 N 
ATOM     14  H   UNL     1      42.961   4.736   9.590  0.00  0.00    +0.000 HD
BRANCH  13  15
ATOM     15  C   UNL     1      43.969   5.135  11.360  0.00  0.00    +0.000 C 
ATOM     16  C   UNL     1      43.076   4.516  12.423  0.00  0.00    +0.000 C 
ATOM     17  C   UNL     1      42.774   5.894  11.940  0.00  0.00    +0.000 C 
BRANCH  15  18
ATOM     18  C   UNL     1      45.374   5.484  11.849  0.00  0.00    +0.000 A 
ATOM     19  C   UNL     1      46.087   6.610  11.409  0.00  0.00    +0.000 A 
ATOM     20  C   UNL     1      47.325   6.932  11.966  0.00  0.00    +0.000 A 
ATOM     21  C   UNL     1      47.839   6.108  12.952  0.00  0.00    +0.000 A 
ATOM     22  N   UNL     1      47.218   4.993  13.386  0.00  0.00    +0.000 NA
ATOM     23  C   UNL     1      46.018   4.710  12.819  0.00  0.00    +0.000 A 
ENDBRANCH  15  18
ENDBRANCH  13  15
ENDBRANCH   7  13
TORSDOF 4
ENDMDL
MODEL 2
REMARK VINA RESULT:    -7.721      1.304      1.562
REMARK INTER + INTRA:         -10.057
REMARK INTER:                  -9.496
REMARK INTRA:                  -0.561
REMARK UNBOUND:                -0.530
REMARK  Name = 
REMARK  5 active torsions:
REMARK  status: ('A' for Active; 'I' for Inactive)
REMARK    1  A    between atoms: C_1  and  C_2
REMARK    2  A    between atoms: C_4  and  C_5
REMARK    3  A    between atoms: C_10  and  N_11
REMARK    4  A    between atoms: N_11  and  C_12
REMARK    5  A    between atoms: C_12  and  C_13
REMARK                            x       y       z     vdW  Elec       q    Type
REMARK                         _______ _______ _______ _____ _____    ______ ____
ROOT
ATOM      1  C   UNL     1      44.111   2.055   9.883  0.00  0.00    +0.000 C 
ATOM      2  C   UNL     1      45.048   2.918   9.085  0.00  0.00    +0.000 A 
ATOM      3  C   UNL     1      45.893   2.277   8.160  0.00  0.00    +0.000 A 
ATOM      4  C   UNL     1      46.781   3.012   7.380  0.00  0.00    +0.000 A 
ATOM      5  C   UNL     1      46.764   4.381   7.550  0.00  0.00    +0.000 A 
ATOM      6  N   UNL     1      45.954   5.035   8.431  0.00  0.00    +0.000 NA
ATOM      7  C   UNL     1      45.112   4.321   9.202  0.00  0.00    +0.000 A 
ENDROOT
BRANCH   4   8
ATOM      8  C   UNL     1      47.674   2.286   6.444  0.00  0.00    +0.000 C 
ATOM      9  N   UNL     1      47.906   2.805   5.200  0.00  0.00    +0.000 N 
ATOM     10  O   UNL     1      48.216   1.237   6.774  0.00  0.00    +0.000 OA
ATOM     11  H   UNL     1      47.526   3.660   4.830  0.00  0.00    +0.000 HD
ATOM     12  H   UNL     1      48.541   2.278   4.611  0.00  0.00    +0.000 HD
ENDBRANCH   4   8
BRANCH   7  13
ATOM     13  N   UNL     1      44.227   4.997  10.082  0.00  0.00    +0.000 N 
ATOM     14  H   UNL     1      43.270   4.718   9.916  0.00  0.00    +0.000 HD
BRANCH  13  15
ATOM     15  C   UNL     1      44.484   5.197  11.531  0.00  0.00    +0.000 C 
ATOM     16  C   UNL     1      44.463   4.149  12.632  0.00  0.00    +0.000 C 
ATOM     17  C   UNL     1      43.255   4.998  12.419  0.00  0.00    +0.000 C 
BRANCH  15  18
ATOM     18  C   UNL     1      45.413   6.379  11.808  0.00  0.00    +0.000 A 
ATOM     19  C   UNL     1      46.778   6.236  12.103  0.00  0.00    +0.000 A 
ATOM     20  C   UNL     1      47.597   7.356  12.247  0.00  0.00    +0.000 A 
ATOM     21  C   UNL     1      47.029   8.610  12.108  0.00  0.00    +0.000 A 
ATOM     22  N   UNL     1      45.719   8.809  11.864  0.00  0.00    +0.000 NA
ATOM     23  C   UNL     1      44.953   7.697  11.732  0.00  0.00    +0.000 A 
ENDBRANCH  15  18
ENDBRANCH  13  15
ENDBRANCH   7  13
TORSDOF 4
ENDMDL
MODEL 3
REMARK VINA RESULT:    -7.266      1.270      1.811
REMARK INTER + INTRA:          -9.494
REMARK INTER:                  -8.778
REMARK INTRA:                  -0.717
REMARK UNBOUND:                -0.530
REMARK  Name = 
REMARK  5 active torsions:
REMARK  status: ('A' for Active; 'I' for Inactive)
REMARK    1  A    between atoms: C_1  and  C_2
REMARK    2  A    between atoms: C_4  and  C_5
REMARK    3  A    between atoms: C_10  and  N_11
REMARK    4  A    between atoms: N_11  and  C_12
REMARK    5  A    between atoms: C_12  and  C_13
REMARK                            x       y       z     vdW  Elec       q    Type
REMARK                         _______ _______ _______ _____ _____    ______ ____
ROOT
ATOM      1  C   UNL     1      46.251   5.440   8.499  0.00  0.00    +0.000 C 
ATOM      2  C   UNL     1      45.755   4.028   8.631  0.00  0.00    +0.000 A 
ATOM      3  C   UNL     1      46.516   3.011   8.025  0.00  0.00    +0.000 A 
ATOM      4  C   UNL     1      46.123   1.679   8.112  0.00  0.00    +0.000 A 
ATOM      5  C   UNL     1      44.977   1.421   8.837  0.00  0.00    +0.000 A 
ATOM      6  N   UNL     1      44.220   2.379   9.443  0.00  0.00    +0.000 NA
ATOM      7  C   UNL     1      44.588   3.670   9.337  0.00  0.00    +0.000 A 
ENDROOT
BRANCH   4   8
ATOM      8  C   UNL     1      46.941   0.649   7.427  0.00  0.00    +0.000 C 
ATOM      9  N   UNL     1      46.686  -0.674   7.659  0.00  0.00    +0.000 N 
ATOM     10  O   UNL     1      47.834   0.967   6.649  0.00  0.00    +0.000 OA
ATOM     11  H   UNL     1      45.974  -1.047   8.265  0.00  0.00    +0.000 HD
ATOM     12  H   UNL     1      47.261  -1.334   7.147  0.00  0.00    +0.000 HD
ENDBRANCH   4   8
BRANCH   7  13
ATOM     13  N   UNL     1      43.837   4.668  10.011  0.00  0.00    +0.000 N 
ATOM     14  H   UNL     1      42.901   4.730   9.636  0.00  0.00    +0.000 HD
BRANCH  13  15
ATOM     15  C   UNL     1      43.839   4.859  11.484  0.00  0.00    +0.000 C 
ATOM     16  C   UNL     1      43.006   4.119  12.518  0.00  0.00    +0.000 C 
ATOM     17  C   UNL     1      42.544   5.454  12.040  0.00  0.00    +0.000 C 
BRANCH  15  18
ATOM     18  C   UNL     1      45.176   5.378  12.011  0.00  0.00    +0.000 A 
ATOM     19  C   UNL     1      45.723   6.617  11.645  0.00  0.00    +0.000 A 
ATOM     20  C   UNL     1      46.898   7.081  12.237  0.00  0.00    +0.000 A 
ATOM     21  C   UNL     1      47.518   6.284  13.183  0.00  0.00    +0.000 A 
ATOM     22  N   UNL     1      47.062   5.070  13.546  0.00  0.00    +0.000 NA
ATOM     23  C   UNL     1      45.918   4.651  12.947  0.00  0.00    +0.000 A 
ENDBRANCH  15  18
ENDBRANCH  13  15
ENDBRANCH   7  13
TORSDOF 4
ENDMDL
MODEL 4
REMARK VINA RESULT:    -6.195      3.045      5.998
REMARK INTER + INTRA:          -8.174
REMARK INTER:                  -7.822
REMARK INTRA:                  -0.352
REMARK UNBOUND:                -0.530
REMARK  Name = 
REMARK  5 active torsions:
REMARK  status: ('A' for Active; 'I' for Inactive)
REMARK    1  A    between atoms: C_1  and  C_2
REMARK    2  A    between atoms: C_4  and  C_5
REMARK    3  A    between atoms: C_10  and  N_11
REMARK    4  A    between atoms: N_11  and  C_12
REMARK    5  A    between atoms: C_12  and  C_13
REMARK                            x       y       z     vdW  Elec       q    Type
REMARK                         _______ _______ _______ _____ _____    ______ ____
ROOT
ATOM      1  C   UNL     1      46.988   4.339  14.931  0.00  0.00    +0.000 C 
ATOM      2  C   UNL     1      47.140   5.427  13.905  0.00  0.00    +0.000 A 
ATOM      3  C   UNL     1      48.201   6.337  14.075  0.00  0.00    +0.000 A 
ATOM      4  C   UNL     1      48.410   7.366  13.161  0.00  0.00    +0.000 A 
ATOM      5  C   UNL     1      47.543   7.422  12.088  0.00  0.00    +0.000 A 
ATOM      6  N   UNL     1      46.511   6.554  11.889  0.00  0.00    +0.000 NA
ATOM      7  C   UNL     1      46.295   5.573  12.787  0.00  0.00    +0.000 A 
ENDROOT
BRANCH   4   8
ATOM      8  C   UNL     1      49.520   8.318  13.402  0.00  0.00    +0.000 C 
ATOM      9  N   UNL     1      50.790   7.839  13.567  0.00  0.00    +0.000 N 
ATOM     10  O   UNL     1      49.317   9.527  13.445  0.00  0.00    +0.000 OA
ATOM     11  H   UNL     1      51.072   6.874  13.540  0.00  0.00    +0.000 HD
ATOM     12  H   UNL     1      51.513   8.537  13.707  0.00  0.00    +0.000 HD
ENDBRANCH   4   8
BRANCH   7  13
ATOM     13  N   UNL     1      45.257   4.633  12.558  0.00  0.00    +0.000 N 
ATOM     14  H   UNL     1      44.762   4.427  13.414  0.00  0.00    +0.000 HD
BRANCH  13  15
ATOM     15  C   UNL     1      44.329   4.682  11.400  0.00  0.00    +0.000 C 
ATOM     16  C   UNL     1      43.251   5.716  11.117  0.00  0.00    +0.000 C 
ATOM     17  C   UNL     1      42.864   4.427  11.761  0.00  0.00    +0.000 C 
BRANCH  15  18
ATOM     18  C   UNL     1      44.908   4.022  10.150  0.00  0.00    +0.000 A 
ATOM     19  C   UNL     1      44.940   2.633   9.954  0.00  0.00    +0.000 A 
ATOM     20  C   UNL     1      45.389   2.093   8.748  0.00  0.00    +0.000 A 
ATOM     21  C   UNL     1      45.814   2.958   7.756  0.00  0.00    +0.000 A 
ATOM     22  N   UNL     1      45.843   4.298   7.901  0.00  0.00    +0.000 NA
ATOM     23  C   UNL     1      45.402   4.786   9.088  0.00  0.00    +0.000 A 
ENDBRANCH  15  18
ENDBRANCH  13  15
ENDBRANCH   7  13
TORSDOF 4
ENDMDL
MODEL 5
REMARK VINA RESULT:    -6.060      3.225      5.281
REMARK INTER + INTRA:          -8.007
REMARK INTER:                  -7.379
REMARK INTRA:                  -0.628
REMARK UNBOUND:                -0.530
REMARK  Name = 
REMARK  5 active torsions:
REMARK  status: ('A' for Active; 'I' for Inactive)
REMARK    1  A    between atoms: C_1  and  C_2
REMARK    2  A    between atoms: C_4  and  C_5
REMARK    3  A    between atoms: C_10  and  N_11
REMARK    4  A    between atoms: N_11  and  C_12
REMARK    5  A    between atoms: C_12  and  C_13
REMARK                            x       y       z     vdW  Elec       q    Type
REMARK                         _______ _______ _______ _____ _____    ______ ____
ROOT
ATOM      1  C   UNL     1      47.022   4.467  14.555  0.00  0.00    +0.000 C 
ATOM      2  C   UNL     1      46.158   4.794  13.370  0.00  0.00    +0.000 A 
ATOM      3  C   UNL     1      45.458   3.735  12.763  0.00  0.00    +0.000 A 
ATOM      4  C   UNL     1      44.632   3.962  11.666  0.00  0.00    +0.000 A 
ATOM      5  C   UNL     1      44.526   5.269  11.235  0.00  0.00    +0.000 A 
ATOM      6  N   UNL     1      45.184   6.320  11.803  0.00  0.00    +0.000 NA
ATOM      7  C   UNL     1      46.001   6.095  12.850  0.00  0.00    +0.000 A 
ENDROOT
BRANCH   4   8
ATOM      8  C   UNL     1      43.942   2.807  11.042  0.00  0.00    +0.000 C 
ATOM      9  N   UNL     1      44.456   2.256   9.901  0.00  0.00    +0.000 N 
ATOM     10  O   UNL     1      42.927   2.333  11.541  0.00  0.00    +0.000 OA
ATOM     11  H   UNL     1      45.285   2.555   9.415  0.00  0.00    +0.000 HD
ATOM     12  H   UNL     1      43.956   1.455   9.531  0.00  0.00    +0.000 HD
ENDBRANCH   4   8
BRANCH   7  13
ATOM     13  N   UNL     1      46.646   7.190  13.481  0.00  0.00    +0.000 N 
ATOM     14  H   UNL     1      46.633   7.087  14.486  0.00  0.00    +0.000 HD
BRANCH  13  15
ATOM     15  C   UNL     1      47.928   7.781  13.019  0.00  0.00    +0.000 C 
ATOM     16  C   UNL     1      49.198   7.047  12.620  0.00  0.00    +0.000 C 
ATOM     17  C   UNL     1      49.088   7.605  14.000  0.00  0.00    +0.000 C 
BRANCH  15  18
ATOM     18  C   UNL     1      47.742   9.132  12.329  0.00  0.00    +0.000 A 
ATOM     19  C   UNL     1      48.773   9.803  11.655  0.00  0.00    +0.000 A 
ATOM     20  C   UNL     1      48.518  10.985  10.958  0.00  0.00    +0.000 A 
ATOM     21  C   UNL     1      47.228  11.485  10.959  0.00  0.00    +0.000 A 
ATOM     22  N   UNL     1      46.207  10.905  11.620  0.00  0.00    +0.000 NA
ATOM     23  C   UNL     1      46.493   9.759  12.289  0.00  0.00    +0.000 A 
ENDBRANCH  15  18
ENDBRANCH  13  15
ENDBRANCH   7  13
TORSDOF 4
ENDMDL
MODEL 6
REMARK VINA RESULT:    -5.677      3.745      5.909
REMARK INTER + INTRA:          -7.534
REMARK INTER:                  -6.828
REMARK INTRA:                  -0.706
REMARK UNBOUND:                -0.530
REMARK  Name = 
REMARK  5 active torsions:
REMARK  status: ('A' for Active; 'I' for Inactive)
REMARK    1  A    between atoms: C_1  and  C_2
REMARK    2  A    between atoms: C_4  and  C_5
REMARK    3  A    between atoms: C_10  and  N_11
REMARK    4  A    between atoms: N_11  and  C_12
REMARK    5  A    between atoms: C_12  and  C_13
REMARK                            x       y       z     vdW  Elec       q    Type
REMARK                         _______ _______ _______ _____ _____    ______ ____
ROOT
ATOM      1  C   UNL     1      46.922   4.621  14.678  0.00  0.00    +0.000 C 
ATOM      2  C   UNL     1      46.379   5.186  13.395  0.00  0.00    +0.000 A 
ATOM      3  C   UNL     1      45.031   4.924  13.089  0.00  0.00    +0.000 A 
ATOM      4  C   UNL     1      44.456   5.421  11.922  0.00  0.00    +0.000 A 
ATOM      5  C   UNL     1      45.269   6.190  11.115  0.00  0.00    +0.000 A 
ATOM      6  N   UNL     1      46.576   6.470  11.384  0.00  0.00    +0.000 NA
ATOM      7  C   UNL     1      47.137   5.969  12.502  0.00  0.00    +0.000 A 
ENDROOT
BRANCH   4   8
ATOM      8  C   UNL     1      43.041   5.088  11.628  0.00  0.00    +0.000 C 
ATOM      9  N   UNL     1      42.092   6.068  11.708  0.00  0.00    +0.000 N 
ATOM     10  O   UNL     1      42.715   3.952  11.303  0.00  0.00    +0.000 OA
ATOM     11  H   UNL     1      42.248   7.032  11.951  0.00  0.00    +0.000 HD
ATOM     12  H   UNL     1      41.145   5.789  11.475  0.00  0.00    +0.000 HD
ENDBRANCH   4   8
BRANCH   7  13
ATOM     13  N   UNL     1      48.480   6.300  12.818  0.00  0.00    +0.000 N 
ATOM     14  H   UNL     1      49.123   5.847  12.183  0.00  0.00    +0.000 HD
BRANCH  13  15
ATOM     15  C   UNL     1      48.942   7.670  13.161  0.00  0.00    +0.000 C 
ATOM     16  C   UNL     1      48.872   8.917  12.296  0.00  0.00    +0.000 C 
ATOM     17  C   UNL     1      50.148   8.146  12.350  0.00  0.00    +0.000 C 
BRANCH  15  18
ATOM     18  C   UNL     1      48.906   7.946  14.663  0.00  0.00    +0.000 A 
ATOM     19  C   UNL     1      48.244   9.046  15.231  0.00  0.00    +0.000 A 
ATOM     20  C   UNL     1      48.160   9.190  16.616  0.00  0.00    +0.000 A 
ATOM     21  C   UNL     1      48.757   8.232  17.416  0.00  0.00    +0.000 A 
ATOM     22  N   UNL     1      49.439   7.177  16.928  0.00  0.00    +0.000 NA
ATOM     23  C   UNL     1      49.502   7.071  15.577  0.00  0.00    +0.000 A 
ENDBRANCH  15  18
ENDBRANCH  13  15
ENDBRANCH   7  13
TORSDOF 4
ENDMDL
MODEL 7
REMARK VINA RESULT:    -5.632      4.620      7.664
REMARK INTER + INTRA:          -7.479
REMARK INTER:                  -7.048
REMARK INTRA:                  -0.431
REMARK UNBOUND:                -0.530
REMARK  Name = 
REMARK  5 active torsions:
REMARK  status: ('A' for Active; 'I' for Inactive)
REMARK    1  A    between atoms: C_1  and  C_2
REMARK    2  A    between atoms: C_4  and  C_5
REMARK    3  A    between atoms: C_10  and  N_11
REMARK    4  A    between atoms: N_11  and  C_12
REMARK    5  A    between atoms: C_12  and  C_13
REMARK                            x       y       z     vdW  Elec       q    Type
REMARK                         _______ _______ _______ _____ _____    ______ ____
ROOT
ATOM      1  C   UNL     1      48.638   6.358  17.009  0.00  0.00    +0.000 C 
ATOM      2  C   UNL     1      48.739   4.892  16.696  0.00  0.00    +0.000 A 
ATOM      3  C   UNL     1      49.783   4.169  17.302  0.00  0.00    +0.000 A 
ATOM      4  C   UNL     1      49.935   2.805  17.067  0.00  0.00    +0.000 A 
ATOM      5  C   UNL     1      49.002   2.216  16.238  0.00  0.00    +0.000 A 
ATOM      6  N   UNL     1      47.975   2.884  15.641  0.00  0.00    +0.000 NA
ATOM      7  C   UNL     1      47.843   4.208  15.851  0.00  0.00    +0.000 A 
ENDROOT
BRANCH   4   8
ATOM      8  C   UNL     1      51.072   2.095  17.702  0.00  0.00    +0.000 C 
ATOM      9  N   UNL     1      51.080   0.729  17.726  0.00  0.00    +0.000 N 
ATOM     10  O   UNL     1      52.008   2.716  18.194  0.00  0.00    +0.000 OA
ATOM     11  H   UNL     1      50.374   0.121  17.344  0.00  0.00    +0.000 HD
ATOM     12  H   UNL     1      51.891   0.297  18.153  0.00  0.00    +0.000 HD
ENDBRANCH   4   8
BRANCH   7  13
ATOM     13  N   UNL     1      46.745   4.900  15.278  0.00  0.00    +0.000 N 
ATOM     14  H   UNL     1      46.396   5.609  15.908  0.00  0.00    +0.000 HD
BRANCH  13  15
ATOM     15  C   UNL     1      46.697   5.365  13.868  0.00  0.00    +0.000 C 
ATOM     16  C   UNL     1      47.867   5.747  12.976  0.00  0.00    +0.000 C 
ATOM     17  C   UNL     1      47.110   6.825  13.676  0.00  0.00    +0.000 C 
BRANCH  15  18
ATOM     18  C   UNL     1      45.480   4.835  13.111  0.00  0.00    +0.000 A 
ATOM     19  C   UNL     1      45.474   3.618  12.414  0.00  0.00    +0.000 A 
ATOM     20  C   UNL     1      44.302   3.138  11.827  0.00  0.00    +0.000 A 
ATOM     21  C   UNL     1      43.151   3.898  11.937  0.00  0.00    +0.000 A 
ATOM     22  N   UNL     1      43.106   5.092  12.560  0.00  0.00    +0.000 NA
ATOM     23  C   UNL     1      44.265   5.527  13.117  0.00  0.00    +0.000 A 
ENDBRANCH  15  18
ENDBRANCH  13  15
ENDBRANCH   7  13
TORSDOF 4
ENDMDL
MODEL 8
REMARK VINA RESULT:    -5.336      3.413      5.481
REMARK INTER + INTRA:          -7.114
REMARK INTER:                  -6.965
REMARK INTRA:                  -0.149
REMARK UNBOUND:                -0.530
REMARK  Name = 
REMARK  5 active torsions:
REMARK  status: ('A' for Active; 'I' for Inactive)
REMARK    1  A    between atoms: C_1  and  C_2
REMARK    2  A    between atoms: C_4  and  C_5
REMARK    3  A    between atoms: C_10  and  N_11
REMARK    4  A    between atoms: N_11  and  C_12
REMARK    5  A    between atoms: C_12  and  C_13
REMARK                            x       y       z     vdW  Elec       q    Type
REMARK                         _______ _______ _______ _____ _____    ______ ____
ROOT
ATOM      1  C   UNL     1      47.073   4.376  14.639  0.00  0.00    +0.000 C 
ATOM      2  C   UNL     1      46.246   4.774  13.449  0.00  0.00    +0.000 A 
ATOM      3  C   UNL     1      45.556   3.754  12.767  0.00  0.00    +0.000 A 
ATOM      4  C   UNL     1      44.764   4.047  11.661  0.00  0.00    +0.000 A 
ATOM      5  C   UNL     1      44.680   5.376  11.298  0.00  0.00    +0.000 A 
ATOM      6  N   UNL     1      45.328   6.389  11.939  0.00  0.00    +0.000 NA
ATOM      7  C   UNL     1      46.114   6.101  12.995  0.00  0.00    +0.000 A 
ENDROOT
BRANCH   4   8
ATOM      8  C   UNL     1      44.084   2.933  10.957  0.00  0.00    +0.000 C 
ATOM      9  N   UNL     1      44.699   2.340   9.889  0.00  0.00    +0.000 N 
ATOM     10  O   UNL     1      42.986   2.530  11.325  0.00  0.00    +0.000 OA
ATOM     11  H   UNL     1      45.600   2.580   9.511  0.00  0.00    +0.000 HD
ATOM     12  H   UNL     1      44.199   1.569   9.460  0.00  0.00    +0.000 HD
ENDBRANCH   4   8
BRANCH   7  13
ATOM     13  N   UNL     1      46.748   7.156  13.702  0.00  0.00    +0.000 N 
ATOM     14  H   UNL     1      46.819   6.939  14.687  0.00  0.00    +0.000 HD
BRANCH  13  15
ATOM     15  C   UNL     1      47.958   7.871  13.222  0.00  0.00    +0.000 C 
ATOM     16  C   UNL     1      48.467   7.980  11.794  0.00  0.00    +0.000 C 
ATOM     17  C   UNL     1      49.062   6.951  12.696  0.00  0.00    +0.000 C 
BRANCH  15  18
ATOM     18  C   UNL     1      48.341   9.050  14.115  0.00  0.00    +0.000 A 
ATOM     19  C   UNL     1      48.246   9.021  15.515  0.00  0.00    +0.000 A 
ATOM     20  C   UNL     1      48.706  10.092  16.283  0.00  0.00    +0.000 A 
ATOM     21  C   UNL     1      49.245  11.187  15.631  0.00  0.00    +0.000 A 
ATOM     22  N   UNL     1      49.326  11.287  14.290  0.00  0.00    +0.000 NA
ATOM     23  C   UNL     1      48.867  10.228  13.576  0.00  0.00    +0.000 A 
ENDBRANCH  15  18
ENDBRANCH  13  15
ENDBRANCH   7  13
TORSDOF 4
ENDMDL
MODEL 9
REMARK VINA RESULT:    -5.321      4.364      6.683
REMARK INTER + INTRA:          -7.095
REMARK INTER:                  -6.536
REMARK INTRA:                  -0.558
REMARK UNBOUND:                -0.530
REMARK  Name = 
REMARK  5 active torsions:
REMARK  status: ('A' for Active; 'I' for Inactive)
REMARK    1  A    between atoms: C_1  and  C_2
REMARK    2  A    between atoms: C_4  and  C_5
REMARK    3  A    between atoms: C_10  and  N_11
REMARK    4  A    between atoms: N_11  and  C_12
REMARK    5  A    between atoms: C_12  and  C_13
REMARK                            x       y       z     vdW  Elec       q    Type
REMARK                         _______ _______ _______ _____ _____    ______ ____
ROOT
ATOM      1  C   UNL     1      46.353   8.408  12.742  0.00  0.00    +0.000 C 
ATOM      2  C   UNL     1      46.406   6.943  13.071  0.00  0.00    +0.000 A 
ATOM      3  C   UNL     1      45.251   6.178  12.824  0.00  0.00    +0.000 A 
ATOM      4  C   UNL     1      45.228   4.813  13.096  0.00  0.00    +0.000 A 
ATOM      5  C   UNL     1      46.394   4.264  13.590  0.00  0.00    +0.000 A 
ATOM      6  N   UNL     1      47.533   4.972  13.834  0.00  0.00    +0.000 NA
ATOM      7  C   UNL     1      47.546   6.298  13.593  0.00  0.00    +0.000 A 
ENDROOT
BRANCH   4   8
ATOM      8  C   UNL     1      43.975   4.059  12.850  0.00  0.00    +0.000 C 
ATOM      9  N   UNL     1      44.042   2.728  12.545  0.00  0.00    +0.000 N 
ATOM     10  O   UNL     1      42.882   4.610  12.927  0.00  0.00    +0.000 OA
ATOM     11  H   UNL     1      44.879   2.175  12.468  0.00  0.00    +0.000 HD
ATOM     12  H   UNL     1      43.154   2.259  12.409  0.00  0.00    +0.000 HD
ENDBRANCH   4   8
BRANCH   7  13
ATOM     13  N   UNL     1      48.744   7.032  13.792  0.00  0.00    +0.000 N 
ATOM     14  H   UNL     1      48.926   7.645  13.010  0.00  0.00    +0.000 HD
BRANCH  13  15
ATOM     15  C   UNL     1      49.123   7.674  15.076  0.00  0.00    +0.000 C 
ATOM     16  C   UNL     1      48.445   8.849  15.764  0.00  0.00    +0.000 C 
ATOM     17  C   UNL     1      49.656   9.100  14.930  0.00  0.00    +0.000 C 
BRANCH  15  18
ATOM     18  C   UNL     1      49.832   6.714  16.031  0.00  0.00    +0.000 A 
ATOM     19  C   UNL     1      51.228   6.601  16.116  0.00  0.00    +0.000 A 
ATOM     20  C   UNL     1      51.819   5.780  17.078  0.00  0.00    +0.000 A 
ATOM     21  C   UNL     1      50.996   5.071  17.934  0.00  0.00    +0.000 A 
ATOM     22  N   UNL     1      49.650   5.109  17.874  0.00  0.00    +0.000 NA
ATOM     23  C   UNL     1      49.111   5.916  16.925  0.00  0.00    +0.000 A 
ENDBRANCH  15  18
ENDBRANCH  13  15
ENDBRANCH   7  13
TORSDOF 4
ENDMDL
