MODEL 1
REMARK VINA RESULT:    -8.661      0.000      0.000
REMARK INTER + INTRA:         -14.242
REMARK INTER:                 -13.218
REMARK INTRA:                  -1.024
REMARK UNBOUND:                -1.024
REMARK  Name = 
REMARK  10 active torsions:
REMARK  status: ('A' for Active; 'I' for Inactive)
REMARK    1  A    between atoms: C_1  and  C_2
REMARK    2  A    between atoms: C_2  and  O_3
REMARK    3  A    between atoms: O_3  and  C_4
REMARK    4  A    between atoms: C_4  and  C_6
REMARK    5  A    between atoms: C_9  and  C_10
REMARK    6  A    between atoms: C_10  and  N_11
REMARK    7  A    between atoms: C_12  and  C_14
REMARK    8  A    between atoms: C_25  and  C_26
REMARK    9  A    between atoms: C_26  and  N_27
REMARK   10  A    between atoms: C_28  and  C_30
REMARK                            x       y       z     vdW  Elec       q    Type
REMARK                         _______ _______ _______ _____ _____    ______ ____
ROOT
ATOM      1  C   UNL     1      44.912   6.454  12.057  0.00  0.00    +0.000 A 
ATOM      2  C   UNL     1      45.953   6.714  12.971  0.00  0.00    +0.000 A 
ATOM      3  C   UNL     1      46.618   5.679  13.617  0.00  0.00    +0.000 A 
ATOM      4  C   UNL     1      46.234   4.360  13.391  0.00  0.00    +0.000 A 
ATOM      5  C   UNL     1      45.254   4.091  12.422  0.00  0.00    +0.000 A 
ATOM      6  C   UNL     1      44.610   5.126  11.711  0.00  0.00    +0.000 A 
ENDROOT
BRANCH   1   7
ATOM      7  C   UNL     1      44.213   7.623  11.447  0.00  0.00    +0.000 C 
ATOM      8  O   UNL     1      43.070   7.629  11.027  0.00  0.00    +0.000 OA
BRANCH   7   9
ATOM      9  O   UNL     1      45.092   8.655  11.357  0.00  0.00    +0.000 OA
BRANCH   9  11
ATOM     10  C   UNL     1      45.670  10.936  11.689  0.00  0.00    +0.000 C 
ATOM     11  C   UNL     1      44.523   9.945  11.589  0.00  0.00    +0.000 C 
ENDBRANCH   9  11
ENDBRANCH   7   9
ENDBRANCH   1   7
BRANCH   4  12
ATOM     12  C   UNL     1      46.897   3.249  14.155  0.00  0.00    +0.000 C 
BRANCH  12  13
ATOM     13  N   UNL     1      47.792   3.761  15.157  0.00  0.00    +0.000 N 
ATOM     14  C   UNL     1      47.530   3.722  16.500  0.00  0.00    +0.000 C 
ATOM     15  O   UNL     1      46.495   3.252  16.962  0.00  0.00    +0.000 OA
ATOM     16  H   UNL     1      48.527   4.368  14.814  0.00  0.00    +0.000 HD
BRANCH  14  17
ATOM     17  C   UNL     1      48.610   4.208  17.369  0.00  0.00    +0.000 A 
ATOM     18  C   UNL     1      48.438   5.368  18.112  0.00  0.00    +0.000 A 
ATOM     19  S   UNL     1      49.769   5.735  19.115  0.00  0.00    +0.000 S 
ATOM     20  C   UNL     1      50.641   4.389  18.549  0.00  0.00    +0.000 A 
ATOM     21  N   UNL     1      51.899   4.125  19.000  0.00  0.00    +0.000 NA
ATOM     22  C   UNL     1      52.449   3.085  18.468  0.00  0.00    +0.000 A 
ATOM     23  N   UNL     1      51.857   2.283  17.527  0.00  0.00    +0.000 N 
ATOM     24  C   UNL     1      50.575   2.483  17.074  0.00  0.00    +0.000 A 
ATOM     25  O   UNL     1      50.053   1.696  16.300  0.00  0.00    +0.000 OA
ATOM     26  C   UNL     1      49.919   3.654  17.626  0.00  0.00    +0.000 A 
ATOM     27  H   UNL     1      52.334   1.472  17.160  0.00  0.00    +0.000 HD
ENDBRANCH  14  17
ENDBRANCH  12  13
ENDBRANCH   4  12
BRANCH   6  28
ATOM     28  C   UNL     1      43.638   4.734  10.627  0.00  0.00    +0.000 C 
BRANCH  28  29
ATOM     29  N   UNL     1      44.246   3.890   9.633  0.00  0.00    +0.000 N 
ATOM     30  C   UNL     1      45.204   4.338   8.753  0.00  0.00    +0.000 C 
ATOM     31  O   UNL     1      45.674   5.473   8.773  0.00  0.00    +0.000 OA
ATOM     32  H   UNL     1      44.117   2.886   9.692  0.00  0.00    +0.000 HD
BRANCH  30  33
ATOM     33  C   UNL     1      45.632   3.283   7.712  0.00  0.00    +0.000 C 
ATOM     34  C   UNL     1      46.196   2.034   8.407  0.00  0.00    +0.000 C 
ATOM     35  C   UNL     1      46.733   1.025   7.396  0.00  0.00    +0.000 C 
ATOM     36  C   UNL     1      47.707   1.697   6.433  0.00  0.00    +0.000 C 
ATOM     37  C   UNL     1      47.084   2.936   5.797  0.00  0.00    +0.000 C 
ATOM     38  N   UNL     1      46.643   3.891   6.815  0.00  0.00    +0.000 NA
ATOM     39  H   UNL     1      46.211   4.693   6.351  0.00  0.00    +0.000 HD
ENDBRANCH  30  33
ENDBRANCH  28  29
ENDBRANCH   6  28
TORSDOF 9
ENDMDL
MODEL 2
REMARK VINA RESULT:    -8.456      4.931      6.574
REMARK INTER + INTRA:         -13.928
REMARK INTER:                 -12.448
REMARK INTRA:                  -1.481
REMARK UNBOUND:                -1.024
REMARK  Name = 
REMARK  10 active torsions:
REMARK  status: ('A' for Active; 'I' for Inactive)
REMARK    1  A    between atoms: C_1  and  C_2
REMARK    2  A    between atoms: C_2  and  O_3
REMARK    3  A    between atoms: O_3  and  C_4
REMARK    4  A    between atoms: C_4  and  C_6
REMARK    5  A    between atoms: C_9  and  C_10
REMARK    6  A    between atoms: C_10  and  N_11
REMARK    7  A    between atoms: C_12  and  C_14
REMARK    8  A    between atoms: C_25  and  C_26
REMARK    9  A    between atoms: C_26  and  N_27
REMARK   10  A    between atoms: C_28  and  C_30
REMARK                            x       y       z     vdW  Elec       q    Type
REMARK                         _______ _______ _______ _____ _____    ______ ____
ROOT
ATOM      1  C   UNL     1      46.612   5.536  12.663  0.00  0.00    +0.000 A 
ATOM      2  C   UNL     1      47.637   5.802  13.594  0.00  0.00    +0.000 A 
ATOM      3  C   UNL     1      48.663   6.691  13.300  0.00  0.00    +0.000 A 
ATOM      4  C   UNL     1      48.708   7.311  12.054  0.00  0.00    +0.000 A 
ATOM      5  C   UNL     1      47.648   7.113  11.154  0.00  0.00    +0.000 A 
ATOM      6  C   UNL     1      46.566   6.261  11.460  0.00  0.00    +0.000 A 
ENDROOT
BRANCH   1   7
ATOM      7  C   UNL     1      45.578   4.527  13.036  0.00  0.00    +0.000 C 
ATOM      8  O   UNL     1      45.665   3.324  12.869  0.00  0.00    +0.000 OA
BRANCH   7   9
ATOM      9  O   UNL     1      44.486   5.181  13.511  0.00  0.00    +0.000 OA
BRANCH   9  11
ATOM     10  C   UNL     1      42.502   5.491  12.241  0.00  0.00    +0.000 C 
ATOM     11  C   UNL     1      43.237   4.564  13.193  0.00  0.00    +0.000 C 
ENDBRANCH   9  11
ENDBRANCH   7   9
ENDBRANCH   1   7
BRANCH   4  12
ATOM     12  C   UNL     1      49.864   8.206  11.708  0.00  0.00    +0.000 C 
BRANCH  12  13
ATOM     13  N   UNL     1      51.013   7.447  11.298  0.00  0.00    +0.000 N 
ATOM     14  C   UNL     1      51.994   7.937  10.477  0.00  0.00    +0.000 C 
ATOM     15  O   UNL     1      51.966   9.072  10.012  0.00  0.00    +0.000 OA
ATOM     16  H   UNL     1      50.952   6.448  11.452  0.00  0.00    +0.000 HD
BRANCH  14  17
ATOM     17  C   UNL     1      53.135   7.041  10.250  0.00  0.00    +0.000 A 
ATOM     18  C   UNL     1      54.075   6.841  11.252  0.00  0.00    +0.000 A 
ATOM     19  S   UNL     1      55.286   5.714  10.833  0.00  0.00    +0.000 S 
ATOM     20  C   UNL     1      54.626   5.497   9.279  0.00  0.00    +0.000 A 
ATOM     21  N   UNL     1      55.208   4.655   8.380  0.00  0.00    +0.000 NA
ATOM     22  C   UNL     1      54.614   4.606   7.235  0.00  0.00    +0.000 A 
ATOM     23  N   UNL     1      53.491   5.319   6.906  0.00  0.00    +0.000 N 
ATOM     24  C   UNL     1      52.844   6.147   7.792  0.00  0.00    +0.000 A 
ATOM     25  O   UNL     1      51.797   6.698   7.488  0.00  0.00    +0.000 OA
ATOM     26  C   UNL     1      53.485   6.254   9.090  0.00  0.00    +0.000 A 
ATOM     27  H   UNL     1      53.062   5.225   5.996  0.00  0.00    +0.000 HD
ENDBRANCH  14  17
ENDBRANCH  12  13
ENDBRANCH   4  12
BRANCH   6  28
ATOM     28  C   UNL     1      45.432   6.183  10.470  0.00  0.00    +0.000 C 
BRANCH  28  29
ATOM     29  N   UNL     1      45.705   5.256   9.403  0.00  0.00    +0.000 N 
ATOM     30  C   UNL     1      44.867   4.213   9.083  0.00  0.00    +0.000 C 
ATOM     31  O   UNL     1      43.786   4.012   9.630  0.00  0.00    +0.000 OA
ATOM     32  H   UNL     1      46.434   5.475   8.733  0.00  0.00    +0.000 HD
BRANCH  30  33
ATOM     33  C   UNL     1      45.418   3.293   7.974  0.00  0.00    +0.000 C 
ATOM     34  C   UNL     1      46.038   2.026   8.580  0.00  0.00    +0.000 C 
ATOM     35  C   UNL     1      46.693   1.156   7.510  0.00  0.00    +0.000 C 
ATOM     36  C   UNL     1      47.658   1.980   6.665  0.00  0.00    +0.000 C 
ATOM     37  C   UNL     1      46.977   3.229   6.113  0.00  0.00    +0.000 C 
ATOM     38  N   UNL     1      46.422   4.052   7.190  0.00  0.00    +0.000 NA
ATOM     39  H   UNL     1      45.954   4.862   6.779  0.00  0.00    +0.000 HD
ENDBRANCH  30  33
ENDBRANCH  28  29
ENDBRANCH   6  28
TORSDOF 9
ENDMDL
MODEL 3
REMARK VINA RESULT:    -8.275      3.211      7.091
REMARK INTER + INTRA:         -13.652
REMARK INTER:                 -11.433
REMARK INTRA:                  -2.219
REMARK UNBOUND:                -1.024
REMARK  Name = 
REMARK  10 active torsions:
REMARK  status: ('A' for Active; 'I' for Inactive)
REMARK    1  A    between atoms: C_1  and  C_2
REMARK    2  A    between atoms: C_2  and  O_3
REMARK    3  A    between atoms: O_3  and  C_4
REMARK    4  A    between atoms: C_4  and  C_6
REMARK    5  A    between atoms: C_9  and  C_10
REMARK    6  A    between atoms: C_10  and  N_11
REMARK    7  A    between atoms: C_12  and  C_14
REMARK    8  A    between atoms: C_25  and  C_26
REMARK    9  A    between atoms: C_26  and  N_27
REMARK   10  A    between atoms: C_28  and  C_30
REMARK                            x       y       z     vdW  Elec       q    Type
REMARK                         _______ _______ _______ _____ _____    ______ ____
ROOT
ATOM      1  C   UNL     1      44.210   5.075  12.083  0.00  0.00    +0.000 A 
ATOM      2  C   UNL     1      43.571   6.083  11.333  0.00  0.00    +0.000 A 
ATOM      3  C   UNL     1      44.018   7.398  11.368  0.00  0.00    +0.000 A 
ATOM      4  C   UNL     1      45.095   7.743  12.180  0.00  0.00    +0.000 A 
ATOM      5  C   UNL     1      45.786   6.731  12.865  0.00  0.00    +0.000 A 
ATOM      6  C   UNL     1      45.384   5.380  12.794  0.00  0.00    +0.000 A 
ENDROOT
BRANCH   1   7
ATOM      7  C   UNL     1      43.635   3.699  12.032  0.00  0.00    +0.000 C 
ATOM      8  O   UNL     1      43.453   2.969  12.989  0.00  0.00    +0.000 OA
BRANCH   7   9
ATOM      9  O   UNL     1      43.430   3.362  10.732  0.00  0.00    +0.000 OA
BRANCH   9  11
ATOM     10  C   UNL     1      44.663   3.501   8.705  0.00  0.00    +0.000 C 
ATOM     11  C   UNL     1      44.579   2.832  10.066  0.00  0.00    +0.000 C 
ENDBRANCH   9  11
ENDBRANCH   7   9
ENDBRANCH   1   7
BRANCH   4  12
ATOM     12  C   UNL     1      45.522   9.181  12.281  0.00  0.00    +0.000 C 
BRANCH  12  13
ATOM     13  N   UNL     1      46.598   9.346  13.219  0.00  0.00    +0.000 N 
ATOM     14  C   UNL     1      47.911   9.474  12.853  0.00  0.00    +0.000 C 
ATOM     15  O   UNL     1      48.281   9.447  11.684  0.00  0.00    +0.000 OA
ATOM     16  H   UNL     1      46.372   9.129  14.183  0.00  0.00    +0.000 HD
BRANCH  14  17
ATOM     17  C   UNL     1      48.851   9.729  13.952  0.00  0.00    +0.000 A 
ATOM     18  C   UNL     1      49.051  11.024  14.413  0.00  0.00    +0.000 A 
ATOM     19  S   UNL     1      50.121  11.116  15.739  0.00  0.00    +0.000 S 
ATOM     20  C   UNL     1      50.397   9.437  15.706  0.00  0.00    +0.000 A 
ATOM     21  N   UNL     1      51.251   8.848  16.589  0.00  0.00    +0.000 NA
ATOM     22  C   UNL     1      51.381   7.573  16.434  0.00  0.00    +0.000 A 
ATOM     23  N   UNL     1      50.735   6.832  15.479  0.00  0.00    +0.000 N 
ATOM     24  C   UNL     1      49.831   7.373  14.596  0.00  0.00    +0.000 A 
ATOM     25  O   UNL     1      49.211   6.665  13.818  0.00  0.00    +0.000 OA
ATOM     26  C   UNL     1      49.666   8.811  14.715  0.00  0.00    +0.000 A 
ATOM     27  H   UNL     1      50.866   5.832  15.419  0.00  0.00    +0.000 HD
ENDBRANCH  14  17
ENDBRANCH  12  13
ENDBRANCH   4  12
BRANCH   6  28
ATOM     28  C   UNL     1      46.241   4.354  13.490  0.00  0.00    +0.000 C 
BRANCH  28  29
ATOM     29  N   UNL     1      46.822   4.866  14.703  0.00  0.00    +0.000 N 
ATOM     30  C   UNL     1      47.544   4.085  15.576  0.00  0.00    +0.000 C 
ATOM     31  O   UNL     1      47.811   2.903  15.376  0.00  0.00    +0.000 OA
ATOM     32  H   UNL     1      46.877   5.870  14.840  0.00  0.00    +0.000 HD
BRANCH  30  33
ATOM     33  C   UNL     1      47.979   4.827  16.857  0.00  0.00    +0.000 C 
ATOM     34  C   UNL     1      49.225   4.167  17.467  0.00  0.00    +0.000 C 
ATOM     35  C   UNL     1      49.605   4.812  18.797  0.00  0.00    +0.000 C 
ATOM     36  C   UNL     1      48.402   4.859  19.734  0.00  0.00    +0.000 C 
ATOM     37  C   UNL     1      47.201   5.510  19.053  0.00  0.00    +0.000 C 
ATOM     38  N   UNL     1      46.849   4.811  17.816  0.00  0.00    +0.000 NA
ATOM     39  H   UNL     1      46.059   5.291  17.379  0.00  0.00    +0.000 HD
ENDBRANCH  30  33
ENDBRANCH  28  29
ENDBRANCH   6  28
TORSDOF 9
ENDMDL
MODEL 4
REMARK VINA RESULT:    -8.251      2.788      3.587
REMARK INTER + INTRA:         -13.616
REMARK INTER:                 -12.109
REMARK INTRA:                  -1.507
REMARK UNBOUND:                -1.024
REMARK  Name = 
REMARK  10 active torsions:
REMARK  status: ('A' for Active; 'I' for Inactive)
REMARK    1  A    between atoms: C_1  and  C_2
REMARK    2  A    between atoms: C_2  and  O_3
REMARK    3  A    between atoms: O_3  and  C_4
REMARK    4  A    between atoms: C_4  and  C_6
REMARK    5  A    between atoms: C_9  and  C_10
REMARK    6  A    between atoms: C_10  and  N_11
REMARK    7  A    between atoms: C_12  and  C_14
REMARK    8  A    between atoms: C_25  and  C_26
REMARK    9  A    between atoms: C_26  and  N_27
REMARK   10  A    between atoms: C_28  and  C_30
REMARK                            x       y       z     vdW  Elec       q    Type
REMARK                         _______ _______ _______ _____ _____    ______ ____
ROOT
ATOM      1  C   UNL     1      46.193   5.098  12.672  0.00  0.00    +0.000 A 
ATOM      2  C   UNL     1      46.982   5.192  13.836  0.00  0.00    +0.000 A 
ATOM      3  C   UNL     1      47.996   6.136  13.944  0.00  0.00    +0.000 A 
ATOM      4  C   UNL     1      48.268   6.987  12.876  0.00  0.00    +0.000 A 
ATOM      5  C   UNL     1      47.434   6.953  11.747  0.00  0.00    +0.000 A 
ATOM      6  C   UNL     1      46.362   6.043  11.644  0.00  0.00    +0.000 A 
ENDROOT
BRANCH   1   7
ATOM      7  C   UNL     1      45.161   4.022  12.615  0.00  0.00    +0.000 C 
ATOM      8  O   UNL     1      45.333   2.894  12.189  0.00  0.00    +0.000 OA
BRANCH   7   9
ATOM      9  O   UNL     1      43.975   4.536  13.034  0.00  0.00    +0.000 OA
BRANCH   9  11
ATOM     10  C   UNL     1      42.227   5.662  11.885  0.00  0.00    +0.000 C 
ATOM     11  C   UNL     1      42.882   4.316  12.140  0.00  0.00    +0.000 C 
ENDBRANCH   9  11
ENDBRANCH   7   9
ENDBRANCH   1   7
BRANCH   4  12
ATOM     12  C   UNL     1      49.420   7.948  12.964  0.00  0.00    +0.000 C 
BRANCH  12  13
ATOM     13  N   UNL     1      50.480   7.427  13.782  0.00  0.00    +0.000 N 
ATOM     14  C   UNL     1      50.700   7.814  15.077  0.00  0.00    +0.000 C 
ATOM     15  O   UNL     1      50.010   8.653  15.647  0.00  0.00    +0.000 OA
ATOM     16  H   UNL     1      51.208   6.928  13.285  0.00  0.00    +0.000 HD
BRANCH  14  17
ATOM     17  C   UNL     1      51.773   7.096  15.778  0.00  0.00    +0.000 A 
ATOM     18  C   UNL     1      53.101   7.433  15.551  0.00  0.00    +0.000 A 
ATOM     19  S   UNL     1      54.200   6.543  16.505  0.00  0.00    +0.000 S 
ATOM     20  C   UNL     1      52.943   5.639  17.212  0.00  0.00    +0.000 A 
ATOM     21  N   UNL     1      53.206   4.665  18.128  0.00  0.00    +0.000 NA
ATOM     22  C   UNL     1      52.161   4.047  18.563  0.00  0.00    +0.000 A 
ATOM     23  N   UNL     1      50.875   4.313  18.170  0.00  0.00    +0.000 N 
ATOM     24  C   UNL     1      50.556   5.314  17.284  0.00  0.00    +0.000 A 
ATOM     25  O   UNL     1      49.392   5.576  17.025  0.00  0.00    +0.000 OA
ATOM     26  C   UNL     1      51.701   6.026  16.746  0.00  0.00    +0.000 A 
ATOM     27  H   UNL     1      50.095   3.804  18.561  0.00  0.00    +0.000 HD
ENDBRANCH  14  17
ENDBRANCH  12  13
ENDBRANCH   4  12
BRANCH   6  28
ATOM     28  C   UNL     1      45.468   6.144  10.435  0.00  0.00    +0.000 C 
BRANCH  28  29
ATOM     29  N   UNL     1      45.823   5.191   9.417  0.00  0.00    +0.000 N 
ATOM     30  C   UNL     1      44.901   4.388   8.786  0.00  0.00    +0.000 C 
ATOM     31  O   UNL     1      43.690   4.451   8.985  0.00  0.00    +0.000 OA
ATOM     32  H   UNL     1      46.748   5.233   9.001  0.00  0.00    +0.000 HD
BRANCH  30  33
ATOM     33  C   UNL     1      45.527   3.375   7.806  0.00  0.00    +0.000 C 
ATOM     34  C   UNL     1      45.991   2.115   8.553  0.00  0.00    +0.000 C 
ATOM     35  C   UNL     1      46.718   1.149   7.623  0.00  0.00    +0.000 C 
ATOM     36  C   UNL     1      47.829   1.868   6.864  0.00  0.00    +0.000 C 
ATOM     37  C   UNL     1      47.297   3.115   6.164  0.00  0.00    +0.000 C 
ATOM     38  N   UNL     1      46.664   4.030   7.117  0.00  0.00    +0.000 NA
ATOM     39  H   UNL     1      46.300   4.838   6.607  0.00  0.00    +0.000 HD
ENDBRANCH  30  33
ENDBRANCH  28  29
ENDBRANCH   6  28
TORSDOF 9
ENDMDL
MODEL 5
REMARK VINA RESULT:    -8.126      3.156      4.273
REMARK INTER + INTRA:         -13.426
REMARK INTER:                 -11.621
REMARK INTRA:                  -1.804
REMARK UNBOUND:                -1.024
REMARK  Name = 
REMARK  10 active torsions:
REMARK  status: ('A' for Active; 'I' for Inactive)
REMARK    1  A    between atoms: C_1  and  C_2
REMARK    2  A    between atoms: C_2  and  O_3
REMARK    3  A    between atoms: O_3  and  C_4
REMARK    4  A    between atoms: C_4  and  C_6
REMARK    5  A    between atoms: C_9  and  C_10
REMARK    6  A    between atoms: C_10  and  N_11
REMARK    7  A    between atoms: C_12  and  C_14
REMARK    8  A    between atoms: C_25  and  C_26
REMARK    9  A    between atoms: C_26  and  N_27
REMARK   10  A    between atoms: C_28  and  C_30
REMARK                            x       y       z     vdW  Elec       q    Type
REMARK                         _______ _______ _______ _____ _____    ______ ____
ROOT
ATOM      1  C   UNL     1      46.180   5.606  12.350  0.00  0.00    +0.000 A 
ATOM      2  C   UNL     1      47.050   6.525  12.973  0.00  0.00    +0.000 A 
ATOM      3  C   UNL     1      47.670   6.224  14.180  0.00  0.00    +0.000 A 
ATOM      4  C   UNL     1      47.408   5.011  14.811  0.00  0.00    +0.000 A 
ATOM      5  C   UNL     1      46.607   4.060  14.157  0.00  0.00    +0.000 A 
ATOM      6  C   UNL     1      46.018   4.324  12.902  0.00  0.00    +0.000 A 
ENDROOT
BRANCH   1   7
ATOM      7  C   UNL     1      45.513   6.028  11.084  0.00  0.00    +0.000 C 
ATOM      8  O   UNL     1      45.974   5.907   9.963  0.00  0.00    +0.000 OA
BRANCH   7   9
ATOM      9  O   UNL     1      44.346   6.649  11.395  0.00  0.00    +0.000 OA
BRANCH   9  11
ATOM     10  C   UNL     1      42.490   5.405  12.204  0.00  0.00    +0.000 C 
ATOM     11  C   UNL     1      43.171   5.959  10.964  0.00  0.00    +0.000 C 
ENDBRANCH   9  11
ENDBRANCH   7   9
ENDBRANCH   1   7
BRANCH   4  12
ATOM     12  C   UNL     1      48.013   4.725  16.156  0.00  0.00    +0.000 C 
BRANCH  12  13
ATOM     13  N   UNL     1      47.713   5.766  17.100  0.00  0.00    +0.000 N 
ATOM     14  C   UNL     1      48.572   6.165  18.089  0.00  0.00    +0.000 C 
ATOM     15  O   UNL     1      49.674   5.654  18.258  0.00  0.00    +0.000 OA
ATOM     16  H   UNL     1      46.738   6.038  17.154  0.00  0.00    +0.000 HD
BRANCH  14  17
ATOM     17  C   UNL     1      48.123   7.309  18.893  0.00  0.00    +0.000 A 
ATOM     18  C   UNL     1      47.824   7.142  20.238  0.00  0.00    +0.000 A 
ATOM     19  S   UNL     1      47.390   8.593  21.024  0.00  0.00    +0.000 S 
ATOM     20  C   UNL     1      47.533   9.484  19.581  0.00  0.00    +0.000 A 
ATOM     21  N   UNL     1      47.274  10.821  19.551  0.00  0.00    +0.000 NA
ATOM     22  C   UNL     1      47.400  11.363  18.386  0.00  0.00    +0.000 A 
ATOM     23  N   UNL     1      47.764  10.692  17.248  0.00  0.00    +0.000 N 
ATOM     24  C   UNL     1      48.077   9.353  17.236  0.00  0.00    +0.000 A 
ATOM     25  O   UNL     1      48.480   8.811  16.218  0.00  0.00    +0.000 OA
ATOM     26  C   UNL     1      47.929   8.692  18.519  0.00  0.00    +0.000 A 
ATOM     27  H   UNL     1      47.862  11.176  16.367  0.00  0.00    +0.000 HD
ENDBRANCH  14  17
ENDBRANCH  12  13
ENDBRANCH   4  12
BRANCH   6  28
ATOM     28  C   UNL     1      45.251   3.209  12.239  0.00  0.00    +0.000 C 
BRANCH  28  29
ATOM     29  N   UNL     1      45.569   3.088  10.841  0.00  0.00    +0.000 N 
ATOM     30  C   UNL     1      44.663   2.659   9.899  0.00  0.00    +0.000 C 
ATOM     31  O   UNL     1      43.488   2.399  10.150  0.00  0.00    +0.000 OA
ATOM     32  H   UNL     1      46.422   3.511  10.490  0.00  0.00    +0.000 HD
BRANCH  30  33
ATOM     33  C   UNL     1      45.260   2.511   8.485  0.00  0.00    +0.000 C 
ATOM     34  C   UNL     1      46.181   1.284   8.412  0.00  0.00    +0.000 C 
ATOM     35  C   UNL     1      46.874   1.185   7.055  0.00  0.00    +0.000 C 
ATOM     36  C   UNL     1      47.560   2.501   6.705  0.00  0.00    +0.000 C 
ATOM     37  C   UNL     1      46.588   3.673   6.817  0.00  0.00    +0.000 C 
ATOM     38  N   UNL     1      46.003   3.751   8.157  0.00  0.00    +0.000 NA
ATOM     39  H   UNL     1      45.342   4.531   8.184  0.00  0.00    +0.000 HD
ENDBRANCH  30  33
ENDBRANCH  28  29
ENDBRANCH   6  28
TORSDOF 9
ENDMDL
MODEL 6
REMARK VINA RESULT:    -8.072      2.361      3.563
REMARK INTER + INTRA:         -13.342
REMARK INTER:                 -11.937
REMARK INTRA:                  -1.405
REMARK UNBOUND:                -1.024
REMARK  Name = 
REMARK  10 active torsions:
REMARK  status: ('A' for Active; 'I' for Inactive)
REMARK    1  A    between atoms: C_1  and  C_2
REMARK    2  A    between atoms: C_2  and  O_3
REMARK    3  A    between atoms: O_3  and  C_4
REMARK    4  A    between atoms: C_4  and  C_6
REMARK    5  A    between atoms: C_9  and  C_10
REMARK    6  A    between atoms: C_10  and  N_11
REMARK    7  A    between atoms: C_12  and  C_14
REMARK    8  A    between atoms: C_25  and  C_26
REMARK    9  A    between atoms: C_26  and  N_27
REMARK   10  A    between atoms: C_28  and  C_30
REMARK                            x       y       z     vdW  Elec       q    Type
REMARK                         _______ _______ _______ _____ _____    ______ ____
ROOT
ATOM      1  C   UNL     1      45.726   9.486  11.785  0.00  0.00    +0.000 A 
ATOM      2  C   UNL     1      46.956  10.176  11.763  0.00  0.00    +0.000 A 
ATOM      3  C   UNL     1      48.160   9.505  11.940  0.00  0.00    +0.000 A 
ATOM      4  C   UNL     1      48.162   8.133  12.176  0.00  0.00    +0.000 A 
ATOM      5  C   UNL     1      46.949   7.428  12.118  0.00  0.00    +0.000 A 
ATOM      6  C   UNL     1      45.722   8.083  11.879  0.00  0.00    +0.000 A 
ENDROOT
BRANCH   1   7
ATOM      7  C   UNL     1      44.476  10.287  11.642  0.00  0.00    +0.000 C 
ATOM      8  O   UNL     1      43.577  10.354  12.460  0.00  0.00    +0.000 OA
BRANCH   7   9
ATOM      9  O   UNL     1      44.466  10.859  10.409  0.00  0.00    +0.000 OA
BRANCH   9  11
ATOM     10  C   UNL     1      43.554  10.758   8.217  0.00  0.00    +0.000 C 
ATOM     11  C   UNL     1      43.231  10.726   9.701  0.00  0.00    +0.000 C 
ENDBRANCH   9  11
ENDBRANCH   7   9
ENDBRANCH   1   7
BRANCH   4  12
ATOM     12  C   UNL     1      49.459   7.426  12.451  0.00  0.00    +0.000 C 
BRANCH  12  13
ATOM     13  N   UNL     1      49.446   6.783  13.736  0.00  0.00    +0.000 N 
ATOM     14  C   UNL     1      49.476   7.461  14.925  0.00  0.00    +0.000 C 
ATOM     15  O   UNL     1      49.528   8.685  14.991  0.00  0.00    +0.000 OA
ATOM     16  H   UNL     1      49.651   5.791  13.728  0.00  0.00    +0.000 HD
BRANCH  14  17
ATOM     17  C   UNL     1      49.360   6.630  16.130  0.00  0.00    +0.000 A 
ATOM     18  C   UNL     1      50.108   6.931  17.260  0.00  0.00    +0.000 A 
ATOM     19  S   UNL     1      49.787   5.901  18.582  0.00  0.00    +0.000 S 
ATOM     20  C   UNL     1      48.680   4.984  17.672  0.00  0.00    +0.000 A 
ATOM     21  N   UNL     1      48.041   3.910  18.216  0.00  0.00    +0.000 NA
ATOM     22  C   UNL     1      47.248   3.295  17.405  0.00  0.00    +0.000 A 
ATOM     23  N   UNL     1      47.031   3.655  16.101  0.00  0.00    +0.000 N 
ATOM     24  C   UNL     1      47.616   4.755  15.521  0.00  0.00    +0.000 A 
ATOM     25  O   UNL     1      47.331   5.093  14.382  0.00  0.00    +0.000 OA
ATOM     26  C   UNL     1      48.537   5.470  16.386  0.00  0.00    +0.000 A 
ATOM     27  H   UNL     1      46.383   3.143  15.520  0.00  0.00    +0.000 HD
ENDBRANCH  14  17
ENDBRANCH  12  13
ENDBRANCH   4  12
BRANCH   6  28
ATOM     28  C   UNL     1      44.486   7.231  11.743  0.00  0.00    +0.000 C 
BRANCH  28  29
ATOM     29  N   UNL     1      44.613   6.254  10.695  0.00  0.00    +0.000 N 
ATOM     30  C   UNL     1      43.827   5.126  10.622  0.00  0.00    +0.000 C 
ATOM     31  O   UNL     1      42.911   4.880  11.401  0.00  0.00    +0.000 OA
ATOM     32  H   UNL     1      45.159   6.481   9.871  0.00  0.00    +0.000 HD
BRANCH  30  33
ATOM     33  C   UNL     1      44.214   4.175   9.471  0.00  0.00    +0.000 C 
ATOM     34  C   UNL     1      44.534   2.773  10.012  0.00  0.00    +0.000 C 
ATOM     35  C   UNL     1      45.031   1.847   8.905  0.00  0.00    +0.000 C 
ATOM     36  C   UNL     1      46.178   2.496   8.137  0.00  0.00    +0.000 C 
ATOM     37  C   UNL     1      45.793   3.889   7.648  0.00  0.00    +0.000 C 
ATOM     38  N   UNL     1      45.383   4.748   8.761  0.00  0.00    +0.000 NA
ATOM     39  H   UNL     1      45.110   5.661   8.390  0.00  0.00    +0.000 HD
ENDBRANCH  30  33
ENDBRANCH  28  29
ENDBRANCH   6  28
TORSDOF 9
ENDMDL
MODEL 7
REMARK VINA RESULT:    -7.778      3.675      9.306
REMARK INTER + INTRA:         -12.895
REMARK INTER:                 -11.241
REMARK INTRA:                  -1.654
REMARK UNBOUND:                -1.024
REMARK  Name = 
REMARK  10 active torsions:
REMARK  status: ('A' for Active; 'I' for Inactive)
REMARK    1  A    between atoms: C_1  and  C_2
REMARK    2  A    between atoms: C_2  and  O_3
REMARK    3  A    between atoms: O_3  and  C_4
REMARK    4  A    between atoms: C_4  and  C_6
REMARK    5  A    between atoms: C_9  and  C_10
REMARK    6  A    between atoms: C_10  and  N_11
REMARK    7  A    between atoms: C_12  and  C_14
REMARK    8  A    between atoms: C_25  and  C_26
REMARK    9  A    between atoms: C_26  and  N_27
REMARK   10  A    between atoms: C_28  and  C_30
REMARK                            x       y       z     vdW  Elec       q    Type
REMARK                         _______ _______ _______ _____ _____    ______ ____
ROOT
ATOM      1  C   UNL     1      48.988   5.714  19.094  0.00  0.00    +0.000 A 
ATOM      2  C   UNL     1      48.884   7.117  19.003  0.00  0.00    +0.000 A 
ATOM      3  C   UNL     1      48.830   7.755  17.769  0.00  0.00    +0.000 A 
ATOM      4  C   UNL     1      48.913   7.008  16.597  0.00  0.00    +0.000 A 
ATOM      5  C   UNL     1      48.935   5.607  16.681  0.00  0.00    +0.000 A 
ATOM      6  C   UNL     1      48.928   4.938  17.923  0.00  0.00    +0.000 A 
ENDROOT
BRANCH   1   7
ATOM      7  C   UNL     1      49.095   5.111  20.455  0.00  0.00    +0.000 C 
ATOM      8  O   UNL     1      48.285   4.360  20.966  0.00  0.00    +0.000 OA
BRANCH   7   9
ATOM      9  O   UNL     1      50.202   5.610  21.064  0.00  0.00    +0.000 OA
BRANCH   9  11
ATOM     10  C   UNL     1      52.465   5.833  20.374  0.00  0.00    +0.000 C 
ATOM     11  C   UNL     1      51.397   4.858  20.838  0.00  0.00    +0.000 C 
ENDBRANCH   9  11
ENDBRANCH   7   9
ENDBRANCH   1   7
BRANCH   4  12
ATOM     12  C   UNL     1      48.940   7.708  15.268  0.00  0.00    +0.000 C 
BRANCH  12  13
ATOM     13  N   UNL     1      47.789   7.376  14.474  0.00  0.00    +0.000 N 
ATOM     14  C   UNL     1      47.839   6.581  13.360  0.00  0.00    +0.000 C 
ATOM     15  O   UNL     1      48.882   6.093  12.938  0.00  0.00    +0.000 OA
ATOM     16  H   UNL     1      46.968   7.946  14.637  0.00  0.00    +0.000 HD
BRANCH  14  17
ATOM     17  C   UNL     1      46.542   6.280  12.740  0.00  0.00    +0.000 A 
ATOM     18  C   UNL     1      45.789   7.297  12.168  0.00  0.00    +0.000 A 
ATOM     19  S   UNL     1      44.350   6.747  11.435  0.00  0.00    +0.000 S 
ATOM     20  C   UNL     1      44.657   5.140  11.905  0.00  0.00    +0.000 A 
ATOM     21  N   UNL     1      43.783   4.140  11.602  0.00  0.00    +0.000 NA
ATOM     22  C   UNL     1      44.132   2.977  12.040  0.00  0.00    +0.000 A 
ATOM     23  N   UNL     1      45.275   2.720  12.751  0.00  0.00    +0.000 N 
ATOM     24  C   UNL     1      46.208   3.687  13.042  0.00  0.00    +0.000 A 
ATOM     25  O   UNL     1      47.255   3.402  13.602  0.00  0.00    +0.000 OA
ATOM     26  C   UNL     1      45.851   5.020  12.590  0.00  0.00    +0.000 A 
ATOM     27  H   UNL     1      45.502   1.784  13.052  0.00  0.00    +0.000 HD
ENDBRANCH  14  17
ENDBRANCH  12  13
ENDBRANCH   4  12
BRANCH   6  28
ATOM     28  C   UNL     1      48.861   3.432  17.910  0.00  0.00    +0.000 C 
BRANCH  28  29
ATOM     29  N   UNL     1      50.149   2.830  18.131  0.00  0.00    +0.000 N 
ATOM     30  C   UNL     1      50.699   1.901  17.277  0.00  0.00    +0.000 C 
ATOM     31  O   UNL     1      50.175   1.548  16.223  0.00  0.00    +0.000 OA
ATOM     32  H   UNL     1      50.770   3.230  18.826  0.00  0.00    +0.000 HD
BRANCH  30  33
ATOM     33  C   UNL     1      52.039   1.320  17.772  0.00  0.00    +0.000 C 
ATOM     34  C   UNL     1      53.003   2.447  18.172  0.00  0.00    +0.000 C 
ATOM     35  C   UNL     1      54.375   1.899  18.554  0.00  0.00    +0.000 C 
ATOM     36  C   UNL     1      54.910   0.980  17.461  0.00  0.00    +0.000 C 
ATOM     37  C   UNL     1      53.893  -0.100  17.106  0.00  0.00    +0.000 C 
ATOM     38  N   UNL     1      52.618   0.487  16.690  0.00  0.00    +0.000 NA
ATOM     39  H   UNL     1      51.958  -0.266  16.485  0.00  0.00    +0.000 HD
ENDBRANCH  30  33
ENDBRANCH  28  29
ENDBRANCH   6  28
TORSDOF 9
ENDMDL
MODEL 8
REMARK VINA RESULT:    -7.632      4.277      5.126
REMARK INTER + INTRA:         -12.671
REMARK INTER:                 -10.900
REMARK INTRA:                  -1.772
REMARK UNBOUND:                -1.024
REMARK  Name = 
REMARK  10 active torsions:
REMARK  status: ('A' for Active; 'I' for Inactive)
REMARK    1  A    between atoms: C_1  and  C_2
REMARK    2  A    between atoms: C_2  and  O_3
REMARK    3  A    between atoms: O_3  and  C_4
REMARK    4  A    between atoms: C_4  and  C_6
REMARK    5  A    between atoms: C_9  and  C_10
REMARK    6  A    between atoms: C_10  and  N_11
REMARK    7  A    between atoms: C_12  and  C_14
REMARK    8  A    between atoms: C_25  and  C_26
REMARK    9  A    between atoms: C_26  and  N_27
REMARK   10  A    between atoms: C_28  and  C_30
REMARK                            x       y       z     vdW  Elec       q    Type
REMARK                         _______ _______ _______ _____ _____    ______ ____
ROOT
ATOM      1  C   UNL     1      46.580   5.348  12.742  0.00  0.00    +0.000 A 
ATOM      2  C   UNL     1      47.514   5.553  13.778  0.00  0.00    +0.000 A 
ATOM      3  C   UNL     1      48.411   6.614  13.738  0.00  0.00    +0.000 A 
ATOM      4  C   UNL     1      48.418   7.476  12.645  0.00  0.00    +0.000 A 
ATOM      5  C   UNL     1      47.438   7.325  11.650  0.00  0.00    +0.000 A 
ATOM      6  C   UNL     1      46.481   6.290  11.704  0.00  0.00    +0.000 A 
ENDROOT
BRANCH   1   7
ATOM      7  C   UNL     1      45.689   4.155  12.834  0.00  0.00    +0.000 C 
ATOM      8  O   UNL     1      45.829   3.113  12.219  0.00  0.00    +0.000 OA
BRANCH   7   9
ATOM      9  O   UNL     1      44.646   4.454  13.651  0.00  0.00    +0.000 OA
BRANCH   9  11
ATOM     10  C   UNL     1      42.686   5.363  12.661  0.00  0.00    +0.000 C 
ATOM     11  C   UNL     1      43.363   4.089  13.138  0.00  0.00    +0.000 C 
ENDBRANCH   9  11
ENDBRANCH   7   9
ENDBRANCH   1   7
BRANCH   4  12
ATOM     12  C   UNL     1      49.445   8.570  12.565  0.00  0.00    +0.000 C 
BRANCH  12  13
ATOM     13  N   UNL     1      50.772   8.063  12.777  0.00  0.00    +0.000 N 
ATOM     14  C   UNL     1      51.909   8.732  12.411  0.00  0.00    +0.000 C 
ATOM     15  O   UNL     1      51.886   9.826  11.856  0.00  0.00    +0.000 OA
ATOM     16  H   UNL     1      50.831   7.076  12.999  0.00  0.00    +0.000 HD
BRANCH  14  17
ATOM     17  C   UNL     1      53.173   8.093  12.798  0.00  0.00    +0.000 A 
ATOM     18  C   UNL     1      54.133   7.805  11.837  0.00  0.00    +0.000 A 
ATOM     19  S   UNL     1      55.561   7.131  12.483  0.00  0.00    +0.000 S 
ATOM     20  C   UNL     1      54.923   7.148  14.061  0.00  0.00    +0.000 A 
ATOM     21  N   UNL     1      55.644   6.676  15.116  0.00  0.00    +0.000 NA
ATOM     22  C   UNL     1      55.028   6.730  16.249  0.00  0.00    +0.000 A 
ATOM     23  N   UNL     1      53.758   7.213  16.426  0.00  0.00    +0.000 N 
ATOM     24  C   UNL     1      53.009   7.740  15.401  0.00  0.00    +0.000 A 
ATOM     25  O   UNL     1      51.915   8.240  15.615  0.00  0.00    +0.000 OA
ATOM     26  C   UNL     1      53.649   7.683  14.099  0.00  0.00    +0.000 A 
ATOM     27  H   UNL     1      53.336   7.245  17.343  0.00  0.00    +0.000 HD
ENDBRANCH  14  17
ENDBRANCH  12  13
ENDBRANCH   4  12
BRANCH   6  28
ATOM     28  C   UNL     1      45.414   6.265  10.639  0.00  0.00    +0.000 C 
BRANCH  28  29
ATOM     29  N   UNL     1      45.695   5.296   9.612  0.00  0.00    +0.000 N 
ATOM     30  C   UNL     1      44.754   4.413   9.137  0.00  0.00    +0.000 C 
ATOM     31  O   UNL     1      43.579   4.408   9.495  0.00  0.00    +0.000 OA
ATOM     32  H   UNL     1      46.552   5.380   9.075  0.00  0.00    +0.000 HD
BRANCH  30  33
ATOM     33  C   UNL     1      45.313   3.402   8.114  0.00  0.00    +0.000 C 
ATOM     34  C   UNL     1      45.757   2.110   8.816  0.00  0.00    +0.000 C 
ATOM     35  C   UNL     1      46.419   1.142   7.840  0.00  0.00    +0.000 C 
ATOM     36  C   UNL     1      47.529   1.842   7.061  0.00  0.00    +0.000 C 
ATOM     37  C   UNL     1      47.018   3.123   6.408  0.00  0.00    +0.000 C 
ATOM     38  N   UNL     1      46.448   4.035   7.402  0.00  0.00    +0.000 NA
ATOM     39  H   UNL     1      46.096   4.867   6.923  0.00  0.00    +0.000 HD
ENDBRANCH  30  33
ENDBRANCH  28  29
ENDBRANCH   6  28
TORSDOF 9
ENDMDL
MODEL 9
REMARK VINA RESULT:    -7.519      3.359      6.061
REMARK INTER + INTRA:         -12.498
REMARK INTER:                  -9.884
REMARK INTRA:                  -2.614
REMARK UNBOUND:                -1.024
REMARK  Name = 
REMARK  10 active torsions:
REMARK  status: ('A' for Active; 'I' for Inactive)
REMARK    1  A    between atoms: C_1  and  C_2
REMARK    2  A    between atoms: C_2  and  O_3
REMARK    3  A    between atoms: O_3  and  C_4
REMARK    4  A    between atoms: C_4  and  C_6
REMARK    5  A    between atoms: C_9  and  C_10
REMARK    6  A    between atoms: C_10  and  N_11
REMARK    7  A    between atoms: C_12  and  C_14
REMARK    8  A    between atoms: C_25  and  C_26
REMARK    9  A    between atoms: C_26  and  N_27
REMARK   10  A    between atoms: C_28  and  C_30
REMARK                            x       y       z     vdW  Elec       q    Type
REMARK                         _______ _______ _______ _____ _____    ______ ____
ROOT
ATOM      1  C   UNL     1      45.111   4.833  11.663  0.00  0.00    +0.000 A 
ATOM      2  C   UNL     1      45.336   3.518  12.121  0.00  0.00    +0.000 A 
ATOM      3  C   UNL     1      46.127   3.271  13.237  0.00  0.00    +0.000 A 
ATOM      4  C   UNL     1      46.740   4.330  13.901  0.00  0.00    +0.000 A 
ATOM      5  C   UNL     1      46.456   5.645  13.498  0.00  0.00    +0.000 A 
ATOM      6  C   UNL     1      45.606   5.918  12.406  0.00  0.00    +0.000 A 
ENDROOT
BRANCH   1   7
ATOM      7  C   UNL     1      44.295   5.008  10.426  0.00  0.00    +0.000 C 
ATOM      8  O   UNL     1      43.082   5.099  10.383  0.00  0.00    +0.000 OA
BRANCH   7   9
ATOM      9  O   UNL     1      45.122   4.960   9.350  0.00  0.00    +0.000 OA
BRANCH   9  11
ATOM     10  C   UNL     1      46.085   3.684   7.591  0.00  0.00    +0.000 C 
ATOM     11  C   UNL     1      44.834   3.911   8.423  0.00  0.00    +0.000 C 
ENDBRANCH   9  11
ENDBRANCH   7   9
ENDBRANCH   1   7
BRANCH   4  12
ATOM     12  C   UNL     1      47.663   4.052  15.054  0.00  0.00    +0.000 C 
BRANCH  12  13
ATOM     13  N   UNL     1      47.575   5.077  16.057  0.00  0.00    +0.000 N 
ATOM     14  C   UNL     1      48.607   5.413  16.893  0.00  0.00    +0.000 C 
ATOM     15  O   UNL     1      49.697   4.852  16.860  0.00  0.00    +0.000 OA
ATOM     16  H   UNL     1      46.637   5.387  16.282  0.00  0.00    +0.000 HD
BRANCH  14  17
ATOM     17  C   UNL     1      48.353   6.551  17.786  0.00  0.00    +0.000 A 
ATOM     18  C   UNL     1      48.190   6.345  19.149  0.00  0.00    +0.000 A 
ATOM     19  S   UNL     1      47.976   7.788  20.034  0.00  0.00    +0.000 S 
ATOM     20  C   UNL     1      48.038   8.732  18.619  0.00  0.00    +0.000 A 
ATOM     21  N   UNL     1      47.898  10.086  18.670  0.00  0.00    +0.000 NA
ATOM     22  C   UNL     1      47.944  10.670  17.520  0.00  0.00    +0.000 A 
ATOM     23  N   UNL     1      48.118  10.026  16.322  0.00  0.00    +0.000 N 
ATOM     24  C   UNL     1      48.308   8.668  16.224  0.00  0.00    +0.000 A 
ATOM     25  O   UNL     1      48.546   8.144  15.147  0.00  0.00    +0.000 OA
ATOM     26  C   UNL     1      48.243   7.961  17.490  0.00  0.00    +0.000 A 
ATOM     27  H   UNL     1      48.162  10.542  15.455  0.00  0.00    +0.000 HD
ENDBRANCH  14  17
ENDBRANCH  12  13
ENDBRANCH   4  12
BRANCH   6  28
ATOM     28  C   UNL     1      45.289   7.361  12.106  0.00  0.00    +0.000 C 
BRANCH  28  29
ATOM     29  N   UNL     1      46.461   8.195  12.152  0.00  0.00    +0.000 N 
ATOM     30  C   UNL     1      46.403   9.570  12.140  0.00  0.00    +0.000 C 
ATOM     31  O   UNL     1      45.356  10.211  12.152  0.00  0.00    +0.000 OA
ATOM     32  H   UNL     1      47.354   7.780  12.395  0.00  0.00    +0.000 HD
BRANCH  30  33
ATOM     33  C   UNL     1      47.788  10.248  12.091  0.00  0.00    +0.000 C 
ATOM     34  C   UNL     1      48.875   9.231  11.712  0.00  0.00    +0.000 C 
ATOM     35  C   UNL     1      50.268   9.854  11.771  0.00  0.00    +0.000 C 
ATOM     36  C   UNL     1      50.494  10.536  13.115  0.00  0.00    +0.000 C 
ATOM     37  C   UNL     1      49.367  11.516  13.431  0.00  0.00    +0.000 C 
ATOM     38  N   UNL     1      48.064  10.848  13.418  0.00  0.00    +0.000 NA
ATOM     39  H   UNL     1      47.336  11.540  13.608  0.00  0.00    +0.000 HD
ENDBRANCH  30  33
ENDBRANCH  28  29
ENDBRANCH   6  28
TORSDOF 9
ENDMDL
