MODEL 1
REMARK VINA RESULT:    -8.819      0.000      0.000
REMARK INTER + INTRA:         -12.975
REMARK INTER:                 -12.170
REMARK INTRA:                  -0.805
REMARK UNBOUND:                -0.805
REMARK  Name = 
REMARK  7 active torsions:
REMARK  status: ('A' for Active; 'I' for Inactive)
REMARK    1  A    between atoms: C_2  and  C_20
REMARK    2  A    between atoms: N_3  and  C_4
REMARK    3  A    between atoms: C_4  and  C_5
REMARK    4  A    between atoms: C_8  and  C_9
REMARK    5  A    between atoms: C_9  and  N_10
REMARK    6  A    between atoms: N_10  and  C_11
REMARK    7  A    between atoms: C_14  and  O_15
REMARK                            x       y       z     vdW  Elec       q    Type
REMARK                         _______ _______ _______ _____ _____    ______ ____
ROOT
ATOM      1  C   UNL     1      46.295   5.889  12.436  0.00  0.00    +0.000 A 
ATOM      2  C   UNL     1      45.631   6.104  11.233  0.00  0.00    +0.000 A 
ATOM      3  N   UNL     1      44.881   5.153  10.626  0.00  0.00    +0.000 NA
ATOM      4  C   UNL     1      44.787   3.967  11.284  0.00  0.00    +0.000 A 
ATOM      5  C   UNL     1      45.428   3.761  12.500  0.00  0.00    +0.000 A 
ATOM      6  N   UNL     1      46.194   4.703  13.097  0.00  0.00    +0.000 NA
ENDROOT
BRANCH   1   7
ATOM      7  C   UNL     1      47.125   6.978  13.058  0.00  0.00    +0.000 C 
BRANCH   7  10
ATOM      8  O   UNL     1      49.709   7.018  14.123  0.00  0.00    +0.000 OA
ATOM      9  C   UNL     1      48.775   6.751  14.874  0.00  0.00    +0.000 C 
ATOM     10  N   UNL     1      47.483   6.675  14.423  0.00  0.00    +0.000 N 
ATOM     11  H   UNL     1      46.716   6.684  15.090  0.00  0.00    +0.000 HD
BRANCH   9  12
ATOM     12  C   UNL     1      48.987   6.454  16.295  0.00  0.00    +0.000 A 
ATOM     13  C   UNL     1      49.488   7.436  17.137  0.00  0.00    +0.000 A 
ATOM     14  S   UNL     1      49.687   6.918  18.750  0.00  0.00    +0.000 S 
ATOM     15  C   UNL     1      49.069   5.374  18.389  0.00  0.00    +0.000 A 
ATOM     16  N   UNL     1      48.932   4.430  19.358  0.00  0.00    +0.000 NA
ATOM     17  C   UNL     1      48.413   3.318  18.952  0.00  0.00    +0.000 A 
ATOM     18  N   UNL     1      48.034   3.063  17.660  0.00  0.00    +0.000 N 
ATOM     19  C   UNL     1      48.217   3.963  16.637  0.00  0.00    +0.000 A 
ATOM     20  O   UNL     1      47.971   3.660  15.472  0.00  0.00    +0.000 OA
ATOM     21  C   UNL     1      48.748   5.245  17.050  0.00  0.00    +0.000 A 
ATOM     22  H   UNL     1      47.662   2.161  17.399  0.00  0.00    +0.000 HD
ENDBRANCH   9  12
ENDBRANCH   7  10
ENDBRANCH   1   7
BRANCH   4  23
ATOM     23  C   UNL     1      44.014   2.854  10.616  0.00  0.00    +0.000 C 
BRANCH  23  24
ATOM     24  N   UNL     1      44.135   2.843   9.147  0.00  0.00    +0.000 NA
ATOM     25  H   UNL     1      43.804   3.758   8.825  0.00  0.00    +0.000 HD
BRANCH  24  26
ATOM     26  C   UNL     1      45.504   2.635   8.646  0.00  0.00    +0.000 C 
ATOM     27  C   UNL     1      45.748   1.167   8.258  0.00  0.00    +0.000 C 
ATOM     28  C   UNL     1      47.106   0.963   7.598  0.00  0.00    +0.000 C 
ATOM     29  C   UNL     1      47.269   1.873   6.386  0.00  0.00    +0.000 C 
ATOM     30  C   UNL     1      47.088   3.336   6.778  0.00  0.00    +0.000 C 
ATOM     31  C   UNL     1      45.733   3.572   7.443  0.00  0.00    +0.000 C 
BRANCH  29  32
ATOM     32  O   UNL     1      48.558   1.678   5.816  0.00  0.00    +0.000 OA
ATOM     33  H   UNL     1      48.443   1.308   4.924  0.00  0.00    +0.000 HD
ENDBRANCH  29  32
ENDBRANCH  24  26
ENDBRANCH  23  24
ENDBRANCH   4  23
TORSDOF 7
ENDMDL
MODEL 2
REMARK VINA RESULT:    -8.573      1.885      3.490
REMARK INTER + INTRA:         -12.636
REMARK INTER:                 -11.617
REMARK INTRA:                  -1.019
REMARK UNBOUND:                -0.805
REMARK  Name = 
REMARK  7 active torsions:
REMARK  status: ('A' for Active; 'I' for Inactive)
REMARK    1  A    between atoms: C_2  and  C_20
REMARK    2  A    between atoms: N_3  and  C_4
REMARK    3  A    between atoms: C_4  and  C_5
REMARK    4  A    between atoms: C_8  and  C_9
REMARK    5  A    between atoms: C_9  and  N_10
REMARK    6  A    between atoms: N_10  and  C_11
REMARK    7  A    between atoms: C_14  and  O_15
REMARK                            x       y       z     vdW  Elec       q    Type
REMARK                         _______ _______ _______ _____ _____    ______ ____
ROOT
ATOM      1  C   UNL     1      46.194   4.442  13.513  0.00  0.00    +0.000 A 
ATOM      2  C   UNL     1      46.044   5.601  12.761  0.00  0.00    +0.000 A 
ATOM      3  N   UNL     1      45.488   5.610  11.525  0.00  0.00    +0.000 NA
ATOM      4  C   UNL     1      45.051   4.407  11.066  0.00  0.00    +0.000 A 
ATOM      5  C   UNL     1      45.176   3.253  11.830  0.00  0.00    +0.000 A 
ATOM      6  N   UNL     1      45.749   3.240  13.055  0.00  0.00    +0.000 NA
ENDROOT
BRANCH   1   7
ATOM      7  C   UNL     1      46.831   4.490  14.875  0.00  0.00    +0.000 C 
BRANCH   7  10
ATOM      8  O   UNL     1      48.936   4.839  16.680  0.00  0.00    +0.000 OA
ATOM      9  C   UNL     1      48.620   5.787  15.966  0.00  0.00    +0.000 C 
ATOM     10  N   UNL     1      47.576   5.709  15.082  0.00  0.00    +0.000 N 
ATOM     11  H   UNL     1      47.483   6.410  14.350  0.00  0.00    +0.000 HD
BRANCH   9  12
ATOM     12  C   UNL     1      49.313   7.078  16.044  0.00  0.00    +0.000 A 
ATOM     13  C   UNL     1      49.529   7.669  17.281  0.00  0.00    +0.000 A 
ATOM     14  S   UNL     1      50.331   9.172  17.190  0.00  0.00    +0.000 S 
ATOM     15  C   UNL     1      50.456   9.064  15.496  0.00  0.00    +0.000 A 
ATOM     16  N   UNL     1      51.085  10.033  14.777  0.00  0.00    +0.000 NA
ATOM     17  C   UNL     1      51.141   9.804  13.507  0.00  0.00    +0.000 A 
ATOM     18  N   UNL     1      50.613   8.700  12.890  0.00  0.00    +0.000 N 
ATOM     19  C   UNL     1      49.911   7.731  13.569  0.00  0.00    +0.000 A 
ATOM     20  O   UNL     1      49.354   6.814  12.972  0.00  0.00    +0.000 OA
ATOM     21  C   UNL     1      49.863   7.916  15.005  0.00  0.00    +0.000 A 
ATOM     22  H   UNL     1      50.663   8.594  11.888  0.00  0.00    +0.000 HD
ENDBRANCH   9  12
ENDBRANCH   7  10
ENDBRANCH   1   7
BRANCH   4  23
ATOM     23  C   UNL     1      44.482   4.355   9.667  0.00  0.00    +0.000 C 
BRANCH  23  24
ATOM     24  N   UNL     1      44.223   2.989   9.180  0.00  0.00    +0.000 NA
ATOM     25  H   UNL     1      43.236   2.964   8.908  0.00  0.00    +0.000 HD
BRANCH  24  26
ATOM     26  C   UNL     1      45.041   2.585   8.025  0.00  0.00    +0.000 C 
ATOM     27  C   UNL     1      45.883   3.755   7.489  0.00  0.00    +0.000 C 
ATOM     28  C   UNL     1      46.846   3.318   6.392  0.00  0.00    +0.000 C 
ATOM     29  C   UNL     1      47.746   2.186   6.871  0.00  0.00    +0.000 C 
ATOM     30  C   UNL     1      46.916   0.997   7.347  0.00  0.00    +0.000 C 
ATOM     31  C   UNL     1      45.939   1.405   8.449  0.00  0.00    +0.000 C 
BRANCH  29  32
ATOM     32  O   UNL     1      48.608   1.784   5.813  0.00  0.00    +0.000 OA
ATOM     33  H   UNL     1      48.705   0.817   5.850  0.00  0.00    +0.000 HD
ENDBRANCH  29  32
ENDBRANCH  24  26
ENDBRANCH  23  24
ENDBRANCH   4  23
TORSDOF 7
ENDMDL
MODEL 3
REMARK VINA RESULT:    -8.322      1.538      2.083
REMARK INTER + INTRA:         -12.290
REMARK INTER:                 -11.618
REMARK INTRA:                  -0.672
REMARK UNBOUND:                -0.805
REMARK  Name = 
REMARK  7 active torsions:
REMARK  status: ('A' for Active; 'I' for Inactive)
REMARK    1  A    between atoms: C_2  and  C_20
REMARK    2  A    between atoms: N_3  and  C_4
REMARK    3  A    between atoms: C_4  and  C_5
REMARK    4  A    between atoms: C_8  and  C_9
REMARK    5  A    between atoms: C_9  and  N_10
REMARK    6  A    between atoms: N_10  and  C_11
REMARK    7  A    between atoms: C_14  and  O_15
REMARK                            x       y       z     vdW  Elec       q    Type
REMARK                         _______ _______ _______ _____ _____    ______ ____
ROOT
ATOM      1  C   UNL     1      46.466   5.674  12.579  0.00  0.00    +0.000 A 
ATOM      2  C   UNL     1      46.092   6.173  11.336  0.00  0.00    +0.000 A 
ATOM      3  N   UNL     1      45.317   5.479  10.468  0.00  0.00    +0.000 NA
ATOM      4  C   UNL     1      44.892   4.262  10.899  0.00  0.00    +0.000 A 
ATOM      5  C   UNL     1      45.242   3.776  12.153  0.00  0.00    +0.000 A 
ATOM      6  N   UNL     1      46.033   4.459  13.012  0.00  0.00    +0.000 NA
ENDROOT
BRANCH   1   7
ATOM      7  C   UNL     1      47.340   6.484  13.497  0.00  0.00    +0.000 C 
BRANCH   7  10
ATOM      8  O   UNL     1      49.565   6.638  15.181  0.00  0.00    +0.000 OA
ATOM      9  C   UNL     1      48.573   6.036  15.583  0.00  0.00    +0.000 C 
ATOM     10  N   UNL     1      47.456   5.884  14.805  0.00  0.00    +0.000 N 
ATOM     11  H   UNL     1      46.580   5.593  15.233  0.00  0.00    +0.000 HD
BRANCH   9  12
ATOM     12  C   UNL     1      48.537   5.403  16.906  0.00  0.00    +0.000 A 
ATOM     13  C   UNL     1      48.645   4.024  17.013  0.00  0.00    +0.000 A 
ATOM     14  S   UNL     1      48.568   3.454  18.619  0.00  0.00    +0.000 S 
ATOM     15  C   UNL     1      48.429   5.036  19.231  0.00  0.00    +0.000 A 
ATOM     16  N   UNL     1      48.358   5.264  20.570  0.00  0.00    +0.000 NA
ATOM     17  C   UNL     1      48.296   6.513  20.897  0.00  0.00    +0.000 A 
ATOM     18  N   UNL     1      48.285   7.552  20.003  0.00  0.00    +0.000 N 
ATOM     19  C   UNL     1      48.287   7.364  18.641  0.00  0.00    +0.000 A 
ATOM     20  O   UNL     1      48.162   8.310  17.868  0.00  0.00    +0.000 OA
ATOM     21  C   UNL     1      48.408   5.982  18.223  0.00  0.00    +0.000 A 
ATOM     22  H   UNL     1      48.204   8.507  20.320  0.00  0.00    +0.000 HD
ENDBRANCH   9  12
ENDBRANCH   7  10
ENDBRANCH   1   7
BRANCH   4  23
ATOM     23  C   UNL     1      44.077   3.424   9.941  0.00  0.00    +0.000 C 
BRANCH  23  24
ATOM     24  N   UNL     1      44.754   2.190   9.505  0.00  0.00    +0.000 NA
ATOM     25  H   UNL     1      44.061   1.656   8.973  0.00  0.00    +0.000 HD
BRANCH  24  26
ATOM     26  C   UNL     1      45.936   2.407   8.655  0.00  0.00    +0.000 C 
ATOM     27  C   UNL     1      46.433   1.094   8.028  0.00  0.00    +0.000 C 
ATOM     28  C   UNL     1      47.560   1.322   7.028  0.00  0.00    +0.000 C 
ATOM     29  C   UNL     1      47.142   2.309   5.945  0.00  0.00    +0.000 C 
ATOM     30  C   UNL     1      46.706   3.636   6.559  0.00  0.00    +0.000 C 
ATOM     31  C   UNL     1      45.574   3.439   7.567  0.00  0.00    +0.000 C 
BRANCH  29  32
ATOM     32  O   UNL     1      48.227   2.521   5.050  0.00  0.00    +0.000 OA
ATOM     33  H   UNL     1      49.036   2.178   5.466  0.00  0.00    +0.000 HD
ENDBRANCH  29  32
ENDBRANCH  24  26
ENDBRANCH  23  24
ENDBRANCH   4  23
TORSDOF 7
ENDMDL
MODEL 4
REMARK VINA RESULT:    -7.601      1.456      1.783
REMARK INTER + INTRA:         -11.295
REMARK INTER:                 -10.253
REMARK INTRA:                  -1.043
REMARK UNBOUND:                -0.805
REMARK  Name = 
REMARK  7 active torsions:
REMARK  status: ('A' for Active; 'I' for Inactive)
REMARK    1  A    between atoms: C_2  and  C_20
REMARK    2  A    between atoms: N_3  and  C_4
REMARK    3  A    between atoms: C_4  and  C_5
REMARK    4  A    between atoms: C_8  and  C_9
REMARK    5  A    between atoms: C_9  and  N_10
REMARK    6  A    between atoms: N_10  and  C_11
REMARK    7  A    between atoms: C_14  and  O_15
REMARK                            x       y       z     vdW  Elec       q    Type
REMARK                         _______ _______ _______ _____ _____    ______ ____
ROOT
ATOM      1  C   UNL     1      46.408   6.853  12.818  0.00  0.00    +0.000 A 
ATOM      2  C   UNL     1      45.292   7.363  12.165  0.00  0.00    +0.000 A 
ATOM      3  N   UNL     1      44.416   6.583  11.487  0.00  0.00    +0.000 NA
ATOM      4  C   UNL     1      44.677   5.249  11.506  0.00  0.00    +0.000 A 
ATOM      5  C   UNL     1      45.777   4.737  12.183  0.00  0.00    +0.000 A 
ATOM      6  N   UNL     1      46.663   5.516  12.843  0.00  0.00    +0.000 NA
ENDROOT
BRANCH   1   7
ATOM      7  C   UNL     1      47.354   7.769  13.545  0.00  0.00    +0.000 C 
BRANCH   7  10
ATOM      8  O   UNL     1      48.580   8.704  15.877  0.00  0.00    +0.000 OA
ATOM      9  C   UNL     1      48.830   7.560  15.509  0.00  0.00    +0.000 C 
ATOM     10  N   UNL     1      48.299   7.039  14.357  0.00  0.00    +0.000 N 
ATOM     11  H   UNL     1      48.331   6.036  14.198  0.00  0.00    +0.000 HD
BRANCH   9  12
ATOM     12  C   UNL     1      49.748   6.691  16.254  0.00  0.00    +0.000 A 
ATOM     13  C   UNL     1      51.026   7.138  16.556  0.00  0.00    +0.000 A 
ATOM     14  S   UNL     1      51.965   5.998  17.410  0.00  0.00    +0.000 S 
ATOM     15  C   UNL     1      50.680   4.883  17.444  0.00  0.00    +0.000 A 
ATOM     16  N   UNL     1      50.809   3.684  18.072  0.00  0.00    +0.000 NA
ATOM     17  C   UNL     1      49.743   2.953  18.054  0.00  0.00    +0.000 A 
ATOM     18  N   UNL     1      48.565   3.310  17.453  0.00  0.00    +0.000 N 
ATOM     19  C   UNL     1      48.411   4.481  16.750  0.00  0.00    +0.000 A 
ATOM     20  O   UNL     1      47.380   4.719  16.127  0.00  0.00    +0.000 OA
ATOM     21  C   UNL     1      49.563   5.360  16.783  0.00  0.00    +0.000 A 
ATOM     22  H   UNL     1      47.776   2.680  17.447  0.00  0.00    +0.000 HD
ENDBRANCH   9  12
ENDBRANCH   7  10
ENDBRANCH   1   7
BRANCH   4  23
ATOM     23  C   UNL     1      43.764   4.345  10.711  0.00  0.00    +0.000 C 
BRANCH  23  24
ATOM     24  N   UNL     1      43.738   4.645   9.268  0.00  0.00    +0.000 NA
ATOM     25  H   UNL     1      44.223   5.540   9.152  0.00  0.00    +0.000 HD
BRANCH  24  26
ATOM     26  C   UNL     1      44.397   3.638   8.421  0.00  0.00    +0.000 C 
ATOM     27  C   UNL     1      45.729   4.158   7.854  0.00  0.00    +0.000 C 
ATOM     28  C   UNL     1      46.496   3.079   7.100  0.00  0.00    +0.000 C 
ATOM     29  C   UNL     1      46.728   1.855   7.979  0.00  0.00    +0.000 C 
ATOM     30  C   UNL     1      45.404   1.298   8.494  0.00  0.00    +0.000 C 
ATOM     31  C   UNL     1      44.612   2.359   9.256  0.00  0.00    +0.000 C 
BRANCH  29  32
ATOM     32  O   UNL     1      47.417   0.858   7.234  0.00  0.00    +0.000 OA
ATOM     33  H   UNL     1      47.060   0.853   6.330  0.00  0.00    +0.000 HD
ENDBRANCH  29  32
ENDBRANCH  24  26
ENDBRANCH  23  24
ENDBRANCH   4  23
TORSDOF 7
ENDMDL
MODEL 5
REMARK VINA RESULT:    -6.971      3.052      8.696
REMARK INTER + INTRA:         -10.426
REMARK INTER:                  -9.847
REMARK INTRA:                  -0.578
REMARK UNBOUND:                -0.805
REMARK  Name = 
REMARK  7 active torsions:
REMARK  status: ('A' for Active; 'I' for Inactive)
REMARK    1  A    between atoms: C_2  and  C_20
REMARK    2  A    between atoms: N_3  and  C_4
REMARK    3  A    between atoms: C_4  and  C_5
REMARK    4  A    between atoms: C_8  and  C_9
REMARK    5  A    between atoms: C_9  and  N_10
REMARK    6  A    between atoms: N_10  and  C_11
REMARK    7  A    between atoms: C_14  and  O_15
REMARK                            x       y       z     vdW  Elec       q    Type
REMARK                         _______ _______ _______ _____ _____    ______ ____
ROOT
ATOM      1  C   UNL     1      48.135   7.919  13.409  0.00  0.00    +0.000 A 
ATOM      2  C   UNL     1      47.647   8.758  14.405  0.00  0.00    +0.000 A 
ATOM      3  N   UNL     1      48.203   8.838  15.638  0.00  0.00    +0.000 NA
ATOM      4  C   UNL     1      49.300   8.061  15.841  0.00  0.00    +0.000 A 
ATOM      5  C   UNL     1      49.805   7.244  14.836  0.00  0.00    +0.000 A 
ATOM      6  N   UNL     1      49.238   7.148  13.612  0.00  0.00    +0.000 NA
ENDROOT
BRANCH   1   7
ATOM      7  C   UNL     1      47.468   7.862  12.062  0.00  0.00    +0.000 C 
BRANCH   7  10
ATOM      8  O   UNL     1      44.712   7.566  11.705  0.00  0.00    +0.000 OA
ATOM      9  C   UNL     1      45.415   6.561  11.653  0.00  0.00    +0.000 C 
ATOM     10  N   UNL     1      46.770   6.616  11.854  0.00  0.00    +0.000 N 
ATOM     11  H   UNL     1      47.351   5.828  11.580  0.00  0.00    +0.000 HD
BRANCH   9  12
ATOM     12  C   UNL     1      44.845   5.230  11.415  0.00  0.00    +0.000 A 
ATOM     13  C   UNL     1      44.088   4.619  12.405  0.00  0.00    +0.000 A 
ATOM     14  S   UNL     1      43.516   3.072  11.970  0.00  0.00    +0.000 S 
ATOM     15  C   UNL     1      44.226   3.183  10.427  0.00  0.00    +0.000 A 
ATOM     16  N   UNL     1      44.081   2.183   9.516  0.00  0.00    +0.000 NA
ATOM     17  C   UNL     1      44.637   2.416   8.374  0.00  0.00    +0.000 A 
ATOM     18  N   UNL     1      45.336   3.554   8.066  0.00  0.00    +0.000 N 
ATOM     19  C   UNL     1      45.564   4.559   8.977  0.00  0.00    +0.000 A 
ATOM     20  O   UNL     1      46.289   5.512   8.705  0.00  0.00    +0.000 OA
ATOM     21  C   UNL     1      44.917   4.368  10.259  0.00  0.00    +0.000 A 
ATOM     22  H   UNL     1      45.774   3.664   7.163  0.00  0.00    +0.000 HD
ENDBRANCH   9  12
ENDBRANCH   7  10
ENDBRANCH   1   7
BRANCH   4  23
ATOM     23  C   UNL     1      49.918   8.068  17.220  0.00  0.00    +0.000 C 
BRANCH  23  24
ATOM     24  N   UNL     1      50.579   6.801  17.583  0.00  0.00    +0.000 NA
ATOM     25  H   UNL     1      51.237   7.027  18.334  0.00  0.00    +0.000 HD
BRANCH  24  26
ATOM     26  C   UNL     1      49.666   5.748  18.057  0.00  0.00    +0.000 C 
ATOM     27  C   UNL     1      48.201   6.217  18.040  0.00  0.00    +0.000 C 
ATOM     28  C   UNL     1      47.231   5.093  18.382  0.00  0.00    +0.000 C 
ATOM     29  C   UNL     1      47.423   3.900  17.453  0.00  0.00    +0.000 C 
ATOM     30  C   UNL     1      48.861   3.392  17.512  0.00  0.00    +0.000 C 
ATOM     31  C   UNL     1      49.858   4.499  17.173  0.00  0.00    +0.000 C 
BRANCH  29  32
ATOM     32  O   UNL     1      46.525   2.861  17.822  0.00  0.00    +0.000 OA
ATOM     33  H   UNL     1      46.937   2.340  18.532  0.00  0.00    +0.000 HD
ENDBRANCH  29  32
ENDBRANCH  24  26
ENDBRANCH  23  24
ENDBRANCH   4  23
TORSDOF 7
ENDMDL
MODEL 6
REMARK VINA RESULT:    -6.905      3.685      8.155
REMARK INTER + INTRA:         -10.334
REMARK INTER:                  -9.443
REMARK INTRA:                  -0.891
REMARK UNBOUND:                -0.805
REMARK  Name = 
REMARK  7 active torsions:
REMARK  status: ('A' for Active; 'I' for Inactive)
REMARK    1  A    between atoms: C_2  and  C_20
REMARK    2  A    between atoms: N_3  and  C_4
REMARK    3  A    between atoms: C_4  and  C_5
REMARK    4  A    between atoms: C_8  and  C_9
REMARK    5  A    between atoms: C_9  and  N_10
REMARK    6  A    between atoms: N_10  and  C_11
REMARK    7  A    between atoms: C_14  and  O_15
REMARK                            x       y       z     vdW  Elec       q    Type
REMARK                         _______ _______ _______ _____ _____    ______ ____
ROOT
ATOM      1  C   UNL     1      48.525   7.969  13.488  0.00  0.00    +0.000 A 
ATOM      2  C   UNL     1      47.890   8.813  14.391  0.00  0.00    +0.000 A 
ATOM      3  N   UNL     1      48.049   8.710  15.733  0.00  0.00    +0.000 NA
ATOM      4  C   UNL     1      48.902   7.738  16.152  0.00  0.00    +0.000 A 
ATOM      5  C   UNL     1      49.559   6.912  15.248  0.00  0.00    +0.000 A 
ATOM      6  N   UNL     1      49.385   7.001  13.910  0.00  0.00    +0.000 NA
ENDROOT
BRANCH   1   7
ATOM      7  C   UNL     1      48.301   8.122  12.009  0.00  0.00    +0.000 C 
BRANCH   7  10
ATOM      8  O   UNL     1      45.522   7.830  11.911  0.00  0.00    +0.000 OA
ATOM      9  C   UNL     1      46.217   6.949  11.410  0.00  0.00    +0.000 C 
ATOM     10  N   UNL     1      47.586   6.999  11.449  0.00  0.00    +0.000 N 
ATOM     11  H   UNL     1      48.129   6.394  10.838  0.00  0.00    +0.000 HD
BRANCH   9  12
ATOM     12  C   UNL     1      45.626   5.765  10.777  0.00  0.00    +0.000 A 
ATOM     13  C   UNL     1      45.850   5.522   9.429  0.00  0.00    +0.000 A 
ATOM     14  S   UNL     1      45.078   4.115   8.851  0.00  0.00    +0.000 S 
ATOM     15  C   UNL     1      44.454   3.757  10.393  0.00  0.00    +0.000 A 
ATOM     16  N   UNL     1      43.713   2.636  10.607  0.00  0.00    +0.000 NA
ATOM     17  C   UNL     1      43.338   2.469  11.832  0.00  0.00    +0.000 A 
ATOM     18  N   UNL     1      43.626   3.330  12.859  0.00  0.00    +0.000 N 
ATOM     19  C   UNL     1      44.313   4.507  12.675  0.00  0.00    +0.000 A 
ATOM     20  O   UNL     1      44.455   5.309  13.593  0.00  0.00    +0.000 OA
ATOM     21  C   UNL     1      44.801   4.716  11.327  0.00  0.00    +0.000 A 
ATOM     22  H   UNL     1      43.276   3.158  13.790  0.00  0.00    +0.000 HD
ENDBRANCH   9  12
ENDBRANCH   7  10
ENDBRANCH   1   7
BRANCH   4  23
ATOM     23  C   UNL     1      49.064   7.542  17.642  0.00  0.00    +0.000 C 
BRANCH  23  24
ATOM     24  N   UNL     1      48.010   6.712  18.251  0.00  0.00    +0.000 NA
ATOM     25  H   UNL     1      47.173   6.842  17.675  0.00  0.00    +0.000 HD
BRANCH  24  26
ATOM     26  C   UNL     1      48.322   5.274  18.311  0.00  0.00    +0.000 C 
ATOM     27  C   UNL     1      47.587   4.488  17.212  0.00  0.00    +0.000 C 
ATOM     28  C   UNL     1      48.014   3.026  17.165  0.00  0.00    +0.000 C 
ATOM     29  C   UNL     1      49.523   2.900  16.997  0.00  0.00    +0.000 C 
ATOM     30  C   UNL     1      50.257   3.628  18.120  0.00  0.00    +0.000 C 
ATOM     31  C   UNL     1      49.849   5.098  18.192  0.00  0.00    +0.000 C 
BRANCH  29  32
ATOM     32  O   UNL     1      49.888   1.525  16.989  0.00  0.00    +0.000 OA
ATOM     33  H   UNL     1      49.692   1.153  17.865  0.00  0.00    +0.000 HD
ENDBRANCH  29  32
ENDBRANCH  24  26
ENDBRANCH  23  24
ENDBRANCH   4  23
TORSDOF 7
ENDMDL
MODEL 7
REMARK VINA RESULT:    -6.837      3.628      8.564
REMARK INTER + INTRA:         -10.241
REMARK INTER:                  -9.447
REMARK INTRA:                  -0.794
REMARK UNBOUND:                -0.805
REMARK  Name = 
REMARK  7 active torsions:
REMARK  status: ('A' for Active; 'I' for Inactive)
REMARK    1  A    between atoms: C_2  and  C_20
REMARK    2  A    between atoms: N_3  and  C_4
REMARK    3  A    between atoms: C_4  and  C_5
REMARK    4  A    between atoms: C_8  and  C_9
REMARK    5  A    between atoms: C_9  and  N_10
REMARK    6  A    between atoms: N_10  and  C_11
REMARK    7  A    between atoms: C_14  and  O_15
REMARK                            x       y       z     vdW  Elec       q    Type
REMARK                         _______ _______ _______ _____ _____    ______ ____
ROOT
ATOM      1  C   UNL     1      48.567   6.754  14.435  0.00  0.00    +0.000 A 
ATOM      2  C   UNL     1      49.560   7.385  15.176  0.00  0.00    +0.000 A 
ATOM      3  N   UNL     1      49.906   6.993  16.426  0.00  0.00    +0.000 NA
ATOM      4  C   UNL     1      49.239   5.912  16.911  0.00  0.00    +0.000 A 
ATOM      5  C   UNL     1      48.267   5.264  16.159  0.00  0.00    +0.000 A 
ATOM      6  N   UNL     1      47.906   5.668  14.919  0.00  0.00    +0.000 NA
ENDROOT
BRANCH   1   7
ATOM      7  C   UNL     1      48.216   7.242  13.056  0.00  0.00    +0.000 C 
BRANCH   7  10
ATOM      8  O   UNL     1      45.890   7.769  11.597  0.00  0.00    +0.000 OA
ATOM      9  C   UNL     1      46.326   6.621  11.600  0.00  0.00    +0.000 C 
ATOM     10  N   UNL     1      47.439   6.272  12.320  0.00  0.00    +0.000 N 
ATOM     11  H   UNL     1      47.908   5.391  12.125  0.00  0.00    +0.000 HD
BRANCH   9  12
ATOM     12  C   UNL     1      45.658   5.539  10.868  0.00  0.00    +0.000 A 
ATOM     13  C   UNL     1      45.726   5.501   9.483  0.00  0.00    +0.000 A 
ATOM     14  S   UNL     1      44.883   4.188   8.793  0.00  0.00    +0.000 S 
ATOM     15  C   UNL     1      44.434   3.600  10.326  0.00  0.00    +0.000 A 
ATOM     16  N   UNL     1      43.713   2.453  10.453  0.00  0.00    +0.000 NA
ATOM     17  C   UNL     1      43.477   2.102  11.674  0.00  0.00    +0.000 A 
ATOM     18  N   UNL     1      43.887   2.804  12.778  0.00  0.00    +0.000 N 
ATOM     19  C   UNL     1      44.558   4.001  12.695  0.00  0.00    +0.000 A 
ATOM     20  O   UNL     1      44.810   4.659  13.700  0.00  0.00    +0.000 OA
ATOM     21  C   UNL     1      44.892   4.412  11.347  0.00  0.00    +0.000 A 
ATOM     22  H   UNL     1      43.644   2.493  13.707  0.00  0.00    +0.000 HD
ENDBRANCH   9  12
ENDBRANCH   7  10
ENDBRANCH   1   7
BRANCH   4  23
ATOM     23  C   UNL     1      49.546   5.476  18.325  0.00  0.00    +0.000 C 
BRANCH  23  24
ATOM     24  N   UNL     1      50.978   5.239  18.578  0.00  0.00    +0.000 NA
ATOM     25  H   UNL     1      51.064   5.047  19.580  0.00  0.00    +0.000 HD
BRANCH  24  26
ATOM     26  C   UNL     1      51.553   4.108  17.831  0.00  0.00    +0.000 C 
ATOM     27  C   UNL     1      52.890   3.649  18.436  0.00  0.00    +0.000 C 
ATOM     28  C   UNL     1      53.423   2.387  17.769  0.00  0.00    +0.000 C 
ATOM     29  C   UNL     1      52.395   1.263  17.823  0.00  0.00    +0.000 C 
ATOM     30  C   UNL     1      51.086   1.692  17.168  0.00  0.00    +0.000 C 
ATOM     31  C   UNL     1      50.527   2.957  17.817  0.00  0.00    +0.000 C 
BRANCH  29  32
ATOM     32  O   UNL     1      52.914   0.113  17.165  0.00  0.00    +0.000 OA
ATOM     33  H   UNL     1      53.664   0.391  16.612  0.00  0.00    +0.000 HD
ENDBRANCH  29  32
ENDBRANCH  24  26
ENDBRANCH  23  24
ENDBRANCH   4  23
TORSDOF 7
ENDMDL
MODEL 8
REMARK VINA RESULT:    -6.831      3.241      4.508
REMARK INTER + INTRA:         -10.232
REMARK INTER:                  -9.368
REMARK INTRA:                  -0.863
REMARK UNBOUND:                -0.805
REMARK  Name = 
REMARK  7 active torsions:
REMARK  status: ('A' for Active; 'I' for Inactive)
REMARK    1  A    between atoms: C_2  and  C_20
REMARK    2  A    between atoms: N_3  and  C_4
REMARK    3  A    between atoms: C_4  and  C_5
REMARK    4  A    between atoms: C_8  and  C_9
REMARK    5  A    between atoms: C_9  and  N_10
REMARK    6  A    between atoms: N_10  and  C_11
REMARK    7  A    between atoms: C_14  and  O_15
REMARK                            x       y       z     vdW  Elec       q    Type
REMARK                         _______ _______ _______ _____ _____    ______ ____
ROOT
ATOM      1  C   UNL     1      48.601   7.539  15.081  0.00  0.00    +0.000 A 
ATOM      2  C   UNL     1      47.851   8.492  14.399  0.00  0.00    +0.000 A 
ATOM      3  N   UNL     1      47.220   8.231  13.229  0.00  0.00    +0.000 NA
ATOM      4  C   UNL     1      47.338   6.959  12.765  0.00  0.00    +0.000 A 
ATOM      5  C   UNL     1      48.063   6.000  13.462  0.00  0.00    +0.000 A 
ATOM      6  N   UNL     1      48.711   6.264  14.620  0.00  0.00    +0.000 NA
ENDROOT
BRANCH   1   7
ATOM      7  C   UNL     1      49.290   7.889  16.371  0.00  0.00    +0.000 C 
BRANCH   7  10
ATOM      8  O   UNL     1      49.157   6.154  18.559  0.00  0.00    +0.000 OA
ATOM      9  C   UNL     1      50.126   6.071  17.810  0.00  0.00    +0.000 C 
ATOM     10  N   UNL     1      50.285   6.909  16.737  0.00  0.00    +0.000 N 
ATOM     11  H   UNL     1      50.958   6.674  16.011  0.00  0.00    +0.000 HD
BRANCH   9  12
ATOM     12  C   UNL     1      51.200   5.098  18.040  0.00  0.00    +0.000 A 
ATOM     13  C   UNL     1      52.383   5.507  18.640  0.00  0.00    +0.000 A 
ATOM     14  S   UNL     1      53.528   4.255  18.818  0.00  0.00    +0.000 S 
ATOM     15  C   UNL     1      52.465   3.112  18.139  0.00  0.00    +0.000 A 
ATOM     16  N   UNL     1      52.820   1.804  18.028  0.00  0.00    +0.000 NA
ATOM     17  C   UNL     1      51.904   1.041  17.531  0.00  0.00    +0.000 A 
ATOM     18  N   UNL     1      50.669   1.472  17.123  0.00  0.00    +0.000 N 
ATOM     19  C   UNL     1      50.293   2.794  17.153  0.00  0.00    +0.000 A 
ATOM     20  O   UNL     1      49.224   3.163  16.675  0.00  0.00    +0.000 OA
ATOM     21  C   UNL     1      51.268   3.685  17.750  0.00  0.00    +0.000 A 
ATOM     22  H   UNL     1      50.006   0.830  16.713  0.00  0.00    +0.000 HD
ENDBRANCH   9  12
ENDBRANCH   7  10
ENDBRANCH   1   7
BRANCH   4  23
ATOM     23  C   UNL     1      46.704   6.637  11.432  0.00  0.00    +0.000 C 
BRANCH  23  24
ATOM     24  N   UNL     1      45.279   6.999  11.347  0.00  0.00    +0.000 NA
ATOM     25  H   UNL     1      45.179   7.576  10.507  0.00  0.00    +0.000 HD
BRANCH  24  26
ATOM     26  C   UNL     1      44.361   5.853  11.241  0.00  0.00    +0.000 C 
ATOM     27  C   UNL     1      44.932   4.750  10.334  0.00  0.00    +0.000 C 
ATOM     28  C   UNL     1      44.066   3.497  10.334  0.00  0.00    +0.000 C 
ATOM     29  C   UNL     1      43.860   2.972  11.750  0.00  0.00    +0.000 C 
ATOM     30  C   UNL     1      43.237   4.043  12.641  0.00  0.00    +0.000 C 
ATOM     31  C   UNL     1      44.085   5.314  12.660  0.00  0.00    +0.000 C 
BRANCH  29  32
ATOM     32  O   UNL     1      43.023   1.822  11.715  0.00  0.00    +0.000 OA
ATOM     33  H   UNL     1      42.186   2.042  12.157  0.00  0.00    +0.000 HD
ENDBRANCH  29  32
ENDBRANCH  24  26
ENDBRANCH  23  24
ENDBRANCH   4  23
TORSDOF 7
ENDMDL
MODEL 9
REMARK VINA RESULT:    -6.823      4.654      9.068
REMARK INTER + INTRA:         -10.221
REMARK INTER:                  -9.474
REMARK INTRA:                  -0.748
REMARK UNBOUND:                -0.805
REMARK  Name = 
REMARK  7 active torsions:
REMARK  status: ('A' for Active; 'I' for Inactive)
REMARK    1  A    between atoms: C_2  and  C_20
REMARK    2  A    between atoms: N_3  and  C_4
REMARK    3  A    between atoms: C_4  and  C_5
REMARK    4  A    between atoms: C_8  and  C_9
REMARK    5  A    between atoms: C_9  and  N_10
REMARK    6  A    between atoms: N_10  and  C_11
REMARK    7  A    between atoms: C_14  and  O_15
REMARK                            x       y       z     vdW  Elec       q    Type
REMARK                         _______ _______ _______ _____ _____    ______ ____
ROOT
ATOM      1  C   UNL     1      48.908   3.225  17.250  0.00  0.00    +0.000 A 
ATOM      2  C   UNL     1      49.627   4.190  17.944  0.00  0.00    +0.000 A 
ATOM      3  N   UNL     1      50.944   4.060  18.236  0.00  0.00    +0.000 NA
ATOM      4  C   UNL     1      51.540   2.927  17.777  0.00  0.00    +0.000 A 
ATOM      5  C   UNL     1      50.827   1.975  17.058  0.00  0.00    +0.000 A 
ATOM      6  N   UNL     1      49.508   2.095  16.784  0.00  0.00    +0.000 NA
ENDROOT
BRANCH   1   7
ATOM      7  C   UNL     1      47.444   3.418  16.966  0.00  0.00    +0.000 C 
BRANCH   7  10
ATOM      8  O   UNL     1      47.238   3.015  14.207  0.00  0.00    +0.000 OA
ATOM      9  C   UNL     1      47.093   4.155  14.640  0.00  0.00    +0.000 C 
ATOM     10  N   UNL     1      47.215   4.442  15.974  0.00  0.00    +0.000 N 
ATOM     11  H   UNL     1      46.866   5.329  16.331  0.00  0.00    +0.000 HD
BRANCH   9  12
ATOM     12  C   UNL     1      46.822   5.290  13.751  0.00  0.00    +0.000 A 
ATOM     13  C   UNL     1      47.811   6.237  13.524  0.00  0.00    +0.000 A 
ATOM     14  S   UNL     1      47.324   7.496  12.480  0.00  0.00    +0.000 S 
ATOM     15  C   UNL     1      45.789   6.795  12.261  0.00  0.00    +0.000 A 
ATOM     16  N   UNL     1      44.870   7.364  11.434  0.00  0.00    +0.000 NA
ATOM     17  C   UNL     1      43.764   6.706  11.331  0.00  0.00    +0.000 A 
ATOM     18  N   UNL     1      43.489   5.537  11.992  0.00  0.00    +0.000 N 
ATOM     19  C   UNL     1      44.360   4.963  12.887  0.00  0.00    +0.000 A 
ATOM     20  O   UNL     1      44.038   3.979  13.547  0.00  0.00    +0.000 OA
ATOM     21  C   UNL     1      45.638   5.637  13.001  0.00  0.00    +0.000 A 
ATOM     22  H   UNL     1      42.591   5.086  11.892  0.00  0.00    +0.000 HD
ENDBRANCH   9  12
ENDBRANCH   7  10
ENDBRANCH   1   7
BRANCH   4  23
ATOM     23  C   UNL     1      52.992   2.705  18.131  0.00  0.00    +0.000 C 
BRANCH  23  24
ATOM     24  N   UNL     1      53.240   1.459  18.878  0.00  0.00    +0.000 NA
ATOM     25  H   UNL     1      52.345   0.963  18.912  0.00  0.00    +0.000 HD
BRANCH  24  26
ATOM     26  C   UNL     1      54.247   0.573  18.273  0.00  0.00    +0.000 C 
ATOM     27  C   UNL     1      53.961  -0.906  18.583  0.00  0.00    +0.000 C 
ATOM     28  C   UNL     1      54.905  -1.844  17.841  0.00  0.00    +0.000 C 
ATOM     29  C   UNL     1      54.860  -1.592  16.338  0.00  0.00    +0.000 C 
ATOM     30  C   UNL     1      55.204  -0.140  16.021  0.00  0.00    +0.000 C 
ATOM     31  C   UNL     1      54.272   0.826  16.752  0.00  0.00    +0.000 C 
BRANCH  29  32
ATOM     32  O   UNL     1      55.775  -2.463  15.683  0.00  0.00    +0.000 OA
ATOM     33  H   UNL     1      56.272  -2.949  16.362  0.00  0.00    +0.000 HD
ENDBRANCH  29  32
ENDBRANCH  24  26
ENDBRANCH  23  24
ENDBRANCH   4  23
TORSDOF 7
ENDMDL
