MODEL 1
REMARK VINA RESULT:    -8.313      0.000      0.000
REMARK INTER + INTRA:         -11.770
REMARK INTER:                 -10.986
REMARK INTRA:                  -0.784
REMARK UNBOUND:                -0.784
REMARK  Name = 
REMARK  6 active torsions:
REMARK  status: ('A' for Active; 'I' for Inactive)
REMARK    1  A    between atoms: C_2  and  C_19
REMARK    2  A    between atoms: N_3  and  C_4
REMARK    3  A    between atoms: C_4  and  C_5
REMARK    4  A    between atoms: C_8  and  C_9
REMARK    5  A    between atoms: C_9  and  O_10
REMARK    6  A    between atoms: C_9  and  C_11
REMARK                            x       y       z     vdW  Elec       q    Type
REMARK                         _______ _______ _______ _____ _____    ______ ____
ROOT
ATOM      1  C   UNL     1      46.924   6.572  13.557  0.00  0.00    +0.000 C 
ENDROOT
BRANCH   1   2
ATOM      2  C   UNL     1      46.341   5.762  12.429  0.00  0.00    +0.000 A 
ATOM      3  C   UNL     1      45.840   4.474  12.663  0.00  0.00    +0.000 A 
ATOM      4  C   UNL     1      45.243   3.739  11.632  0.00  0.00    +0.000 A 
ATOM      5  C   UNL     1      45.146   4.275  10.338  0.00  0.00    +0.000 A 
ATOM      6  C   UNL     1      45.702   5.541  10.101  0.00  0.00    +0.000 A 
ATOM      7  C   UNL     1      46.294   6.277  11.129  0.00  0.00    +0.000 A 
BRANCH   5   8
ATOM      8  C   UNL     1      44.492   3.483   9.216  0.00  0.00    +0.000 C 
BRANCH   8   9
ATOM      9  C   UNL     1      45.510   2.820   8.298  0.00  0.00    +0.000 A 
ATOM     10  C   UNL     1      45.992   3.492   7.175  0.00  0.00    +0.000 A 
ATOM     11  C   UNL     1      46.842   2.817   6.303  0.00  0.00    +0.000 A 
ATOM     12  C   UNL     1      47.199   1.503   6.579  0.00  0.00    +0.000 A 
ATOM     13  C   UNL     1      46.711   0.920   7.737  0.00  0.00    +0.000 A 
ATOM     14  N   UNL     1      45.885   1.545   8.605  0.00  0.00    +0.000 NA
ENDBRANCH   8   9
BRANCH   8  15
ATOM     15  O   UNL     1      43.655   4.362   8.450  0.00  0.00    +0.000 OA
ATOM     16  H   UNL     1      44.018   4.307   7.543  0.00  0.00    +0.000 HD
ENDBRANCH   8  15
ENDBRANCH   5   8
ENDBRANCH   1   2
BRANCH   1  19
ATOM     17  O   UNL     1      49.263   6.462  15.041  0.00  0.00    +0.000 OA
ATOM     18  C   UNL     1      48.287   5.845  15.453  0.00  0.00    +0.000 C 
ATOM     19  N   UNL     1      47.106   5.786  14.748  0.00  0.00    +0.000 N 
ATOM     20  H   UNL     1      46.263   5.477  15.217  0.00  0.00    +0.000 HD
BRANCH  18  21
ATOM     21  C   UNL     1      48.331   5.076  16.698  0.00  0.00    +0.000 A 
ATOM     22  C   UNL     1      48.274   3.688  16.670  0.00  0.00    +0.000 A 
ATOM     23  S   UNL     1      48.350   2.981  18.220  0.00  0.00    +0.000 S 
ATOM     24  C   UNL     1      48.499   4.501  18.973  0.00  0.00    +0.000 A 
ATOM     25  N   UNL     1      48.643   4.606  20.322  0.00  0.00    +0.000 NA
ATOM     26  C   UNL     1      48.769   5.821  20.748  0.00  0.00    +0.000 A 
ATOM     27  N   UNL     1      48.760   6.935  19.951  0.00  0.00    +0.000 N 
ATOM     28  C   UNL     1      48.588   6.876  18.593  0.00  0.00    +0.000 A 
ATOM     29  O   UNL     1      48.535   7.899  17.918  0.00  0.00    +0.000 OA
ATOM     30  C   UNL     1      48.464   5.535  18.057  0.00  0.00    +0.000 A 
ATOM     31  H   UNL     1      48.849   7.858  20.352  0.00  0.00    +0.000 HD
ENDBRANCH  18  21
ENDBRANCH   1  19
TORSDOF 6
ENDMDL
MODEL 2
REMARK VINA RESULT:    -8.312      1.646      2.318
REMARK INTER + INTRA:         -11.769
REMARK INTER:                 -11.008
REMARK INTRA:                  -0.761
REMARK UNBOUND:                -0.784
REMARK  Name = 
REMARK  6 active torsions:
REMARK  status: ('A' for Active; 'I' for Inactive)
REMARK    1  A    between atoms: C_2  and  C_19
REMARK    2  A    between atoms: N_3  and  C_4
REMARK    3  A    between atoms: C_4  and  C_5
REMARK    4  A    between atoms: C_8  and  C_9
REMARK    5  A    between atoms: C_9  and  O_10
REMARK    6  A    between atoms: C_9  and  C_11
REMARK                            x       y       z     vdW  Elec       q    Type
REMARK                         _______ _______ _______ _____ _____    ______ ____
ROOT
ATOM      1  C   UNL     1      47.204   7.601  13.316  0.00  0.00    +0.000 C 
ENDROOT
BRANCH   1   2
ATOM      2  C   UNL     1      46.509   6.649  12.379  0.00  0.00    +0.000 A 
ATOM      3  C   UNL     1      45.670   5.644  12.880  0.00  0.00    +0.000 A 
ATOM      4  C   UNL     1      44.975   4.793  12.013  0.00  0.00    +0.000 A 
ATOM      5  C   UNL     1      45.114   4.923  10.622  0.00  0.00    +0.000 A 
ATOM      6  C   UNL     1      46.001   5.894  10.132  0.00  0.00    +0.000 A 
ATOM      7  C   UNL     1      46.693   6.745  10.996  0.00  0.00    +0.000 A 
BRANCH   5   8
ATOM      8  C   UNL     1      44.356   4.005   9.675  0.00  0.00    +0.000 C 
BRANCH   8   9
ATOM      9  C   UNL     1      45.276   3.278   8.704  0.00  0.00    +0.000 A 
ATOM     10  C   UNL     1      45.515   1.912   8.845  0.00  0.00    +0.000 A 
ATOM     11  C   UNL     1      46.441   1.302   8.003  0.00  0.00    +0.000 A 
ATOM     12  C   UNL     1      47.090   2.063   7.038  0.00  0.00    +0.000 A 
ATOM     13  C   UNL     1      46.766   3.406   6.934  0.00  0.00    +0.000 A 
ATOM     14  N   UNL     1      45.872   4.029   7.733  0.00  0.00    +0.000 NA
ENDBRANCH   8   9
BRANCH   8  15
ATOM     15  O   UNL     1      43.397   4.781   8.940  0.00  0.00    +0.000 OA
ATOM     16  H   UNL     1      42.556   4.294   9.058  0.00  0.00    +0.000 HD
ENDBRANCH   8  15
ENDBRANCH   5   8
ENDBRANCH   1   2
BRANCH   1  19
ATOM     17  O   UNL     1      49.754   6.920  14.164  0.00  0.00    +0.000 OA
ATOM     18  C   UNL     1      48.820   6.742  14.938  0.00  0.00    +0.000 C 
ATOM     19  N   UNL     1      47.514   6.986  14.580  0.00  0.00    +0.000 N 
ATOM     20  H   UNL     1      46.806   7.057  15.301  0.00  0.00    +0.000 HD
BRANCH  18  21
ATOM     21  C   UNL     1      49.026   6.199  16.282  0.00  0.00    +0.000 A 
ATOM     22  C   UNL     1      49.735   6.923  17.233  0.00  0.00    +0.000 A 
ATOM     23  S   UNL     1      49.853   6.124  18.735  0.00  0.00    +0.000 S 
ATOM     24  C   UNL     1      48.932   4.806  18.176  0.00  0.00    +0.000 A 
ATOM     25  N   UNL     1      48.627   3.764  18.995  0.00  0.00    +0.000 NA
ATOM     26  C   UNL     1      47.900   2.848  18.440  0.00  0.00    +0.000 A 
ATOM     27  N   UNL     1      47.459   2.879  17.144  0.00  0.00    +0.000 N 
ATOM     28  C   UNL     1      47.767   3.894  16.277  0.00  0.00    +0.000 A 
ATOM     29  O   UNL     1      47.395   3.862  15.108  0.00  0.00    +0.000 OA
ATOM     30  C   UNL     1      48.562   4.961  16.853  0.00  0.00    +0.000 A 
ATOM     31  H   UNL     1      46.905   2.121  16.769  0.00  0.00    +0.000 HD
ENDBRANCH  18  21
ENDBRANCH   1  19
TORSDOF 6
ENDMDL
MODEL 3
REMARK VINA RESULT:    -8.224      1.330      1.958
REMARK INTER + INTRA:         -11.652
REMARK INTER:                 -10.801
REMARK INTRA:                  -0.851
REMARK UNBOUND:                -0.784
REMARK  Name = 
REMARK  6 active torsions:
REMARK  status: ('A' for Active; 'I' for Inactive)
REMARK    1  A    between atoms: C_2  and  C_19
REMARK    2  A    between atoms: N_3  and  C_4
REMARK    3  A    between atoms: C_4  and  C_5
REMARK    4  A    between atoms: C_8  and  C_9
REMARK    5  A    between atoms: C_9  and  O_10
REMARK    6  A    between atoms: C_9  and  C_11
REMARK                            x       y       z     vdW  Elec       q    Type
REMARK                         _______ _______ _______ _____ _____    ______ ____
ROOT
ATOM      1  C   UNL     1      48.085   6.938  14.033  0.00  0.00    +0.000 C 
ENDROOT
BRANCH   1   2
ATOM      2  C   UNL     1      47.095   6.270  13.115  0.00  0.00    +0.000 A 
ATOM      3  C   UNL     1      46.753   6.857  11.889  0.00  0.00    +0.000 A 
ATOM      4  C   UNL     1      45.879   6.213  11.006  0.00  0.00    +0.000 A 
ATOM      5  C   UNL     1      45.317   4.970  11.337  0.00  0.00    +0.000 A 
ATOM      6  C   UNL     1      45.620   4.419  12.591  0.00  0.00    +0.000 A 
ATOM      7  C   UNL     1      46.495   5.058  13.472  0.00  0.00    +0.000 A 
BRANCH   5   8
ATOM      8  C   UNL     1      44.371   4.263  10.378  0.00  0.00    +0.000 C 
BRANCH   8   9
ATOM      9  C   UNL     1      45.106   3.570   9.238  0.00  0.00    +0.000 A 
ATOM     10  C   UNL     1      45.273   2.185   9.244  0.00  0.00    +0.000 A 
ATOM     11  C   UNL     1      46.037   1.598   8.240  0.00  0.00    +0.000 A 
ATOM     12  C   UNL     1      46.601   2.399   7.254  0.00  0.00    +0.000 A 
ATOM     13  C   UNL     1      46.353   3.761   7.295  0.00  0.00    +0.000 A 
ATOM     14  N   UNL     1      45.616   4.365   8.254  0.00  0.00    +0.000 NA
ENDBRANCH   8   9
BRANCH   8  15
ATOM     15  O   UNL     1      43.448   5.222   9.841  0.00  0.00    +0.000 OA
ATOM     16  H   UNL     1      43.593   5.178   8.875  0.00  0.00    +0.000 HD
ENDBRANCH   8  15
ENDBRANCH   5   8
ENDBRANCH   1   2
BRANCH   1  19
ATOM     17  O   UNL     1      50.193   6.352  15.735  0.00  0.00    +0.000 OA
ATOM     18  C   UNL     1      49.054   6.289  16.182  0.00  0.00    +0.000 C 
ATOM     19  N   UNL     1      47.944   6.496  15.395  0.00  0.00    +0.000 N 
ATOM     20  H   UNL     1      47.048   6.670  15.834  0.00  0.00    +0.000 HD
BRANCH  18  21
ATOM     21  C   UNL     1      48.792   5.930  17.577  0.00  0.00    +0.000 A 
ATOM     22  C   UNL     1      49.072   4.648  18.038  0.00  0.00    +0.000 A 
ATOM     23  S   UNL     1      48.708   4.435  19.691  0.00  0.00    +0.000 S 
ATOM     24  C   UNL     1      48.203   6.052  19.852  0.00  0.00    +0.000 A 
ATOM     25  N   UNL     1      47.790   6.543  21.051  0.00  0.00    +0.000 NA
ATOM     26  C   UNL     1      47.460   7.795  21.027  0.00  0.00    +0.000 A 
ATOM     27  N   UNL     1      47.501   8.592  19.914  0.00  0.00    +0.000 N 
ATOM     28  C   UNL     1      47.881   8.131  18.682  0.00  0.00    +0.000 A 
ATOM     29  O   UNL     1      47.857   8.864  17.697  0.00  0.00    +0.000 OA
ATOM     30  C   UNL     1      48.284   6.739  18.655  0.00  0.00    +0.000 A 
ATOM     31  H   UNL     1      47.215   9.560  19.963  0.00  0.00    +0.000 HD
ENDBRANCH  18  21
ENDBRANCH   1  19
TORSDOF 6
ENDMDL
MODEL 4
REMARK VINA RESULT:    -8.134      3.009      4.648
REMARK INTER + INTRA:         -11.534
REMARK INTER:                 -10.429
REMARK INTRA:                  -1.105
REMARK UNBOUND:                -0.784
REMARK  Name = 
REMARK  6 active torsions:
REMARK  status: ('A' for Active; 'I' for Inactive)
REMARK    1  A    between atoms: C_2  and  C_19
REMARK    2  A    between atoms: N_3  and  C_4
REMARK    3  A    between atoms: C_4  and  C_5
REMARK    4  A    between atoms: C_8  and  C_9
REMARK    5  A    between atoms: C_9  and  O_10
REMARK    6  A    between atoms: C_9  and  C_11
REMARK                            x       y       z     vdW  Elec       q    Type
REMARK                         _______ _______ _______ _____ _____    ______ ____
ROOT
ATOM      1  C   UNL     1      46.779   4.995  14.392  0.00  0.00    +0.000 C 
ENDROOT
BRANCH   1   2
ATOM      2  C   UNL     1      46.134   4.582  13.095  0.00  0.00    +0.000 A 
ATOM      3  C   UNL     1      45.972   5.507  12.055  0.00  0.00    +0.000 A 
ATOM      4  C   UNL     1      45.427   5.117  10.827  0.00  0.00    +0.000 A 
ATOM      5  C   UNL     1      45.019   3.790  10.617  0.00  0.00    +0.000 A 
ATOM      6  C   UNL     1      45.132   2.885  11.683  0.00  0.00    +0.000 A 
ATOM      7  C   UNL     1      45.678   3.273  12.908  0.00  0.00    +0.000 A 
BRANCH   5   8
ATOM      8  C   UNL     1      44.432   3.358   9.281  0.00  0.00    +0.000 C 
BRANCH   8   9
ATOM      9  C   UNL     1      45.483   2.792   8.336  0.00  0.00    +0.000 A 
ATOM     10  C   UNL     1      45.964   3.558   7.274  0.00  0.00    +0.000 A 
ATOM     11  C   UNL     1      46.846   2.972   6.370  0.00  0.00    +0.000 A 
ATOM     12  C   UNL     1      47.235   1.650   6.556  0.00  0.00    +0.000 A 
ATOM     13  C   UNL     1      46.745   0.971   7.659  0.00  0.00    +0.000 A 
ATOM     14  N   UNL     1      45.889   1.509   8.556  0.00  0.00    +0.000 NA
ENDBRANCH   8   9
BRANCH   8  15
ATOM     15  O   UNL     1      43.790   4.486   8.667  0.00  0.00    +0.000 OA
ATOM     16  H   UNL     1      44.425   5.220   8.794  0.00  0.00    +0.000 HD
ENDBRANCH   8  15
ENDBRANCH   5   8
ENDBRANCH   1   2
BRANCH   1  19
ATOM     17  O   UNL     1      49.110   5.971  15.532  0.00  0.00    +0.000 OA
ATOM     18  C   UNL     1      48.395   6.753  14.917  0.00  0.00    +0.000 C 
ATOM     19  N   UNL     1      47.187   6.374  14.377  0.00  0.00    +0.000 N 
ATOM     20  H   UNL     1      46.744   6.968  13.686  0.00  0.00    +0.000 HD
BRANCH  18  21
ATOM     21  C   UNL     1      48.750   8.166  14.766  0.00  0.00    +0.000 A 
ATOM     22  C   UNL     1      48.886   8.981  15.884  0.00  0.00    +0.000 A 
ATOM     23  S   UNL     1      49.314  10.586  15.497  0.00  0.00    +0.000 S 
ATOM     24  C   UNL     1      49.370  10.234  13.832  0.00  0.00    +0.000 A 
ATOM     25  N   UNL     1      49.716  11.187  12.924  0.00  0.00    +0.000 NA
ATOM     26  C   UNL     1      49.739  10.768  11.699  0.00  0.00    +0.000 A 
ATOM     27  N   UNL     1      49.442   9.491  11.304  0.00  0.00    +0.000 N 
ATOM     28  C   UNL     1      49.059   8.510  12.181  0.00  0.00    +0.000 A 
ATOM     29  O   UNL     1      48.752   7.391  11.783  0.00  0.00    +0.000 OA
ATOM     30  C   UNL     1      49.038   8.918  13.572  0.00  0.00    +0.000 A 
ATOM     31  H   UNL     1      49.465   9.235  10.327  0.00  0.00    +0.000 HD
ENDBRANCH  18  21
ENDBRANCH   1  19
TORSDOF 6
ENDMDL
MODEL 5
REMARK VINA RESULT:    -7.773      3.402      4.260
REMARK INTER + INTRA:         -11.057
REMARK INTER:                 -10.037
REMARK INTRA:                  -1.020
REMARK UNBOUND:                -0.784
REMARK  Name = 
REMARK  6 active torsions:
REMARK  status: ('A' for Active; 'I' for Inactive)
REMARK    1  A    between atoms: C_2  and  C_19
REMARK    2  A    between atoms: N_3  and  C_4
REMARK    3  A    between atoms: C_4  and  C_5
REMARK    4  A    between atoms: C_8  and  C_9
REMARK    5  A    between atoms: C_9  and  O_10
REMARK    6  A    between atoms: C_9  and  C_11
REMARK                            x       y       z     vdW  Elec       q    Type
REMARK                         _______ _______ _______ _____ _____    ______ ____
ROOT
ATOM      1  C   UNL     1      46.833   5.818  14.004  0.00  0.00    +0.000 C 
ENDROOT
BRANCH   1   2
ATOM      2  C   UNL     1      46.179   5.205  12.793  0.00  0.00    +0.000 A 
ATOM      3  C   UNL     1      46.050   5.940  11.607  0.00  0.00    +0.000 A 
ATOM      4  C   UNL     1      45.496   5.358  10.461  0.00  0.00    +0.000 A 
ATOM      5  C   UNL     1      45.048   4.027  10.482  0.00  0.00    +0.000 A 
ATOM      6  C   UNL     1      45.128   3.320  11.690  0.00  0.00    +0.000 A 
ATOM      7  C   UNL     1      45.683   3.898  12.833  0.00  0.00    +0.000 A 
BRANCH   5   8
ATOM      8  C   UNL     1      44.451   3.388   9.237  0.00  0.00    +0.000 C 
BRANCH   8   9
ATOM      9  C   UNL     1      45.512   2.793   8.320  0.00  0.00    +0.000 A 
ATOM     10  C   UNL     1      46.008   3.527   7.244  0.00  0.00    +0.000 A 
ATOM     11  C   UNL     1      46.899   2.914   6.367  0.00  0.00    +0.000 A 
ATOM     12  C   UNL     1      47.280   1.597   6.593  0.00  0.00    +0.000 A 
ATOM     13  C   UNL     1      46.774   0.949   7.708  0.00  0.00    +0.000 A 
ATOM     14  N   UNL     1      45.909   1.514   8.579  0.00  0.00    +0.000 NA
ENDBRANCH   8   9
BRANCH   8  15
ATOM     15  O   UNL     1      43.696   4.376   8.520  0.00  0.00    +0.000 OA
ATOM     16  H   UNL     1      42.904   3.892   8.211  0.00  0.00    +0.000 HD
ENDBRANCH   8  15
ENDBRANCH   5   8
ENDBRANCH   1   2
BRANCH   1  19
ATOM     17  O   UNL     1      47.070   8.580  14.002  0.00  0.00    +0.000 OA
ATOM     18  C   UNL     1      48.067   7.914  13.752  0.00  0.00    +0.000 C 
ATOM     19  N   UNL     1      48.030   6.541  13.663  0.00  0.00    +0.000 N 
ATOM     20  H   UNL     1      48.896   6.017  13.693  0.00  0.00    +0.000 HD
BRANCH  18  21
ATOM     21  C   UNL     1      49.361   8.539  13.471  0.00  0.00    +0.000 A 
ATOM     22  C   UNL     1      49.458   9.569  12.543  0.00  0.00    +0.000 A 
ATOM     23  S   UNL     1      51.045  10.170  12.369  0.00  0.00    +0.000 S 
ATOM     24  C   UNL     1      51.644   9.103  13.551  0.00  0.00    +0.000 A 
ATOM     25  N   UNL     1      52.955   9.121  13.915  0.00  0.00    +0.000 NA
ATOM     26  C   UNL     1      53.260   8.272  14.843  0.00  0.00    +0.000 A 
ATOM     27  N   UNL     1      52.377   7.405  15.431  0.00  0.00    +0.000 N 
ATOM     28  C   UNL     1      51.056   7.332  15.074  0.00  0.00    +0.000 A 
ATOM     29  O   UNL     1      50.306   6.509  15.588  0.00  0.00    +0.000 OA
ATOM     30  C   UNL     1      50.653   8.280  14.053  0.00  0.00    +0.000 A 
ATOM     31  H   UNL     1      52.686   6.756  16.141  0.00  0.00    +0.000 HD
ENDBRANCH  18  21
ENDBRANCH   1  19
TORSDOF 6
ENDMDL
MODEL 6
REMARK VINA RESULT:    -7.554      3.435      4.891
REMARK INTER + INTRA:         -10.766
REMARK INTER:                  -9.595
REMARK INTRA:                  -1.171
REMARK UNBOUND:                -0.784
REMARK  Name = 
REMARK  6 active torsions:
REMARK  status: ('A' for Active; 'I' for Inactive)
REMARK    1  A    between atoms: C_2  and  C_19
REMARK    2  A    between atoms: N_3  and  C_4
REMARK    3  A    between atoms: C_4  and  C_5
REMARK    4  A    between atoms: C_8  and  C_9
REMARK    5  A    between atoms: C_9  and  O_10
REMARK    6  A    between atoms: C_9  and  C_11
REMARK                            x       y       z     vdW  Elec       q    Type
REMARK                         _______ _______ _______ _____ _____    ______ ____
ROOT
ATOM      1  C   UNL     1      47.108   5.933  14.367  0.00  0.00    +0.000 C 
ENDROOT
BRANCH   1   2
ATOM      2  C   UNL     1      46.454   5.336  13.149  0.00  0.00    +0.000 A 
ATOM      3  C   UNL     1      46.014   4.005  13.158  0.00  0.00    +0.000 A 
ATOM      4  C   UNL     1      45.352   3.461  12.052  0.00  0.00    +0.000 A 
ATOM      5  C   UNL     1      45.127   4.237  10.903  0.00  0.00    +0.000 A 
ATOM      6  C   UNL     1      45.622   5.549  10.882  0.00  0.00    +0.000 A 
ATOM      7  C   UNL     1      46.280   6.094  11.987  0.00  0.00    +0.000 A 
BRANCH   5   8
ATOM      8  C   UNL     1      44.402   3.652   9.700  0.00  0.00    +0.000 C 
BRANCH   8   9
ATOM      9  C   UNL     1      45.352   2.995   8.708  0.00  0.00    +0.000 A 
ATOM     10  C   UNL     1      45.886   3.729   7.649  0.00  0.00    +0.000 A 
ATOM     11  C   UNL     1      46.668   3.071   6.703  0.00  0.00    +0.000 A 
ATOM     12  C   UNL     1      46.907   1.709   6.845  0.00  0.00    +0.000 A 
ATOM     13  C   UNL     1      46.375   1.061   7.947  0.00  0.00    +0.000 A 
ATOM     14  N   UNL     1      45.613   1.668   8.884  0.00  0.00    +0.000 NA
ENDBRANCH   8   9
BRANCH   8  15
ATOM     15  O   UNL     1      43.668   4.697   9.044  0.00  0.00    +0.000 OA
ATOM     16  H   UNL     1      44.173   5.510   9.252  0.00  0.00    +0.000 HD
ENDBRANCH   8  15
ENDBRANCH   5   8
ENDBRANCH   1   2
BRANCH   1  19
ATOM     17  O   UNL     1      47.843   8.587  14.686  0.00  0.00    +0.000 OA
ATOM     18  C   UNL     1      48.700   7.789  14.324  0.00  0.00    +0.000 C 
ATOM     19  N   UNL     1      48.412   6.466  14.073  0.00  0.00    +0.000 N 
ATOM     20  H   UNL     1      49.169   5.796  14.009  0.00  0.00    +0.000 HD
BRANCH  18  21
ATOM     21  C   UNL     1      50.082   8.202  14.074  0.00  0.00    +0.000 A 
ATOM     22  C   UNL     1      50.894   8.614  15.124  0.00  0.00    +0.000 A 
ATOM     23  S   UNL     1      52.469   9.043  14.628  0.00  0.00    +0.000 S 
ATOM     24  C   UNL     1      52.128   8.657  13.005  0.00  0.00    +0.000 A 
ATOM     25  N   UNL     1      53.082   8.769  12.041  0.00  0.00    +0.000 NA
ATOM     26  C   UNL     1      52.686   8.418  10.860  0.00  0.00    +0.000 A 
ATOM     27  N   UNL     1      51.426   7.973  10.558  0.00  0.00    +0.000 N 
ATOM     28  C   UNL     1      50.428   7.874  11.491  0.00  0.00    +0.000 A 
ATOM     29  O   UNL     1      49.297   7.519  11.173  0.00  0.00    +0.000 OA
ATOM     30  C   UNL     1      50.823   8.234  12.839  0.00  0.00    +0.000 A 
ATOM     31  H   UNL     1      51.179   7.728   9.609  0.00  0.00    +0.000 HD
ENDBRANCH  18  21
ENDBRANCH   1  19
TORSDOF 6
ENDMDL
MODEL 7
REMARK VINA RESULT:    -7.387      4.390      9.317
REMARK INTER + INTRA:         -10.547
REMARK INTER:                 -10.043
REMARK INTRA:                  -0.503
REMARK UNBOUND:                -0.784
REMARK  Name = 
REMARK  6 active torsions:
REMARK  status: ('A' for Active; 'I' for Inactive)
REMARK    1  A    between atoms: C_2  and  C_19
REMARK    2  A    between atoms: N_3  and  C_4
REMARK    3  A    between atoms: C_4  and  C_5
REMARK    4  A    between atoms: C_8  and  C_9
REMARK    5  A    between atoms: C_9  and  O_10
REMARK    6  A    between atoms: C_9  and  C_11
REMARK                            x       y       z     vdW  Elec       q    Type
REMARK                         _______ _______ _______ _____ _____    ______ ____
ROOT
ATOM      1  C   UNL     1      47.224   3.323  16.749  0.00  0.00    +0.000 C 
ENDROOT
BRANCH   1   2
ATOM      2  C   UNL     1      48.680   3.349  17.136  0.00  0.00    +0.000 A 
ATOM      3  C   UNL     1      49.247   4.502  17.694  0.00  0.00    +0.000 A 
ATOM      4  C   UNL     1      50.584   4.514  18.110  0.00  0.00    +0.000 A 
ATOM      5  C   UNL     1      51.387   3.371  17.964  0.00  0.00    +0.000 A 
ATOM      6  C   UNL     1      50.826   2.241  17.351  0.00  0.00    +0.000 A 
ATOM      7  C   UNL     1      49.492   2.227  16.939  0.00  0.00    +0.000 A 
BRANCH   5   8
ATOM      8  C   UNL     1      52.838   3.377  18.420  0.00  0.00    +0.000 C 
BRANCH   8   9
ATOM      9  C   UNL     1      53.596   2.133  17.975  0.00  0.00    +0.000 A 
ATOM     10  C   UNL     1      54.591   2.223  17.003  0.00  0.00    +0.000 A 
ATOM     11  C   UNL     1      55.190   1.052  16.547  0.00  0.00    +0.000 A 
ATOM     12  C   UNL     1      54.793  -0.170  17.078  0.00  0.00    +0.000 A 
ATOM     13  C   UNL     1      53.827  -0.170  18.070  0.00  0.00    +0.000 A 
ATOM     14  N   UNL     1      53.225   0.947  18.537  0.00  0.00    +0.000 NA
ENDBRANCH   8   9
BRANCH   8  15
ATOM     15  O   UNL     1      52.877   3.477  19.851  0.00  0.00    +0.000 OA
ATOM     16  H   UNL     1      53.811   3.692  20.049  0.00  0.00    +0.000 HD
ENDBRANCH   8  15
ENDBRANCH   5   8
ENDBRANCH   1   2
BRANCH   1  19
ATOM     17  O   UNL     1      47.244   3.049  13.991  0.00  0.00    +0.000 OA
ATOM     18  C   UNL     1      46.873   4.117  14.464  0.00  0.00    +0.000 C 
ATOM     19  N   UNL     1      46.895   4.368  15.817  0.00  0.00    +0.000 N 
ATOM     20  H   UNL     1      46.369   5.152  16.185  0.00  0.00    +0.000 HD
BRANCH  18  21
ATOM     21  C   UNL     1      46.435   5.226  13.613  0.00  0.00    +0.000 A 
ATOM     22  C   UNL     1      47.295   6.282  13.337  0.00  0.00    +0.000 A 
ATOM     23  S   UNL     1      46.602   7.464  12.320  0.00  0.00    +0.000 S 
ATOM     24  C   UNL     1      45.150   6.585  12.186  0.00  0.00    +0.000 A 
ATOM     25  N   UNL     1      44.125   7.035  11.413  0.00  0.00    +0.000 NA
ATOM     26  C   UNL     1      43.096   6.251  11.388  0.00  0.00    +0.000 A 
ATOM     27  N   UNL     1      42.999   5.066  12.068  0.00  0.00    +0.000 N 
ATOM     28  C   UNL     1      43.994   4.592  12.881  0.00  0.00    +0.000 A 
ATOM     29  O   UNL     1      43.850   3.550  13.515  0.00  0.00    +0.000 OA
ATOM     30  C   UNL     1      45.183   5.420  12.929  0.00  0.00    +0.000 A 
ATOM     31  H   UNL     1      42.158   4.509  12.016  0.00  0.00    +0.000 HD
ENDBRANCH  18  21
ENDBRANCH   1  19
TORSDOF 6
ENDMDL
MODEL 8
REMARK VINA RESULT:    -6.917      4.350      8.956
REMARK INTER + INTRA:          -9.925
REMARK INTER:                  -9.014
REMARK INTRA:                  -0.911
REMARK UNBOUND:                -0.784
REMARK  Name = 
REMARK  6 active torsions:
REMARK  status: ('A' for Active; 'I' for Inactive)
REMARK    1  A    between atoms: C_2  and  C_19
REMARK    2  A    between atoms: N_3  and  C_4
REMARK    3  A    between atoms: C_4  and  C_5
REMARK    4  A    between atoms: C_8  and  C_9
REMARK    5  A    between atoms: C_9  and  O_10
REMARK    6  A    between atoms: C_9  and  C_11
REMARK                            x       y       z     vdW  Elec       q    Type
REMARK                         _______ _______ _______ _____ _____    ______ ____
ROOT
ATOM      1  C   UNL     1      47.503   3.548  16.814  0.00  0.00    +0.000 C 
ENDROOT
BRANCH   1   2
ATOM      2  C   UNL     1      48.952   3.434  17.206  0.00  0.00    +0.000 A 
ATOM      3  C   UNL     1      49.615   4.515  17.803  0.00  0.00    +0.000 A 
ATOM      4  C   UNL     1      50.944   4.397  18.224  0.00  0.00    +0.000 A 
ATOM      5  C   UNL     1      51.645   3.194  18.044  0.00  0.00    +0.000 A 
ATOM      6  C   UNL     1      50.992   2.137  17.393  0.00  0.00    +0.000 A 
ATOM      7  C   UNL     1      49.664   2.252  16.976  0.00  0.00    +0.000 A 
BRANCH   5   8
ATOM      8  C   UNL     1      53.089   3.058  18.505  0.00  0.00    +0.000 C 
BRANCH   8   9
ATOM      9  C   UNL     1      53.751   1.788  17.988  0.00  0.00    +0.000 A 
ATOM     10  C   UNL     1      54.632   1.840  16.908  0.00  0.00    +0.000 A 
ATOM     11  C   UNL     1      55.137   0.647  16.397  0.00  0.00    +0.000 A 
ATOM     12  C   UNL     1      54.765  -0.557  16.982  0.00  0.00    +0.000 A 
ATOM     13  C   UNL     1      53.919  -0.521  18.078  0.00  0.00    +0.000 A 
ATOM     14  N   UNL     1      53.410   0.618  18.600  0.00  0.00    +0.000 NA
ENDBRANCH   8   9
BRANCH   8  15
ATOM     15  O   UNL     1      53.124   3.069  19.940  0.00  0.00    +0.000 OA
ATOM     16  H   UNL     1      52.814   2.175  20.192  0.00  0.00    +0.000 HD
ENDBRANCH   8  15
ENDBRANCH   5   8
ENDBRANCH   1   2
BRANCH   1  19
ATOM     17  O   UNL     1      47.282   3.163  14.078  0.00  0.00    +0.000 OA
ATOM     18  C   UNL     1      47.126   4.296  14.517  0.00  0.00    +0.000 C 
ATOM     19  N   UNL     1      47.284   4.595  15.852  0.00  0.00    +0.000 N 
ATOM     20  H   UNL     1      46.921   5.469  16.212  0.00  0.00    +0.000 HD
BRANCH  18  21
ATOM     21  C   UNL     1      46.817   5.428  13.640  0.00  0.00    +0.000 A 
ATOM     22  C   UNL     1      45.663   5.422  12.865  0.00  0.00    +0.000 A 
ATOM     23  S   UNL     1      45.480   6.833  11.923  0.00  0.00    +0.000 S 
ATOM     24  C   UNL     1      46.912   7.509  12.547  0.00  0.00    +0.000 A 
ATOM     25  N   UNL     1      47.326   8.749  12.170  0.00  0.00    +0.000 NA
ATOM     26  C   UNL     1      48.418   9.141  12.745  0.00  0.00    +0.000 A 
ATOM     27  N   UNL     1      49.131   8.405  13.653  0.00  0.00    +0.000 N 
ATOM     28  C   UNL     1      48.767   7.141  14.037  0.00  0.00    +0.000 A 
ATOM     29  O   UNL     1      49.459   6.492  14.815  0.00  0.00    +0.000 OA
ATOM     30  C   UNL     1      47.537   6.659  13.441  0.00  0.00    +0.000 A 
ATOM     31  H   UNL     1      49.986   8.766  14.053  0.00  0.00    +0.000 HD
ENDBRANCH  18  21
ENDBRANCH   1  19
TORSDOF 6
ENDMDL
MODEL 9
REMARK VINA RESULT:    -6.881      3.990      8.714
REMARK INTER + INTRA:          -9.878
REMARK INTER:                  -8.705
REMARK INTRA:                  -1.173
REMARK UNBOUND:                -0.784
REMARK  Name = 
REMARK  6 active torsions:
REMARK  status: ('A' for Active; 'I' for Inactive)
REMARK    1  A    between atoms: C_2  and  C_19
REMARK    2  A    between atoms: N_3  and  C_4
REMARK    3  A    between atoms: C_4  and  C_5
REMARK    4  A    between atoms: C_8  and  C_9
REMARK    5  A    between atoms: C_9  and  O_10
REMARK    6  A    between atoms: C_9  and  C_11
REMARK                            x       y       z     vdW  Elec       q    Type
REMARK                         _______ _______ _______ _____ _____    ______ ____
ROOT
ATOM      1  C   UNL     1      48.702   7.738  14.250  0.00  0.00    +0.000 C 
ENDROOT
BRANCH   1   2
ATOM      2  C   UNL     1      49.215   6.947  15.425  0.00  0.00    +0.000 A 
ATOM      3  C   UNL     1      48.386   6.027  16.079  0.00  0.00    +0.000 A 
ATOM      4  C   UNL     1      48.873   5.246  17.134  0.00  0.00    +0.000 A 
ATOM      5  C   UNL     1      50.202   5.380  17.566  0.00  0.00    +0.000 A 
ATOM      6  C   UNL     1      51.007   6.345  16.943  0.00  0.00    +0.000 A 
ATOM      7  C   UNL     1      50.523   7.122  15.889  0.00  0.00    +0.000 A 
BRANCH   5   8
ATOM      8  C   UNL     1      50.738   4.529  18.707  0.00  0.00    +0.000 C 
BRANCH   8   9
ATOM      9  C   UNL     1      51.545   3.335  18.217  0.00  0.00    +0.000 A 
ATOM     10  C   UNL     1      50.906   2.240  17.636  0.00  0.00    +0.000 A 
ATOM     11  C   UNL     1      51.664   1.124  17.294  0.00  0.00    +0.000 A 
ATOM     12  C   UNL     1      53.034   1.132  17.527  0.00  0.00    +0.000 A 
ATOM     13  C   UNL     1      53.600   2.274  18.070  0.00  0.00    +0.000 A 
ATOM     14  N   UNL     1      52.895   3.375  18.412  0.00  0.00    +0.000 NA
ENDBRANCH   8   9
BRANCH   8  15
ATOM     15  O   UNL     1      49.637   4.071  19.506  0.00  0.00    +0.000 OA
ATOM     16  H   UNL     1      49.000   3.718  18.852  0.00  0.00    +0.000 HD
ENDBRANCH   8  15
ENDBRANCH   5   8
ENDBRANCH   1   2
BRANCH   1  19
ATOM     17  O   UNL     1      47.994   7.385  11.594  0.00  0.00    +0.000 OA
ATOM     18  C   UNL     1      47.186   7.060  12.456  0.00  0.00    +0.000 C 
ATOM     19  N   UNL     1      47.422   7.262  13.797  0.00  0.00    +0.000 N 
ATOM     20  H   UNL     1      46.855   6.776  14.480  0.00  0.00    +0.000 HD
BRANCH  18  21
ATOM     21  C   UNL     1      45.882   6.487  12.114  0.00  0.00    +0.000 A 
ATOM     22  C   UNL     1      44.918   7.262  11.479  0.00  0.00    +0.000 A 
ATOM     23  S   UNL     1      43.477   6.409  11.157  0.00  0.00    +0.000 S 
ATOM     24  C   UNL     1      44.107   4.973  11.818  0.00  0.00    +0.000 A 
ATOM     25  N   UNL     1      43.378   3.823  11.825  0.00  0.00    +0.000 NA
ATOM     26  C   UNL     1      43.996   2.808  12.337  0.00  0.00    +0.000 A 
ATOM     27  N   UNL     1      45.267   2.840  12.845  0.00  0.00    +0.000 N 
ATOM     28  C   UNL     1      46.024   3.981  12.886  0.00  0.00    +0.000 A 
ATOM     29  O   UNL     1      47.140   3.983  13.395  0.00  0.00    +0.000 OA
ATOM     30  C   UNL     1      45.389   5.148  12.304  0.00  0.00    +0.000 A 
ATOM     31  H   UNL     1      45.685   2.011  13.245  0.00  0.00    +0.000 HD
ENDBRANCH  18  21
ENDBRANCH   1  19
TORSDOF 6
ENDMDL
