MODEL 1
REMARK VINA RESULT:    -7.237      0.000      0.000
REMARK INTER + INTRA:         -11.285
REMARK INTER:                  -9.776
REMARK INTRA:                  -1.509
REMARK UNBOUND:                -1.509
REMARK  Name = 
REMARK  7 active torsions:
REMARK  status: ('A' for Active; 'I' for Inactive)
REMARK    1  A    between atoms: C_1  and  C_2
REMARK    2  A    between atoms: C_2  and  C_3
REMARK    3  A    between atoms: C_7  and  C_8
REMARK    4  A    between atoms: C_8  and  C_9
REMARK    5  A    between atoms: C_9  and  N_10
REMARK    6  A    between atoms: C_14  and  C_15
REMARK    7  A    between atoms: C_25  and  C_26
REMARK                            x       y       z     vdW  Elec       q    Type
REMARK                         _______ _______ _______ _____ _____    ______ ____
ROOT
ATOM      1  C   UNL     1      45.581   6.849  11.892  0.00  0.00    +0.000 A 
ATOM      2  C   UNL     1      44.731   7.968  11.844  0.00  0.00    +0.000 A 
ATOM      3  C   UNL     1      45.252   9.267  11.813  0.00  0.00    +0.000 A 
ATOM      4  C   UNL     1      46.628   9.478  11.867  0.00  0.00    +0.000 A 
ATOM      5  C   UNL     1      47.499   8.388  11.935  0.00  0.00    +0.000 A 
ATOM      6  C   UNL     1      46.968   7.088  11.919  0.00  0.00    +0.000 A 
ENDROOT
BRANCH   1   8
ATOM      7  C   UNL     1      46.079   4.401  12.571  0.00  0.00    +0.000 C 
ATOM      8  C   UNL     1      45.047   5.429  12.084  0.00  0.00    +0.000 C 
ATOM      9  C   UNL     1      43.866   5.465  13.028  0.00  0.00    +0.000 C 
ATOM     10  C   UNL     1      42.764   5.047  12.404  0.00  0.00    +0.000 C 
ATOM     11  N   UNL     1      42.980   4.659  11.113  0.00  0.00    +0.000 NA
ATOM     12  C   UNL     1      44.260   4.848  10.912  0.00  0.00    +0.000 C 
BRANCH  12  13
ATOM     13  C   UNL     1      44.964   4.491   9.628  0.00  0.00    +0.000 C 
ATOM     14  F   UNL     1      45.975   5.345   9.310  0.00  0.00    +0.000 F 
ATOM     15  F   UNL     1      45.526   3.252   9.681  0.00  0.00    +0.000 F 
ATOM     16  F   UNL     1      44.121   4.489   8.559  0.00  0.00    +0.000 F 
ENDBRANCH  12  13
ENDBRANCH   1   8
BRANCH   5  17
ATOM     17  C   UNL     1      48.979   8.586  12.187  0.00  0.00    +0.000 C 
BRANCH  17  18
ATOM     18  C   UNL     1      49.576   7.286  12.743  0.00  0.00    +0.000 C 
BRANCH  18  19
ATOM     19  N   UNL     1      50.187   7.483  14.066  0.00  0.00    +0.000 N 
ATOM     20  C   UNL     1      49.522   6.747  15.069  0.00  0.00    +0.000 A 
ATOM     21  C   UNL     1      49.945   6.826  16.397  0.00  0.00    +0.000 A 
ATOM     22  N   UNL     1      49.353   6.156  17.424  0.00  0.00    +0.000 NA
ATOM     23  C   UNL     1      48.300   5.360  17.082  0.00  0.00    +0.000 A 
ATOM     24  C   UNL     1      47.892   5.262  15.762  0.00  0.00    +0.000 A 
ATOM     25  N   UNL     1      48.488   5.937  14.749  0.00  0.00    +0.000 NA
ATOM     26  H   UNL     1      50.207   8.462  14.333  0.00  0.00    +0.000 HD
BRANCH  23  27
ATOM     27  C   UNL     1      47.531   4.568  18.116  0.00  0.00    +0.000 C 
ATOM     28  F   UNL     1      48.298   4.018  19.097  0.00  0.00    +0.000 F 
ATOM     29  F   UNL     1      46.595   5.329  18.757  0.00  0.00    +0.000 F 
ATOM     30  F   UNL     1      46.833   3.533  17.564  0.00  0.00    +0.000 F 
ENDBRANCH  23  27
ENDBRANCH  18  19
ENDBRANCH  17  18
ENDBRANCH   5  17
TORSDOF 6
ENDMDL
MODEL 2
REMARK VINA RESULT:    -7.231      3.407      7.548
REMARK INTER + INTRA:         -11.277
REMARK INTER:                 -10.094
REMARK INTRA:                  -1.183
REMARK UNBOUND:                -1.509
REMARK  Name = 
REMARK  7 active torsions:
REMARK  status: ('A' for Active; 'I' for Inactive)
REMARK    1  A    between atoms: C_1  and  C_2
REMARK    2  A    between atoms: C_2  and  C_3
REMARK    3  A    between atoms: C_7  and  C_8
REMARK    4  A    between atoms: C_8  and  C_9
REMARK    5  A    between atoms: C_9  and  N_10
REMARK    6  A    between atoms: C_14  and  C_15
REMARK    7  A    between atoms: C_25  and  C_26
REMARK                            x       y       z     vdW  Elec       q    Type
REMARK                         _______ _______ _______ _____ _____    ______ ____
ROOT
ATOM      1  C   UNL     1      46.656   8.646  12.841  0.00  0.00    +0.000 A 
ATOM      2  C   UNL     1      46.041   9.558  11.966  0.00  0.00    +0.000 A 
ATOM      3  C   UNL     1      44.823   9.254  11.347  0.00  0.00    +0.000 A 
ATOM      4  C   UNL     1      44.213   8.019  11.557  0.00  0.00    +0.000 A 
ATOM      5  C   UNL     1      44.808   7.082  12.406  0.00  0.00    +0.000 A 
ATOM      6  C   UNL     1      46.006   7.416  13.058  0.00  0.00    +0.000 A 
ENDROOT
BRANCH   1   8
ATOM      7  C   UNL     1      48.595  10.309  13.260  0.00  0.00    +0.000 C 
ATOM      8  C   UNL     1      48.056   8.879  13.410  0.00  0.00    +0.000 C 
ATOM      9  C   UNL     1      48.076   8.467  14.865  0.00  0.00    +0.000 C 
ATOM     10  C   UNL     1      48.929   7.458  15.046  0.00  0.00    +0.000 C 
ATOM     11  N   UNL     1      49.587   7.086  13.910  0.00  0.00    +0.000 NA
ATOM     12  C   UNL     1      49.127   7.881  12.976  0.00  0.00    +0.000 C 
BRANCH  12  13
ATOM     13  C   UNL     1      49.625   7.872  11.554  0.00  0.00    +0.000 C 
ATOM     14  F   UNL     1      50.753   7.132  11.381  0.00  0.00    +0.000 F 
ATOM     15  F   UNL     1      48.705   7.354  10.695  0.00  0.00    +0.000 F 
ATOM     16  F   UNL     1      49.918   9.121  11.100  0.00  0.00    +0.000 F 
ENDBRANCH  12  13
ENDBRANCH   1   8
BRANCH   5  17
ATOM     17  C   UNL     1      44.274   5.668  12.504  0.00  0.00    +0.000 C 
BRANCH  17  18
ATOM     18  C   UNL     1      43.583   5.296  11.185  0.00  0.00    +0.000 C 
BRANCH  18  19
ATOM     19  N   UNL     1      43.632   3.848  10.928  0.00  0.00    +0.000 N 
ATOM     20  C   UNL     1      44.491   3.533   9.855  0.00  0.00    +0.000 A 
ATOM     21  C   UNL     1      44.649   2.206   9.447  0.00  0.00    +0.000 A 
ATOM     22  N   UNL     1      45.449   1.819   8.416  0.00  0.00    +0.000 NA
ATOM     23  C   UNL     1      46.129   2.819   7.787  0.00  0.00    +0.000 A 
ATOM     24  C   UNL     1      45.992   4.133   8.203  0.00  0.00    +0.000 A 
ATOM     25  N   UNL     1      45.188   4.507   9.230  0.00  0.00    +0.000 NA
ATOM     26  H   UNL     1      42.711   3.464  10.739  0.00  0.00    +0.000 HD
BRANCH  23  27
ATOM     27  C   UNL     1      47.043   2.547   6.613  0.00  0.00    +0.000 C 
ATOM     28  F   UNL     1      46.797   3.308   5.511  0.00  0.00    +0.000 F 
ATOM     29  F   UNL     1      48.357   2.757   6.923  0.00  0.00    +0.000 F 
ATOM     30  F   UNL     1      46.978   1.249   6.193  0.00  0.00    +0.000 F 
ENDBRANCH  23  27
ENDBRANCH  18  19
ENDBRANCH  17  18
ENDBRANCH   5  17
TORSDOF 6
ENDMDL
MODEL 3
REMARK VINA RESULT:    -6.636      1.790      7.225
REMARK INTER + INTRA:         -10.473
REMARK INTER:                  -9.111
REMARK INTRA:                  -1.362
REMARK UNBOUND:                -1.509
REMARK  Name = 
REMARK  7 active torsions:
REMARK  status: ('A' for Active; 'I' for Inactive)
REMARK    1  A    between atoms: C_1  and  C_2
REMARK    2  A    between atoms: C_2  and  C_3
REMARK    3  A    between atoms: C_7  and  C_8
REMARK    4  A    between atoms: C_8  and  C_9
REMARK    5  A    between atoms: C_9  and  N_10
REMARK    6  A    between atoms: C_14  and  C_15
REMARK    7  A    between atoms: C_25  and  C_26
REMARK                            x       y       z     vdW  Elec       q    Type
REMARK                         _______ _______ _______ _____ _____    ______ ____
ROOT
ATOM      1  C   UNL     1      49.182   7.719  14.773  0.00  0.00    +0.000 A 
ATOM      2  C   UNL     1      49.901   7.380  13.614  0.00  0.00    +0.000 A 
ATOM      3  C   UNL     1      49.355   7.585  12.342  0.00  0.00    +0.000 A 
ATOM      4  C   UNL     1      48.067   8.096  12.199  0.00  0.00    +0.000 A 
ATOM      5  C   UNL     1      47.318   8.425  13.332  0.00  0.00    +0.000 A 
ATOM      6  C   UNL     1      47.893   8.259  14.602  0.00  0.00    +0.000 A 
ENDROOT
BRANCH   1   8
ATOM      7  C   UNL     1      51.040   6.654  16.227  0.00  0.00    +0.000 C 
ATOM      8  C   UNL     1      49.681   7.367  16.175  0.00  0.00    +0.000 C 
ATOM      9  C   UNL     1      49.721   8.622  17.018  0.00  0.00    +0.000 C 
ATOM     10  C   UNL     1      48.881   8.513  18.048  0.00  0.00    +0.000 C 
ATOM     11  N   UNL     1      48.241   7.309  18.107  0.00  0.00    +0.000 NA
ATOM     12  C   UNL     1      48.686   6.637  17.074  0.00  0.00    +0.000 C 
BRANCH  12  13
ATOM     13  C   UNL     1      48.294   5.213  16.773  0.00  0.00    +0.000 C 
ATOM     14  F   UNL     1      49.290   4.318  17.012  0.00  0.00    +0.000 F 
ATOM     15  F   UNL     1      47.238   4.805  17.528  0.00  0.00    +0.000 F 
ATOM     16  F   UNL     1      47.932   5.039  15.472  0.00  0.00    +0.000 F 
ENDBRANCH  12  13
ENDBRANCH   1   8
BRANCH   5  17
ATOM     17  C   UNL     1      45.855   8.798  13.218  0.00  0.00    +0.000 C 
BRANCH  17  18
ATOM     18  C   UNL     1      45.186   7.908  12.161  0.00  0.00    +0.000 C 
BRANCH  18  19
ATOM     19  N   UNL     1      44.751   6.620  12.722  0.00  0.00    +0.000 N 
ATOM     20  C   UNL     1      44.815   5.582  11.770  0.00  0.00    +0.000 A 
ATOM     21  C   UNL     1      44.418   4.288  12.113  0.00  0.00    +0.000 A 
ATOM     22  N   UNL     1      44.441   3.233  11.252  0.00  0.00    +0.000 NA
ATOM     23  C   UNL     1      44.903   3.503   9.998  0.00  0.00    +0.000 A 
ATOM     24  C   UNL     1      45.319   4.780   9.662  0.00  0.00    +0.000 A 
ATOM     25  N   UNL     1      45.288   5.824  10.527  0.00  0.00    +0.000 NA
ATOM     26  H   UNL     1      43.807   6.668  13.096  0.00  0.00    +0.000 HD
BRANCH  23  27
ATOM     27  C   UNL     1      44.971   2.437   8.927  0.00  0.00    +0.000 C 
ATOM     28  F   UNL     1      44.207   1.337   9.170  0.00  0.00    +0.000 F 
ATOM     29  F   UNL     1      44.570   2.906   7.708  0.00  0.00    +0.000 F 
ATOM     30  F   UNL     1      46.241   1.975   8.733  0.00  0.00    +0.000 F 
ENDBRANCH  23  27
ENDBRANCH  18  19
ENDBRANCH  17  18
ENDBRANCH   5  17
TORSDOF 6
ENDMDL
MODEL 4
REMARK VINA RESULT:    -6.581      2.524      7.058
REMARK INTER + INTRA:         -10.398
REMARK INTER:                  -9.137
REMARK INTRA:                  -1.261
REMARK UNBOUND:                -1.509
REMARK  Name = 
REMARK  7 active torsions:
REMARK  status: ('A' for Active; 'I' for Inactive)
REMARK    1  A    between atoms: C_1  and  C_2
REMARK    2  A    between atoms: C_2  and  C_3
REMARK    3  A    between atoms: C_7  and  C_8
REMARK    4  A    between atoms: C_8  and  C_9
REMARK    5  A    between atoms: C_9  and  N_10
REMARK    6  A    between atoms: C_14  and  C_15
REMARK    7  A    between atoms: C_25  and  C_26
REMARK                            x       y       z     vdW  Elec       q    Type
REMARK                         _______ _______ _______ _____ _____    ______ ____
ROOT
ATOM      1  C   UNL     1      48.560   5.947  17.478  0.00  0.00    +0.000 A 
ATOM      2  C   UNL     1      48.284   7.037  18.323  0.00  0.00    +0.000 A 
ATOM      3  C   UNL     1      48.356   8.352  17.850  0.00  0.00    +0.000 A 
ATOM      4  C   UNL     1      48.743   8.610  16.537  0.00  0.00    +0.000 A 
ATOM      5  C   UNL     1      49.043   7.552  15.677  0.00  0.00    +0.000 A 
ATOM      6  C   UNL     1      48.922   6.234  16.148  0.00  0.00    +0.000 A 
ENDROOT
BRANCH   1   8
ATOM      7  C   UNL     1      48.647   4.369  19.527  0.00  0.00    +0.000 C 
ATOM      8  C   UNL     1      48.643   4.513  17.999  0.00  0.00    +0.000 C 
ATOM      9  C   UNL     1      47.512   3.703  17.404  0.00  0.00    +0.000 C 
ATOM     10  C   UNL     1      47.998   2.717  16.650  0.00  0.00    +0.000 C 
ATOM     11  N   UNL     1      49.361   2.659  16.635  0.00  0.00    +0.000 NA
ATOM     12  C   UNL     1      49.750   3.648  17.400  0.00  0.00    +0.000 C 
BRANCH  12  13
ATOM     13  C   UNL     1      51.194   3.930  17.729  0.00  0.00    +0.000 C 
ATOM     14  F   UNL     1      51.394   4.278  19.029  0.00  0.00    +0.000 F 
ATOM     15  F   UNL     1      51.989   2.848  17.507  0.00  0.00    +0.000 F 
ATOM     16  F   UNL     1      51.706   4.947  16.982  0.00  0.00    +0.000 F 
ENDBRANCH  12  13
ENDBRANCH   1   8
BRANCH   5  17
ATOM     17  C   UNL     1      49.648   7.803  14.311  0.00  0.00    +0.000 C 
BRANCH  17  18
ATOM     18  C   UNL     1      48.961   6.898  13.279  0.00  0.00    +0.000 C 
BRANCH  18  19
ATOM     19  N   UNL     1      47.960   7.629  12.487  0.00  0.00    +0.000 N 
ATOM     20  C   UNL     1      46.712   6.971  12.477  0.00  0.00    +0.000 A 
ATOM     21  C   UNL     1      45.643   7.504  11.755  0.00  0.00    +0.000 A 
ATOM     22  N   UNL     1      44.411   6.928  11.686  0.00  0.00    +0.000 NA
ATOM     23  C   UNL     1      44.257   5.773  12.395  0.00  0.00    +0.000 A 
ATOM     24  C   UNL     1      45.311   5.254  13.130  0.00  0.00    +0.000 A 
ATOM     25  N   UNL     1      46.534   5.836  13.188  0.00  0.00    +0.000 NA
ATOM     26  H   UNL     1      48.266   7.773  11.529  0.00  0.00    +0.000 HD
BRANCH  23  27
ATOM     27  C   UNL     1      42.952   5.008  12.402  0.00  0.00    +0.000 C 
ATOM     28  F   UNL     1      41.893   5.688  11.883  0.00  0.00    +0.000 F 
ATOM     29  F   UNL     1      43.033   3.845  11.690  0.00  0.00    +0.000 F 
ATOM     30  F   UNL     1      42.576   4.634  13.659  0.00  0.00    +0.000 F 
ENDBRANCH  23  27
ENDBRANCH  18  19
ENDBRANCH  17  18
ENDBRANCH   5  17
TORSDOF 6
ENDMDL
MODEL 5
REMARK VINA RESULT:    -6.550      2.257      6.770
REMARK INTER + INTRA:         -10.356
REMARK INTER:                  -8.926
REMARK INTRA:                  -1.430
REMARK UNBOUND:                -1.509
REMARK  Name = 
REMARK  7 active torsions:
REMARK  status: ('A' for Active; 'I' for Inactive)
REMARK    1  A    between atoms: C_1  and  C_2
REMARK    2  A    between atoms: C_2  and  C_3
REMARK    3  A    between atoms: C_7  and  C_8
REMARK    4  A    between atoms: C_8  and  C_9
REMARK    5  A    between atoms: C_9  and  N_10
REMARK    6  A    between atoms: C_14  and  C_15
REMARK    7  A    between atoms: C_25  and  C_26
REMARK                            x       y       z     vdW  Elec       q    Type
REMARK                         _______ _______ _______ _____ _____    ______ ____
ROOT
ATOM      1  C   UNL     1      49.046   6.488  17.436  0.00  0.00    +0.000 A 
ATOM      2  C   UNL     1      48.485   7.537  18.186  0.00  0.00    +0.000 A 
ATOM      3  C   UNL     1      48.133   8.748  17.579  0.00  0.00    +0.000 A 
ATOM      4  C   UNL     1      48.368   8.953  16.221  0.00  0.00    +0.000 A 
ATOM      5  C   UNL     1      48.942   7.938  15.452  0.00  0.00    +0.000 A 
ATOM      6  C   UNL     1      49.248   6.710  16.061  0.00  0.00    +0.000 A 
ENDROOT
BRANCH   1   8
ATOM      7  C   UNL     1      50.777   4.564  17.376  0.00  0.00    +0.000 C 
ATOM      8  C   UNL     1      49.584   5.216  18.091  0.00  0.00    +0.000 C 
ATOM      9  C   UNL     1      49.940   5.510  19.531  0.00  0.00    +0.000 C 
ATOM     10  C   UNL     1      49.185   4.778  20.351  0.00  0.00    +0.000 C 
ATOM     11  N   UNL     1      48.330   3.936  19.702  0.00  0.00    +0.000 NA
ATOM     12  C   UNL     1      48.545   4.149  18.428  0.00  0.00    +0.000 C 
BRANCH  12  13
ATOM     13  C   UNL     1      47.859   3.383  17.327  0.00  0.00    +0.000 C 
ATOM     14  F   UNL     1      48.718   2.674  16.545  0.00  0.00    +0.000 F 
ATOM     15  F   UNL     1      46.966   2.478  17.814  0.00  0.00    +0.000 F 
ATOM     16  F   UNL     1      47.166   4.196  16.484  0.00  0.00    +0.000 F 
ENDBRANCH  12  13
ENDBRANCH   1   8
BRANCH   5  17
ATOM     17  C   UNL     1      49.384   8.195  14.026  0.00  0.00    +0.000 C 
BRANCH  17  18
ATOM     18  C   UNL     1      49.069   6.961  13.169  0.00  0.00    +0.000 C 
BRANCH  18  19
ATOM     19  N   UNL     1      48.089   7.260  12.114  0.00  0.00    +0.000 N 
ATOM     20  C   UNL     1      46.932   6.462  12.228  0.00  0.00    +0.000 A 
ATOM     21  C   UNL     1      45.897   6.587  11.299  0.00  0.00    +0.000 A 
ATOM     22  N   UNL     1      44.753   5.849  11.333  0.00  0.00    +0.000 NA
ATOM     23  C   UNL     1      44.651   4.961  12.363  0.00  0.00    +0.000 A 
ATOM     24  C   UNL     1      45.667   4.851  13.299  0.00  0.00    +0.000 A 
ATOM     25  N   UNL     1      46.803   5.590  13.252  0.00  0.00    +0.000 NA
ATOM     26  H   UNL     1      48.482   7.142  11.185  0.00  0.00    +0.000 HD
BRANCH  23  27
ATOM     27  C   UNL     1      43.448   4.060  12.524  0.00  0.00    +0.000 C 
ATOM     28  F   UNL     1      43.744   2.752  12.763  0.00  0.00    +0.000 F 
ATOM     29  F   UNL     1      42.643   4.453  13.555  0.00  0.00    +0.000 F 
ATOM     30  F   UNL     1      42.644   4.064  11.420  0.00  0.00    +0.000 F 
ENDBRANCH  23  27
ENDBRANCH  18  19
ENDBRANCH  17  18
ENDBRANCH   5  17
TORSDOF 6
ENDMDL
MODEL 6
REMARK VINA RESULT:    -6.437      2.181      6.789
REMARK INTER + INTRA:         -10.203
REMARK INTER:                  -8.926
REMARK INTRA:                  -1.277
REMARK UNBOUND:                -1.509
REMARK  Name = 
REMARK  7 active torsions:
REMARK  status: ('A' for Active; 'I' for Inactive)
REMARK    1  A    between atoms: C_1  and  C_2
REMARK    2  A    between atoms: C_2  and  C_3
REMARK    3  A    between atoms: C_7  and  C_8
REMARK    4  A    between atoms: C_8  and  C_9
REMARK    5  A    between atoms: C_9  and  N_10
REMARK    6  A    between atoms: C_14  and  C_15
REMARK    7  A    between atoms: C_25  and  C_26
REMARK                            x       y       z     vdW  Elec       q    Type
REMARK                         _______ _______ _______ _____ _____    ______ ____
ROOT
ATOM      1  C   UNL     1      49.914   6.193  17.380  0.00  0.00    +0.000 A 
ATOM      2  C   UNL     1      51.317   6.188  17.281  0.00  0.00    +0.000 A 
ATOM      3  C   UNL     1      51.965   6.823  16.216  0.00  0.00    +0.000 A 
ATOM      4  C   UNL     1      51.230   7.442  15.208  0.00  0.00    +0.000 A 
ATOM      5  C   UNL     1      49.834   7.448  15.266  0.00  0.00    +0.000 A 
ATOM      6  C   UNL     1      49.194   6.849  16.363  0.00  0.00    +0.000 A 
ENDROOT
BRANCH   1   8
ATOM      7  C   UNL     1      50.041   4.427  19.268  0.00  0.00    +0.000 C 
ATOM      8  C   UNL     1      49.169   5.382  18.440  0.00  0.00    +0.000 C 
ATOM      9  C   UNL     1      48.421   6.326  19.354  0.00  0.00    +0.000 C 
ATOM     10  C   UNL     1      47.108   6.109  19.267  0.00  0.00    +0.000 C 
ATOM     11  N   UNL     1      46.777   5.086  18.428  0.00  0.00    +0.000 NA
ATOM     12  C   UNL     1      47.919   4.647  17.961  0.00  0.00    +0.000 C 
BRANCH  12  13
ATOM     13  C   UNL     1      48.043   3.465  17.034  0.00  0.00    +0.000 C 
ATOM     14  F   UNL     1      47.251   2.416  17.388  0.00  0.00    +0.000 F 
ATOM     15  F   UNL     1      47.695   3.780  15.756  0.00  0.00    +0.000 F 
ATOM     16  F   UNL     1      49.313   2.978  16.982  0.00  0.00    +0.000 F 
ENDBRANCH  12  13
ENDBRANCH   1   8
BRANCH   5  17
ATOM     17  C   UNL     1      49.007   7.941  14.098  0.00  0.00    +0.000 C 
BRANCH  17  18
ATOM     18  C   UNL     1      49.122   6.941  12.939  0.00  0.00    +0.000 C 
BRANCH  18  19
ATOM     19  N   UNL     1      48.121   7.196  11.891  0.00  0.00    +0.000 N 
ATOM     20  C   UNL     1      46.977   6.385  12.047  0.00  0.00    +0.000 A 
ATOM     21  C   UNL     1      45.927   6.469  11.131  0.00  0.00    +0.000 A 
ATOM     22  N   UNL     1      44.794   5.717  11.204  0.00  0.00    +0.000 NA
ATOM     23  C   UNL     1      44.720   4.859  12.262  0.00  0.00    +0.000 A 
ATOM     24  C   UNL     1      45.752   4.790  13.184  0.00  0.00    +0.000 A 
ATOM     25  N   UNL     1      46.876   5.542  13.098  0.00  0.00    +0.000 NA
ATOM     26  H   UNL     1      48.502   7.055  10.960  0.00  0.00    +0.000 HD
BRANCH  23  27
ATOM     27  C   UNL     1      43.532   3.946  12.467  0.00  0.00    +0.000 C 
ATOM     28  F   UNL     1      42.732   4.282  13.516  0.00  0.00    +0.000 F 
ATOM     29  F   UNL     1      42.715   3.910  11.373  0.00  0.00    +0.000 F 
ATOM     30  F   UNL     1      43.903   2.650  12.681  0.00  0.00    +0.000 F 
ENDBRANCH  23  27
ENDBRANCH  18  19
ENDBRANCH  17  18
ENDBRANCH   5  17
TORSDOF 6
ENDMDL
MODEL 7
REMARK VINA RESULT:    -6.199      2.500      7.860
REMARK INTER + INTRA:          -9.883
REMARK INTER:                  -9.044
REMARK INTRA:                  -0.839
REMARK UNBOUND:                -1.509
REMARK  Name = 
REMARK  7 active torsions:
REMARK  status: ('A' for Active; 'I' for Inactive)
REMARK    1  A    between atoms: C_1  and  C_2
REMARK    2  A    between atoms: C_2  and  C_3
REMARK    3  A    between atoms: C_7  and  C_8
REMARK    4  A    between atoms: C_8  and  C_9
REMARK    5  A    between atoms: C_9  and  N_10
REMARK    6  A    between atoms: C_14  and  C_15
REMARK    7  A    between atoms: C_25  and  C_26
REMARK                            x       y       z     vdW  Elec       q    Type
REMARK                         _______ _______ _______ _____ _____    ______ ____
ROOT
ATOM      1  C   UNL     1      49.031   5.865  17.346  0.00  0.00    +0.000 A 
ATOM      2  C   UNL     1      49.494   7.017  18.007  0.00  0.00    +0.000 A 
ATOM      3  C   UNL     1      49.563   8.248  17.345  0.00  0.00    +0.000 A 
ATOM      4  C   UNL     1      49.209   8.350  16.001  0.00  0.00    +0.000 A 
ATOM      5  C   UNL     1      48.763   7.221  15.310  0.00  0.00    +0.000 A 
ATOM      6  C   UNL     1      48.653   6.000  15.996  0.00  0.00    +0.000 A 
ENDROOT
BRANCH   1   8
ATOM      7  C   UNL     1      49.052   4.464  19.522  0.00  0.00    +0.000 C 
ATOM      8  C   UNL     1      49.088   4.479  17.987  0.00  0.00    +0.000 C 
ATOM      9  C   UNL     1      47.967   3.628  17.433  0.00  0.00    +0.000 C 
ATOM     10  C   UNL     1      48.464   2.579  16.777  0.00  0.00    +0.000 C 
ATOM     11  N   UNL     1      49.827   2.513  16.803  0.00  0.00    +0.000 NA
ATOM     12  C   UNL     1      50.204   3.561  17.493  0.00  0.00    +0.000 C 
BRANCH  12  13
ATOM     13  C   UNL     1      51.641   3.862  17.835  0.00  0.00    +0.000 C 
ATOM     14  F   UNL     1      52.487   2.832  17.564  0.00  0.00    +0.000 F 
ATOM     15  F   UNL     1      52.119   4.929  17.138  0.00  0.00    +0.000 F 
ATOM     16  F   UNL     1      51.809   4.153  19.154  0.00  0.00    +0.000 F 
ENDBRANCH  12  13
ENDBRANCH   1   8
BRANCH   5  17
ATOM     17  C   UNL     1      48.556   7.255  13.811  0.00  0.00    +0.000 C 
BRANCH  17  18
ATOM     18  C   UNL     1      47.052   7.314  13.509  0.00  0.00    +0.000 C 
BRANCH  18  19
ATOM     19  N   UNL     1      46.401   6.009  13.700  0.00  0.00    +0.000 N 
ATOM     20  C   UNL     1      45.986   5.443  12.477  0.00  0.00    +0.000 A 
ATOM     21  C   UNL     1      45.326   4.212  12.460  0.00  0.00    +0.000 A 
ATOM     22  N   UNL     1      44.885   3.603  11.324  0.00  0.00    +0.000 NA
ATOM     23  C   UNL     1      45.142   4.264  10.160  0.00  0.00    +0.000 A 
ATOM     24  C   UNL     1      45.817   5.474  10.172  0.00  0.00    +0.000 A 
ATOM     25  N   UNL     1      46.248   6.072  11.310  0.00  0.00    +0.000 NA
ATOM     26  H   UNL     1      45.602   6.070  14.324  0.00  0.00    +0.000 HD
BRANCH  23  27
ATOM     27  C   UNL     1      44.699   3.721   8.820  0.00  0.00    +0.000 C 
ATOM     28  F   UNL     1      45.687   3.634   7.886  0.00  0.00    +0.000 F 
ATOM     29  F   UNL     1      44.173   2.464   8.922  0.00  0.00    +0.000 F 
ATOM     30  F   UNL     1      43.714   4.477   8.252  0.00  0.00    +0.000 F 
ENDBRANCH  23  27
ENDBRANCH  18  19
ENDBRANCH  17  18
ENDBRANCH   5  17
TORSDOF 6
ENDMDL
MODEL 8
REMARK VINA RESULT:    -5.999      3.738      9.101
REMARK INTER + INTRA:          -9.612
REMARK INTER:                  -8.643
REMARK INTRA:                  -0.969
REMARK UNBOUND:                -1.509
REMARK  Name = 
REMARK  7 active torsions:
REMARK  status: ('A' for Active; 'I' for Inactive)
REMARK    1  A    between atoms: C_1  and  C_2
REMARK    2  A    between atoms: C_2  and  C_3
REMARK    3  A    between atoms: C_7  and  C_8
REMARK    4  A    between atoms: C_8  and  C_9
REMARK    5  A    between atoms: C_9  and  N_10
REMARK    6  A    between atoms: C_14  and  C_15
REMARK    7  A    between atoms: C_25  and  C_26
REMARK                            x       y       z     vdW  Elec       q    Type
REMARK                         _______ _______ _______ _____ _____    ______ ____
ROOT
ATOM      1  C   UNL     1      51.780   4.482  17.766  0.00  0.00    +0.000 A 
ATOM      2  C   UNL     1      52.069   3.108  17.689  0.00  0.00    +0.000 A 
ATOM      3  C   UNL     1      51.072   2.178  17.373  0.00  0.00    +0.000 A 
ATOM      4  C   UNL     1      49.759   2.594  17.163  0.00  0.00    +0.000 A 
ATOM      5  C   UNL     1      49.434   3.950  17.251  0.00  0.00    +0.000 A 
ATOM      6  C   UNL     1      50.451   4.879  17.523  0.00  0.00    +0.000 A 
ENDROOT
BRANCH   1   8
ATOM      7  C   UNL     1      52.213   6.800  18.832  0.00  0.00    +0.000 C 
ATOM      8  C   UNL     1      52.803   5.504  18.259  0.00  0.00    +0.000 C 
ATOM      9  C   UNL     1      53.707   4.850  19.281  0.00  0.00    +0.000 C 
ATOM     10  C   UNL     1      54.966   4.838  18.843  0.00  0.00    +0.000 C 
ATOM     11  N   UNL     1      55.130   5.443  17.631  0.00  0.00    +0.000 NA
ATOM     12  C   UNL     1      53.931   5.842  17.286  0.00  0.00    +0.000 C 
BRANCH  12  13
ATOM     13  C   UNL     1      53.641   6.625  16.032  0.00  0.00    +0.000 C 
ATOM     14  F   UNL     1      52.325   6.628  15.688  0.00  0.00    +0.000 F 
ATOM     15  F   UNL     1      53.997   7.934  16.154  0.00  0.00    +0.000 F 
ATOM     16  F   UNL     1      54.313   6.141  14.952  0.00  0.00    +0.000 F 
ENDBRANCH  12  13
ENDBRANCH   1   8
BRANCH   5  17
ATOM     17  C   UNL     1      47.992   4.410  17.219  0.00  0.00    +0.000 C 
BRANCH  17  18
ATOM     18  C   UNL     1      47.363   4.013  15.876  0.00  0.00    +0.000 C 
BRANCH  18  19
ATOM     19  N   UNL     1      46.894   5.184  15.121  0.00  0.00    +0.000 N 
ATOM     20  C   UNL     1      46.296   4.817  13.897  0.00  0.00    +0.000 A 
ATOM     21  C   UNL     1      45.811   5.798  13.030  0.00  0.00    +0.000 A 
ATOM     22  N   UNL     1      45.229   5.529  11.828  0.00  0.00    +0.000 NA
ATOM     23  C   UNL     1      45.122   4.208  11.505  0.00  0.00    +0.000 A 
ATOM     24  C   UNL     1      45.582   3.233  12.374  0.00  0.00    +0.000 A 
ATOM     25  N   UNL     1      46.163   3.514  13.566  0.00  0.00    +0.000 NA
ATOM     26  H   UNL     1      47.645   5.844  14.937  0.00  0.00    +0.000 HD
BRANCH  23  27
ATOM     27  C   UNL     1      44.514   3.754  10.197  0.00  0.00    +0.000 C 
ATOM     28  F   UNL     1      43.849   2.568  10.260  0.00  0.00    +0.000 F 
ATOM     29  F   UNL     1      43.617   4.658   9.704  0.00  0.00    +0.000 F 
ATOM     30  F   UNL     1      45.450   3.605   9.213  0.00  0.00    +0.000 F 
ENDBRANCH  23  27
ENDBRANCH  18  19
ENDBRANCH  17  18
ENDBRANCH   5  17
TORSDOF 6
ENDMDL
MODEL 9
REMARK VINA RESULT:    -5.860      3.351      6.998
REMARK INTER + INTRA:          -9.424
REMARK INTER:                  -8.377
REMARK INTRA:                  -1.047
REMARK UNBOUND:                -1.509
REMARK  Name = 
REMARK  7 active torsions:
REMARK  status: ('A' for Active; 'I' for Inactive)
REMARK    1  A    between atoms: C_1  and  C_2
REMARK    2  A    between atoms: C_2  and  C_3
REMARK    3  A    between atoms: C_7  and  C_8
REMARK    4  A    between atoms: C_8  and  C_9
REMARK    5  A    between atoms: C_9  and  N_10
REMARK    6  A    between atoms: C_14  and  C_15
REMARK    7  A    between atoms: C_25  and  C_26
REMARK                            x       y       z     vdW  Elec       q    Type
REMARK                         _______ _______ _______ _____ _____    ______ ____
ROOT
ATOM      1  C   UNL     1      47.541  10.513  11.937  0.00  0.00    +0.000 A 
ATOM      2  C   UNL     1      47.219  11.459  10.947  0.00  0.00    +0.000 A 
ATOM      3  C   UNL     1      45.933  11.516  10.397  0.00  0.00    +0.000 A 
ATOM      4  C   UNL     1      44.954  10.607  10.793  0.00  0.00    +0.000 A 
ATOM      5  C   UNL     1      45.247   9.643  11.760  0.00  0.00    +0.000 A 
ATOM      6  C   UNL     1      46.526   9.625  12.340  0.00  0.00    +0.000 A 
ENDROOT
BRANCH   1   8
ATOM      7  C   UNL     1      50.074  10.816  11.502  0.00  0.00    +0.000 C 
ATOM      8  C   UNL     1      48.969  10.321  12.446  0.00  0.00    +0.000 C 
ATOM      9  C   UNL     1      49.108  10.982  13.800  0.00  0.00    +0.000 C 
ATOM     10  C   UNL     1      49.397  10.072  14.730  0.00  0.00    +0.000 C 
ATOM     11  N   UNL     1      49.534   8.808  14.236  0.00  0.00    +0.000 NA
ATOM     12  C   UNL     1      49.315   8.921  12.949  0.00  0.00    +0.000 C 
BRANCH  12  13
ATOM     13  C   UNL     1      49.426   7.773  11.980  0.00  0.00    +0.000 C 
ATOM     14  F   UNL     1      49.307   6.553  12.572  0.00  0.00    +0.000 F 
ATOM     15  F   UNL     1      48.459   7.818  11.022  0.00  0.00    +0.000 F 
ATOM     16  F   UNL     1      50.619   7.760  11.325  0.00  0.00    +0.000 F 
ENDBRANCH  12  13
ENDBRANCH   1   8
BRANCH   5  17
ATOM     17  C   UNL     1      44.271   8.528  12.070  0.00  0.00    +0.000 C 
BRANCH  17  18
ATOM     18  C   UNL     1      45.032   7.347  12.688  0.00  0.00    +0.000 C 
BRANCH  18  19
ATOM     19  N   UNL     1      44.166   6.172  12.875  0.00  0.00    +0.000 N 
ATOM     20  C   UNL     1      44.345   5.218  11.852  0.00  0.00    +0.000 A 
ATOM     21  C   UNL     1      43.591   4.043  11.847  0.00  0.00    +0.000 A 
ATOM     22  N   UNL     1      43.696   3.077  10.893  0.00  0.00    +0.000 NA
ATOM     23  C   UNL     1      44.619   3.308   9.916  0.00  0.00    +0.000 A 
ATOM     24  C   UNL     1      45.384   4.462   9.931  0.00  0.00    +0.000 A 
ATOM     25  N   UNL     1      45.268   5.419  10.885  0.00  0.00    +0.000 NA
ATOM     26  H   UNL     1      43.184   6.427  12.921  0.00  0.00    +0.000 HD
BRANCH  23  27
ATOM     27  C   UNL     1      44.837   2.335   8.779  0.00  0.00    +0.000 C 
ATOM     28  F   UNL     1      44.626   2.854   7.538  0.00  0.00    +0.000 F 
ATOM     29  F   UNL     1      46.110   1.839   8.763  0.00  0.00    +0.000 F 
ATOM     30  F   UNL     1      44.027   1.240   8.869  0.00  0.00    +0.000 F 
ENDBRANCH  23  27
ENDBRANCH  18  19
ENDBRANCH  17  18
ENDBRANCH   5  17
TORSDOF 6
ENDMDL
