MODEL 1
REMARK VINA RESULT:    -7.129      0.000      0.000
REMARK INTER + INTRA:          -9.474
REMARK INTER:                  -9.005
REMARK INTRA:                  -0.470
REMARK UNBOUND:                -0.470
REMARK  Name = 
REMARK  5 active torsions:
REMARK  status: ('A' for Active; 'I' for Inactive)
REMARK    1  A    between atoms: N_1  and  C_2
REMARK    2  A    between atoms: C_2  and  C_3
REMARK    3  A    between atoms: C_6  and  O_7
REMARK    4  A    between atoms: O_7  and  C_8
REMARK    5  A    between atoms: C_8  and  C_9
REMARK                            x       y       z     vdW  Elec       q    Type
REMARK                         _______ _______ _______ _____ _____    ______ ____
ROOT
ATOM      1  C   UNL     1      46.606   2.000   7.620  0.00  0.00    +0.000 A 
ATOM      2  C   UNL     1      46.567   3.373   7.378  0.00  0.00    +0.000 A 
ATOM      3  C   UNL     1      45.644   4.153   8.073  0.00  0.00    +0.000 A 
ATOM      4  C   UNL     1      44.785   3.553   8.988  0.00  0.00    +0.000 A 
ATOM      5  C   UNL     1      44.939   2.190   9.209  0.00  0.00    +0.000 A 
ATOM      6  N   UNL     1      45.817   1.402   8.547  0.00  0.00    +0.000 NA
ENDROOT
BRANCH   1   7
ATOM      7  C   UNL     1      47.586   1.111   6.891  0.00  0.00    +0.000 C 
BRANCH   7   8
ATOM      8  N   UNL     1      48.374   1.862   5.913  0.00  0.00    +0.000 NA
ATOM      9  H   UNL     1      48.173   2.853   6.025  0.00  0.00    +0.000 HD
ATOM     10  H   UNL     1      48.018   1.611   4.988  0.00  0.00    +0.000 HD
ENDBRANCH   7   8
ENDBRANCH   1   7
BRANCH   4  11
ATOM     11  O   UNL     1      43.862   4.367   9.585  0.00  0.00    +0.000 OA
BRANCH  11  12
ATOM     12  C   UNL     1      43.707   4.158  10.990  0.00  0.00    +0.000 C 
BRANCH  12  13
ATOM     13  C   UNL     1      44.863   4.784  11.727  0.00  0.00    +0.000 A 
ATOM     14  C   UNL     1      45.480   4.098  12.784  0.00  0.00    +0.000 A 
ATOM     15  C   UNL     1      46.572   4.658  13.450  0.00  0.00    +0.000 A 
ATOM     16  C   UNL     1      47.049   5.909  13.064  0.00  0.00    +0.000 A 
ATOM     17 CL   UNL     1      48.399   6.595  13.880  0.00  0.00    +0.000 Cl
ATOM     18  C   UNL     1      46.441   6.605  12.022  0.00  0.00    +0.000 A 
ATOM     19  C   UNL     1      45.349   6.046  11.355  0.00  0.00    +0.000 A 
ENDBRANCH  12  13
ENDBRANCH  11  12
ENDBRANCH   4  11
TORSDOF 5
ENDMDL
MODEL 2
REMARK VINA RESULT:    -7.008      3.498      5.812
REMARK INTER + INTRA:          -9.321
REMARK INTER:                  -8.834
REMARK INTRA:                  -0.487
REMARK UNBOUND:                -0.470
REMARK  Name = 
REMARK  5 active torsions:
REMARK  status: ('A' for Active; 'I' for Inactive)
REMARK    1  A    between atoms: N_1  and  C_2
REMARK    2  A    between atoms: C_2  and  C_3
REMARK    3  A    between atoms: C_6  and  O_7
REMARK    4  A    between atoms: O_7  and  C_8
REMARK    5  A    between atoms: C_8  and  C_9
REMARK                            x       y       z     vdW  Elec       q    Type
REMARK                         _______ _______ _______ _____ _____    ______ ____
ROOT
ATOM      1  C   UNL     1      46.725   4.746  14.182  0.00  0.00    +0.000 A 
ATOM      2  C   UNL     1      47.191   5.757  13.343  0.00  0.00    +0.000 A 
ATOM      3  C   UNL     1      46.434   6.107  12.225  0.00  0.00    +0.000 A 
ATOM      4  C   UNL     1      45.237   5.446  11.970  0.00  0.00    +0.000 A 
ATOM      5  C   UNL     1      44.821   4.497  12.895  0.00  0.00    +0.000 A 
ATOM      6  N   UNL     1      45.534   4.127  13.984  0.00  0.00    +0.000 NA
ENDROOT
BRANCH   1   7
ATOM      7  C   UNL     1      47.508   4.328  15.404  0.00  0.00    +0.000 C 
BRANCH   7   8
ATOM      8  N   UNL     1      47.875   2.912  15.354  0.00  0.00    +0.000 NA
ATOM      9  H   UNL     1      47.581   2.469  16.221  0.00  0.00    +0.000 HD
ATOM     10  H   UNL     1      48.896   2.868  15.352  0.00  0.00    +0.000 HD
ENDBRANCH   7   8
ENDBRANCH   1   7
BRANCH   4  11
ATOM     11  O   UNL     1      44.579   5.795  10.823  0.00  0.00    +0.000 OA
BRANCH  11  12
ATOM     12  C   UNL     1      43.823   4.739  10.228  0.00  0.00    +0.000 C 
BRANCH  12  13
ATOM     13  C   UNL     1      44.727   3.884   9.377  0.00  0.00    +0.000 A 
ATOM     14  C   UNL     1      44.735   2.490   9.536  0.00  0.00    +0.000 A 
ATOM     15  C   UNL     1      45.545   1.689   8.729  0.00  0.00    +0.000 A 
ATOM     16  C   UNL     1      46.356   2.280   7.763  0.00  0.00    +0.000 A 
ATOM     17 CL   UNL     1      47.349   1.292   6.763  0.00  0.00    +0.000 Cl
ATOM     18  C   UNL     1      46.365   3.663   7.599  0.00  0.00    +0.000 A 
ATOM     19  C   UNL     1      45.554   4.465   8.406  0.00  0.00    +0.000 A 
ENDBRANCH  12  13
ENDBRANCH  11  12
ENDBRANCH   4  11
TORSDOF 5
ENDMDL
MODEL 3
REMARK VINA RESULT:    -6.596      3.765      6.196
REMARK INTER + INTRA:          -8.801
REMARK INTER:                  -8.301
REMARK INTRA:                  -0.500
REMARK UNBOUND:                -0.470
REMARK  Name = 
REMARK  5 active torsions:
REMARK  status: ('A' for Active; 'I' for Inactive)
REMARK    1  A    between atoms: N_1  and  C_2
REMARK    2  A    between atoms: C_2  and  C_3
REMARK    3  A    between atoms: C_6  and  O_7
REMARK    4  A    between atoms: O_7  and  C_8
REMARK    5  A    between atoms: C_8  and  C_9
REMARK                            x       y       z     vdW  Elec       q    Type
REMARK                         _______ _______ _______ _____ _____    ______ ____
ROOT
ATOM      1  C   UNL     1      46.292   7.506  12.718  0.00  0.00    +0.000 A 
ATOM      2  C   UNL     1      45.169   7.571  11.896  0.00  0.00    +0.000 A 
ATOM      3  C   UNL     1      44.536   6.386  11.524  0.00  0.00    +0.000 A 
ATOM      4  C   UNL     1      45.032   5.168  11.980  0.00  0.00    +0.000 A 
ATOM      5  C   UNL     1      46.117   5.205  12.846  0.00  0.00    +0.000 A 
ATOM      6  N   UNL     1      46.760   6.335  13.219  0.00  0.00    +0.000 NA
ENDROOT
BRANCH   1   7
ATOM      7  C   UNL     1      47.014   8.761  13.147  0.00  0.00    +0.000 C 
BRANCH   7   8
ATOM      8  N   UNL     1      47.101   8.865  14.604  0.00  0.00    +0.000 NA
ATOM      9  H   UNL     1      47.843   8.251  14.931  0.00  0.00    +0.000 HD
ATOM     10  H   UNL     1      46.235   8.477  14.983  0.00  0.00    +0.000 HD
ENDBRANCH   7   8
ENDBRANCH   1   7
BRANCH   4  11
ATOM     11  O   UNL     1      44.402   4.043  11.525  0.00  0.00    +0.000 OA
BRANCH  11  12
ATOM     12  C   UNL     1      43.902   4.140  10.190  0.00  0.00    +0.000 C 
BRANCH  12  13
ATOM     13  C   UNL     1      44.905   3.556   9.228  0.00  0.00    +0.000 A 
ATOM     14  C   UNL     1      45.138   2.173   9.207  0.00  0.00    +0.000 A 
ATOM     15  C   UNL     1      46.041   1.621   8.296  0.00  0.00    +0.000 A 
ATOM     16  C   UNL     1      46.719   2.451   7.406  0.00  0.00    +0.000 A 
ATOM     17 CL   UNL     1      47.826   1.770   6.279  0.00  0.00    +0.000 Cl
ATOM     18  C   UNL     1      46.503   3.827   7.421  0.00  0.00    +0.000 A 
ATOM     19  C   UNL     1      45.600   4.380   8.332  0.00  0.00    +0.000 A 
ENDBRANCH  12  13
ENDBRANCH  11  12
ENDBRANCH   4  11
TORSDOF 5
ENDMDL
MODEL 4
REMARK VINA RESULT:    -6.352      3.734      6.268
REMARK INTER + INTRA:          -8.493
REMARK INTER:                  -8.057
REMARK INTRA:                  -0.436
REMARK UNBOUND:                -0.470
REMARK  Name = 
REMARK  5 active torsions:
REMARK  status: ('A' for Active; 'I' for Inactive)
REMARK    1  A    between atoms: N_1  and  C_2
REMARK    2  A    between atoms: C_2  and  C_3
REMARK    3  A    between atoms: C_6  and  O_7
REMARK    4  A    between atoms: O_7  and  C_8
REMARK    5  A    between atoms: C_8  and  C_9
REMARK                            x       y       z     vdW  Elec       q    Type
REMARK                         _______ _______ _______ _____ _____    ______ ____
ROOT
ATOM      1  C   UNL     1      44.922   7.540  11.668  0.00  0.00    +0.000 A 
ATOM      2  C   UNL     1      46.120   6.827  11.654  0.00  0.00    +0.000 A 
ATOM      3  C   UNL     1      46.081   5.448  11.452  0.00  0.00    +0.000 A 
ATOM      4  C   UNL     1      44.856   4.814  11.268  0.00  0.00    +0.000 A 
ATOM      5  C   UNL     1      43.721   5.613  11.235  0.00  0.00    +0.000 A 
ATOM      6  N   UNL     1      43.722   6.951  11.435  0.00  0.00    +0.000 NA
ENDROOT
BRANCH   1   7
ATOM      7  C   UNL     1      44.911   9.035  11.885  0.00  0.00    +0.000 C 
BRANCH   7   8
ATOM      8  N   UNL     1      43.753   9.665  11.249  0.00  0.00    +0.000 NA
ATOM      9  H   UNL     1      42.955   9.039  11.332  0.00  0.00    +0.000 HD
ATOM     10  H   UNL     1      43.957   9.723  10.250  0.00  0.00    +0.000 HD
ENDBRANCH   7   8
ENDBRANCH   1   7
BRANCH   4  11
ATOM     11  O   UNL     1      44.886   3.452  11.141  0.00  0.00    +0.000 OA
BRANCH  11  12
ATOM     12  C   UNL     1      44.187   2.947  10.002  0.00  0.00    +0.000 C 
BRANCH  12  13
ATOM     13  C   UNL     1      45.150   2.767   8.855  0.00  0.00    +0.000 A 
ATOM     14  C   UNL     1      45.422   3.837   7.989  0.00  0.00    +0.000 A 
ATOM     15  C   UNL     1      46.337   3.688   6.945  0.00  0.00    +0.000 A 
ATOM     16  C   UNL     1      46.980   2.466   6.760  0.00  0.00    +0.000 A 
ATOM     17 CL   UNL     1      48.113   2.285   5.478  0.00  0.00    +0.000 Cl
ATOM     18  C   UNL     1      46.713   1.393   7.607  0.00  0.00    +0.000 A 
ATOM     19  C   UNL     1      45.798   1.541   8.651  0.00  0.00    +0.000 A 
ENDBRANCH  12  13
ENDBRANCH  11  12
ENDBRANCH   4  11
TORSDOF 5
ENDMDL
MODEL 5
REMARK VINA RESULT:    -6.101      3.745      6.342
REMARK INTER + INTRA:          -8.176
REMARK INTER:                  -7.749
REMARK INTRA:                  -0.428
REMARK UNBOUND:                -0.470
REMARK  Name = 
REMARK  5 active torsions:
REMARK  status: ('A' for Active; 'I' for Inactive)
REMARK    1  A    between atoms: N_1  and  C_2
REMARK    2  A    between atoms: C_2  and  C_3
REMARK    3  A    between atoms: C_6  and  O_7
REMARK    4  A    between atoms: O_7  and  C_8
REMARK    5  A    between atoms: C_8  and  C_9
REMARK                            x       y       z     vdW  Elec       q    Type
REMARK                         _______ _______ _______ _____ _____    ______ ____
ROOT
ATOM      1  C   UNL     1      47.481   6.132  13.870  0.00  0.00    +0.000 A 
ATOM      2  C   UNL     1      47.057   4.854  14.231  0.00  0.00    +0.000 A 
ATOM      3  C   UNL     1      46.029   4.255  13.504  0.00  0.00    +0.000 A 
ATOM      4  C   UNL     1      45.451   4.939  12.438  0.00  0.00    +0.000 A 
ATOM      5  C   UNL     1      45.981   6.180  12.113  0.00  0.00    +0.000 A 
ATOM      6  N   UNL     1      46.971   6.793  12.802  0.00  0.00    +0.000 NA
ENDROOT
BRANCH   1   7
ATOM      7  C   UNL     1      48.590   6.824  14.628  0.00  0.00    +0.000 C 
BRANCH   7   8
ATOM      8  N   UNL     1      48.463   6.626  16.073  0.00  0.00    +0.000 NA
ATOM      9  H   UNL     1      48.837   5.710  16.310  0.00  0.00    +0.000 HD
ATOM     10  H   UNL     1      47.464   6.579  16.281  0.00  0.00    +0.000 HD
ENDBRANCH   7   8
ENDBRANCH   1   7
BRANCH   4  11
ATOM     11  O   UNL     1      44.405   4.320  11.810  0.00  0.00    +0.000 OA
BRANCH  11  12
ATOM     12  C   UNL     1      44.147   4.788  10.486  0.00  0.00    +0.000 C 
BRANCH  12  13
ATOM     13  C   UNL     1      44.901   3.939   9.492  0.00  0.00    +0.000 A 
ATOM     14  C   UNL     1      45.681   4.545   8.497  0.00  0.00    +0.000 A 
ATOM     15  C   UNL     1      46.408   3.767   7.594  0.00  0.00    +0.000 A 
ATOM     16  C   UNL     1      46.353   2.377   7.681  0.00  0.00    +0.000 A 
ATOM     17 CL   UNL     1      47.254   1.418   6.574  0.00  0.00    +0.000 Cl
ATOM     18  C   UNL     1      45.576   1.762   8.660  0.00  0.00    +0.000 A 
ATOM     19  C   UNL     1      44.849   2.540   9.563  0.00  0.00    +0.000 A 
ENDBRANCH  12  13
ENDBRANCH  11  12
ENDBRANCH   4  11
TORSDOF 5
ENDMDL
MODEL 6
REMARK VINA RESULT:    -5.412      4.396      6.276
REMARK INTER + INTRA:          -7.305
REMARK INTER:                  -6.963
REMARK INTRA:                  -0.341
REMARK UNBOUND:                -0.470
REMARK  Name = 
REMARK  5 active torsions:
REMARK  status: ('A' for Active; 'I' for Inactive)
REMARK    1  A    between atoms: N_1  and  C_2
REMARK    2  A    between atoms: C_2  and  C_3
REMARK    3  A    between atoms: C_6  and  O_7
REMARK    4  A    between atoms: O_7  and  C_8
REMARK    5  A    between atoms: C_8  and  C_9
REMARK                            x       y       z     vdW  Elec       q    Type
REMARK                         _______ _______ _______ _____ _____    ______ ____
ROOT
ATOM      1  C   UNL     1      45.009   4.047  12.090  0.00  0.00    +0.000 A 
ATOM      2  C   UNL     1      45.257   5.393  12.355  0.00  0.00    +0.000 A 
ATOM      3  C   UNL     1      46.192   5.726  13.334  0.00  0.00    +0.000 A 
ATOM      4  C   UNL     1      46.856   4.716  14.023  0.00  0.00    +0.000 A 
ATOM      5  C   UNL     1      46.591   3.405  13.648  0.00  0.00    +0.000 A 
ATOM      6  N   UNL     1      45.685   3.047  12.709  0.00  0.00    +0.000 NA
ENDROOT
BRANCH   1   7
ATOM      7  C   UNL     1      44.004   3.635  11.040  0.00  0.00    +0.000 C 
BRANCH   7   8
ATOM      8  N   UNL     1      43.344   2.376  11.388  0.00  0.00    +0.000 NA
ATOM      9  H   UNL     1      43.216   1.830  10.539  0.00  0.00    +0.000 HD
ATOM     10  H   UNL     1      42.404   2.610  11.711  0.00  0.00    +0.000 HD
ENDBRANCH   7   8
ENDBRANCH   1   7
BRANCH   4  11
ATOM     11  O   UNL     1      47.711   5.112  15.014  0.00  0.00    +0.000 OA
BRANCH  11  12
ATOM     12  C   UNL     1      47.497   4.473  16.274  0.00  0.00    +0.000 C 
BRANCH  12  13
ATOM     13  C   UNL     1      48.794   3.885  16.771  0.00  0.00    +0.000 A 
ATOM     14  C   UNL     1      49.041   2.511  16.640  0.00  0.00    +0.000 A 
ATOM     15  C   UNL     1      50.253   1.965  17.067  0.00  0.00    +0.000 A 
ATOM     16  C   UNL     1      51.221   2.791  17.633  0.00  0.00    +0.000 A 
ATOM     17 CL   UNL     1      52.717   2.120  18.154  0.00  0.00    +0.000 Cl
ATOM     18  C   UNL     1      50.986   4.157  17.777  0.00  0.00    +0.000 A 
ATOM     19  C   UNL     1      49.774   4.704  17.349  0.00  0.00    +0.000 A 
ENDBRANCH  12  13
ENDBRANCH  11  12
ENDBRANCH   4  11
TORSDOF 5
ENDMDL
MODEL 7
REMARK VINA RESULT:    -5.400      2.257      3.424
REMARK INTER + INTRA:          -7.290
REMARK INTER:                  -6.869
REMARK INTRA:                  -0.421
REMARK UNBOUND:                -0.470
REMARK  Name = 
REMARK  5 active torsions:
REMARK  status: ('A' for Active; 'I' for Inactive)
REMARK    1  A    between atoms: N_1  and  C_2
REMARK    2  A    between atoms: C_2  and  C_3
REMARK    3  A    between atoms: C_6  and  O_7
REMARK    4  A    between atoms: O_7  and  C_8
REMARK    5  A    between atoms: C_8  and  C_9
REMARK                            x       y       z     vdW  Elec       q    Type
REMARK                         _______ _______ _______ _____ _____    ______ ____
ROOT
ATOM      1  C   UNL     1      44.521   2.886   9.581  0.00  0.00    +0.000 A 
ATOM      2  C   UNL     1      45.266   4.003   9.211  0.00  0.00    +0.000 A 
ATOM      3  C   UNL     1      45.139   5.175   9.956  0.00  0.00    +0.000 A 
ATOM      4  C   UNL     1      44.277   5.206  11.048  0.00  0.00    +0.000 A 
ATOM      5  C   UNL     1      43.623   4.027  11.379  0.00  0.00    +0.000 A 
ATOM      6  N   UNL     1      43.717   2.876  10.674  0.00  0.00    +0.000 NA
ENDROOT
BRANCH   1   7
ATOM      7  C   UNL     1      44.622   1.594   8.805  0.00  0.00    +0.000 C 
BRANCH   7   8
ATOM      8  N   UNL     1      46.008   1.283   8.449  0.00  0.00    +0.000 NA
ATOM      9  H   UNL     1      46.344   1.991   7.801  0.00  0.00    +0.000 HD
ATOM     10  H   UNL     1      45.991   0.409   7.921  0.00  0.00    +0.000 HD
ENDBRANCH   7   8
ENDBRANCH   1   7
BRANCH   4  11
ATOM     11  O   UNL     1      44.151   6.405  11.693  0.00  0.00    +0.000 OA
BRANCH  11  12
ATOM     12  C   UNL     1      45.020   6.569  12.816  0.00  0.00    +0.000 C 
BRANCH  12  13
ATOM     13  C   UNL     1      46.146   7.503  12.453  0.00  0.00    +0.000 A 
ATOM     14  C   UNL     1      45.946   8.892  12.479  0.00  0.00    +0.000 A 
ATOM     15  C   UNL     1      46.994   9.764  12.177  0.00  0.00    +0.000 A 
ATOM     16  C   UNL     1      48.245   9.251  11.843  0.00  0.00    +0.000 A 
ATOM     17 CL   UNL     1      49.537  10.326  11.478  0.00  0.00    +0.000 Cl
ATOM     18  C   UNL     1      48.456   7.874  11.806  0.00  0.00    +0.000 A 
ATOM     19  C   UNL     1      47.409   7.001  12.108  0.00  0.00    +0.000 A 
ENDBRANCH  12  13
ENDBRANCH  11  12
ENDBRANCH   4  11
TORSDOF 5
ENDMDL
MODEL 8
REMARK VINA RESULT:    -5.397      4.683      7.272
REMARK INTER + INTRA:          -7.286
REMARK INTER:                  -6.885
REMARK INTRA:                  -0.401
REMARK UNBOUND:                -0.470
REMARK  Name = 
REMARK  5 active torsions:
REMARK  status: ('A' for Active; 'I' for Inactive)
REMARK    1  A    between atoms: N_1  and  C_2
REMARK    2  A    between atoms: C_2  and  C_3
REMARK    3  A    between atoms: C_6  and  O_7
REMARK    4  A    between atoms: O_7  and  C_8
REMARK    5  A    between atoms: C_8  and  C_9
REMARK                            x       y       z     vdW  Elec       q    Type
REMARK                         _______ _______ _______ _____ _____    ______ ____
ROOT
ATOM      1  C   UNL     1      48.579   4.408  16.892  0.00  0.00    +0.000 A 
ATOM      2  C   UNL     1      47.627   3.631  16.236  0.00  0.00    +0.000 A 
ATOM      3  C   UNL     1      47.023   4.135  15.085  0.00  0.00    +0.000 A 
ATOM      4  C   UNL     1      47.381   5.395  14.616  0.00  0.00    +0.000 A 
ATOM      5  C   UNL     1      48.384   6.070  15.298  0.00  0.00    +0.000 A 
ATOM      6  N   UNL     1      48.985   5.614  16.422  0.00  0.00    +0.000 NA
ENDROOT
BRANCH   1   7
ATOM      7  C   UNL     1      49.261   3.907  18.144  0.00  0.00    +0.000 C 
BRANCH   7   8
ATOM      8  N   UNL     1      48.338   3.160  19.000  0.00  0.00    +0.000 NA
ATOM      9  H   UNL     1      48.880   2.596  19.650  0.00  0.00    +0.000 HD
ATOM     10  H   UNL     1      47.846   2.495  18.400  0.00  0.00    +0.000 HD
ENDBRANCH   7   8
ENDBRANCH   1   7
BRANCH   4  11
ATOM     11  O   UNL     1      46.703   5.855  13.520  0.00  0.00    +0.000 OA
BRANCH  11  12
ATOM     12  C   UNL     1      45.424   5.252  13.317  0.00  0.00    +0.000 C 
BRANCH  12  13
ATOM     13  C   UNL     1      45.295   4.806  11.883  0.00  0.00    +0.000 A 
ATOM     14  C   UNL     1      45.675   5.665  10.841  0.00  0.00    +0.000 A 
ATOM     15  C   UNL     1      45.590   5.247   9.511  0.00  0.00    +0.000 A 
ATOM     16  C   UNL     1      45.120   3.968   9.219  0.00  0.00    +0.000 A 
ATOM     17 CL   UNL     1      45.022   3.450   7.581  0.00  0.00    +0.000 Cl
ATOM     18  C   UNL     1      44.732   3.107  10.243  0.00  0.00    +0.000 A 
ATOM     19  C   UNL     1      44.817   3.525  11.573  0.00  0.00    +0.000 A 
ENDBRANCH  12  13
ENDBRANCH  11  12
ENDBRANCH   4  11
TORSDOF 5
ENDMDL
MODEL 9
REMARK VINA RESULT:    -5.349      4.256      6.707
REMARK INTER + INTRA:          -7.226
REMARK INTER:                  -6.947
REMARK INTRA:                  -0.280
REMARK UNBOUND:                -0.470
REMARK  Name = 
REMARK  5 active torsions:
REMARK  status: ('A' for Active; 'I' for Inactive)
REMARK    1  A    between atoms: N_1  and  C_2
REMARK    2  A    between atoms: C_2  and  C_3
REMARK    3  A    between atoms: C_6  and  O_7
REMARK    4  A    between atoms: O_7  and  C_8
REMARK    5  A    between atoms: C_8  and  C_9
REMARK                            x       y       z     vdW  Elec       q    Type
REMARK                         _______ _______ _______ _____ _____    ______ ____
ROOT
ATOM      1  C   UNL     1      48.819   6.095  15.562  0.00  0.00    +0.000 A 
ATOM      2  C   UNL     1      48.173   5.075  16.257  0.00  0.00    +0.000 A 
ATOM      3  C   UNL     1      47.123   4.398  15.638  0.00  0.00    +0.000 A 
ATOM      4  C   UNL     1      46.742   4.750  14.347  0.00  0.00    +0.000 A 
ATOM      5  C   UNL     1      47.484   5.736  13.709  0.00  0.00    +0.000 A 
ATOM      6  N   UNL     1      48.503   6.418  14.283  0.00  0.00    +0.000 NA
ENDROOT
BRANCH   1   7
ATOM      7  C   UNL     1      49.961   6.860  16.189  0.00  0.00    +0.000 C 
BRANCH   7   8
ATOM      8  N   UNL     1      50.972   7.231  15.198  0.00  0.00    +0.000 NA
ATOM      9  H   UNL     1      51.611   6.449  15.077  0.00  0.00    +0.000 HD
ATOM     10  H   UNL     1      51.530   7.983  15.608  0.00  0.00    +0.000 HD
ENDBRANCH   7   8
ENDBRANCH   1   7
BRANCH   4  11
ATOM     11  O   UNL     1      45.664   4.090  13.826  0.00  0.00    +0.000 OA
BRANCH  11  12
ATOM     12  C   UNL     1      44.824   4.890  12.993  0.00  0.00    +0.000 C 
BRANCH  12  13
ATOM     13  C   UNL     1      45.028   4.507  11.549  0.00  0.00    +0.000 A 
ATOM     14  C   UNL     1      44.724   3.208  11.114  0.00  0.00    +0.000 A 
ATOM     15  C   UNL     1      44.879   2.855   9.772  0.00  0.00    +0.000 A 
ATOM     16  C   UNL     1      45.344   3.799   8.860  0.00  0.00    +0.000 A 
ATOM     17 CL   UNL     1      45.529   3.367   7.205  0.00  0.00    +0.000 Cl
ATOM     18  C   UNL     1      45.658   5.091   9.278  0.00  0.00    +0.000 A 
ATOM     19  C   UNL     1      45.503   5.444  10.621  0.00  0.00    +0.000 A 
ENDBRANCH  12  13
ENDBRANCH  11  12
ENDBRANCH   4  11
TORSDOF 5
ENDMDL
