MODEL 1
REMARK VINA RESULT:    -8.449      0.000      0.000
REMARK INTER + INTRA:         -11.709
REMARK INTER:                 -10.919
REMARK INTRA:                  -0.790
REMARK UNBOUND:                -0.790
REMARK  Name = 
REMARK  5 active torsions:
REMARK  status: ('A' for Active; 'I' for Inactive)
REMARK    1  A    between atoms: C_2  and  C_4
REMARK    2  A    between atoms: C_8  and  C_9
REMARK    3  A    between atoms: C_9  and  C_10
REMARK    4  A    between atoms: C_10  and  C_11
REMARK    5  A    between atoms: C_15  and  C_16
REMARK                            x       y       z     vdW  Elec       q    Type
REMARK                         _______ _______ _______ _____ _____    ______ ____
ROOT
ATOM      1  C   UNL     1      43.732   4.261  11.353  0.00  0.00    +0.000 C 
ENDROOT
BRANCH   1   2
ATOM      2  C   UNL     1      44.984   4.730  12.066  0.00  0.00    +0.000 A 
ATOM      3  C   UNL     1      45.643   3.858  12.940  0.00  0.00    +0.000 A 
ATOM      4  C   UNL     1      46.810   4.255  13.592  0.00  0.00    +0.000 A 
ATOM      5  C   UNL     1      47.338   5.531  13.372  0.00  0.00    +0.000 A 
ATOM      6  C   UNL     1      46.705   6.437  12.511  0.00  0.00    +0.000 A 
ATOM      7  C   UNL     1      45.508   6.023  11.897  0.00  0.00    +0.000 A 
BRANCH   6   8
ATOM      8  C   UNL     1      47.290   7.758  12.204  0.00  0.00    +0.000 A 
ATOM      9  C   UNL     1      46.589   8.946  12.448  0.00  0.00    +0.000 A 
ATOM     10  N   UNL     1      47.071  10.198  12.236  0.00  0.00    +0.000 NA
ATOM     11  C   UNL     1      48.332  10.280  11.764  0.00  0.00    +0.000 A 
ATOM     12  C   UNL     1      49.116   9.175  11.492  0.00  0.00    +0.000 A 
ATOM     13  F   UNL     1      50.368   9.318  11.040  0.00  0.00    +0.000 F 
ATOM     14  C   UNL     1      48.592   7.906  11.707  0.00  0.00    +0.000 A 
ENDBRANCH   6   8
ENDBRANCH   1   2
BRANCH   1  15
ATOM     15  C   UNL     1      43.898   2.947  10.574  0.00  0.00    +0.000 C 
BRANCH  15  20
ATOM     16  C   UNL     1      46.381   2.100   7.827  0.00  0.00    +0.000 A 
ATOM     17  C   UNL     1      46.503   3.355   7.249  0.00  0.00    +0.000 A 
ATOM     18  N   UNL     1      45.828   4.450   7.680  0.00  0.00    +0.000 NA
ATOM     19  C   UNL     1      45.007   4.282   8.740  0.00  0.00    +0.000 A 
ATOM     20  C   UNL     1      44.830   3.072   9.403  0.00  0.00    +0.000 A 
ATOM     21  C   UNL     1      45.546   1.965   8.937  0.00  0.00    +0.000 A 
BRANCH  16  23
ATOM     22  N   UNL     1      46.784  -0.288   7.690  0.00  0.00    +0.000 N 
ATOM     23  C   UNL     1      47.133   0.963   7.261  0.00  0.00    +0.000 C 
ATOM     24  O   UNL     1      48.006   1.128   6.418  0.00  0.00    +0.000 OA
ATOM     25  H   UNL     1      47.231  -1.065   7.218  0.00  0.00    +0.000 HD
ATOM     26  H   UNL     1      45.917  -0.474   8.170  0.00  0.00    +0.000 HD
ENDBRANCH  16  23
ENDBRANCH  15  20
ENDBRANCH   1  15
TORSDOF 5
ENDMDL
MODEL 2
REMARK VINA RESULT:    -8.403      1.960      2.324
REMARK INTER + INTRA:         -11.649
REMARK INTER:                 -10.811
REMARK INTRA:                  -0.838
REMARK UNBOUND:                -0.790
REMARK  Name = 
REMARK  5 active torsions:
REMARK  status: ('A' for Active; 'I' for Inactive)
REMARK    1  A    between atoms: C_2  and  C_4
REMARK    2  A    between atoms: C_8  and  C_9
REMARK    3  A    between atoms: C_9  and  C_10
REMARK    4  A    between atoms: C_10  and  C_11
REMARK    5  A    between atoms: C_15  and  C_16
REMARK                            x       y       z     vdW  Elec       q    Type
REMARK                         _______ _______ _______ _____ _____    ______ ____
ROOT
ATOM      1  C   UNL     1      44.498   2.876  11.946  0.00  0.00    +0.000 C 
ENDROOT
BRANCH   1   2
ATOM      2  C   UNL     1      45.291   4.068  12.443  0.00  0.00    +0.000 A 
ATOM      3  C   UNL     1      46.436   3.854  13.219  0.00  0.00    +0.000 A 
ATOM      4  C   UNL     1      47.198   4.931  13.671  0.00  0.00    +0.000 A 
ATOM      5  C   UNL     1      46.828   6.239  13.346  0.00  0.00    +0.000 A 
ATOM      6  C   UNL     1      45.684   6.497  12.577  0.00  0.00    +0.000 A 
ATOM      7  C   UNL     1      44.913   5.393  12.168  0.00  0.00    +0.000 A 
BRANCH   6   8
ATOM      8  C   UNL     1      45.321   7.866  12.156  0.00  0.00    +0.000 A 
ATOM      9  C   UNL     1      46.112   8.971  12.492  0.00  0.00    +0.000 A 
ATOM     10  N   UNL     1      45.873  10.252  12.107  0.00  0.00    +0.000 NA
ATOM     11  C   UNL     1      44.787  10.449  11.331  0.00  0.00    +0.000 A 
ATOM     12  C   UNL     1      43.940   9.431  10.936  0.00  0.00    +0.000 A 
ATOM     13  F   UNL     1      42.885   9.685  10.151  0.00  0.00    +0.000 F 
ATOM     14  C   UNL     1      44.202   8.133  11.355  0.00  0.00    +0.000 A 
ENDBRANCH   6   8
ENDBRANCH   1   2
BRANCH   1  15
ATOM     15  C   UNL     1      43.833   3.082  10.576  0.00  0.00    +0.000 C 
BRANCH  15  20
ATOM     16  C   UNL     1      46.385   2.192   7.906  0.00  0.00    +0.000 A 
ATOM     17  C   UNL     1      46.610   3.459   7.388  0.00  0.00    +0.000 A 
ATOM     18  N   UNL     1      45.984   4.576   7.837  0.00  0.00    +0.000 NA
ATOM     19  C   UNL     1      45.106   4.418   8.852  0.00  0.00    +0.000 A 
ATOM     20  C   UNL     1      44.825   3.195   9.453  0.00  0.00    +0.000 A 
ATOM     21  C   UNL     1      45.492   2.064   8.971  0.00  0.00    +0.000 A 
BRANCH  16  23
ATOM     22  N   UNL     1      46.713  -0.207   7.758  0.00  0.00    +0.000 N 
ATOM     23  C   UNL     1      47.092   1.034   7.324  0.00  0.00    +0.000 C 
ATOM     24  O   UNL     1      47.952   1.174   6.465  0.00  0.00    +0.000 OA
ATOM     25  H   UNL     1      47.127  -0.996   7.277  0.00  0.00    +0.000 HD
ATOM     26  H   UNL     1      45.850  -0.368   8.255  0.00  0.00    +0.000 HD
ENDBRANCH  16  23
ENDBRANCH  15  20
ENDBRANCH   1  15
TORSDOF 5
ENDMDL
MODEL 3
REMARK VINA RESULT:    -8.241      3.057      4.227
REMARK INTER + INTRA:         -11.440
REMARK INTER:                 -10.578
REMARK INTRA:                  -0.861
REMARK UNBOUND:                -0.790
REMARK  Name = 
REMARK  5 active torsions:
REMARK  status: ('A' for Active; 'I' for Inactive)
REMARK    1  A    between atoms: C_2  and  C_4
REMARK    2  A    between atoms: C_8  and  C_9
REMARK    3  A    between atoms: C_9  and  C_10
REMARK    4  A    between atoms: C_10  and  C_11
REMARK    5  A    between atoms: C_15  and  C_16
REMARK                            x       y       z     vdW  Elec       q    Type
REMARK                         _______ _______ _______ _____ _____    ______ ____
ROOT
ATOM      1  C   UNL     1      44.263   4.363  11.058  0.00  0.00    +0.000 C 
ENDROOT
BRANCH   1   2
ATOM      2  C   UNL     1      45.445   5.073  11.688  0.00  0.00    +0.000 A 
ATOM      3  C   UNL     1      46.055   6.129  11.002  0.00  0.00    +0.000 A 
ATOM      4  C   UNL     1      47.129   6.815  11.569  0.00  0.00    +0.000 A 
ATOM      5  C   UNL     1      47.603   6.457  12.834  0.00  0.00    +0.000 A 
ATOM      6  C   UNL     1      47.024   5.400  13.551  0.00  0.00    +0.000 A 
ATOM      7  C   UNL     1      45.967   4.701  12.938  0.00  0.00    +0.000 A 
BRANCH   6   8
ATOM      8  C   UNL     1      47.458   5.059  14.921  0.00  0.00    +0.000 A 
ATOM      9  C   UNL     1      48.344   5.875  15.635  0.00  0.00    +0.000 A 
ATOM     10  N   UNL     1      48.755   5.657  16.911  0.00  0.00    +0.000 NA
ATOM     11  C   UNL     1      48.248   4.566  17.523  0.00  0.00    +0.000 A 
ATOM     12  C   UNL     1      47.364   3.695  16.915  0.00  0.00    +0.000 A 
ATOM     13  F   UNL     1      46.881   2.637  17.579  0.00  0.00    +0.000 F 
ATOM     14  C   UNL     1      46.970   3.937  15.605  0.00  0.00    +0.000 A 
ENDBRANCH   6   8
ENDBRANCH   1   2
BRANCH   1  15
ATOM     15  C   UNL     1      44.221   4.436   9.524  0.00  0.00    +0.000 C 
BRANCH  15  20
ATOM     16  C   UNL     1      46.544   2.549   7.185  0.00  0.00    +0.000 A 
ATOM     17  C   UNL     1      46.385   1.272   7.702  0.00  0.00    +0.000 A 
ATOM     18  N   UNL     1      45.587   0.985   8.761  0.00  0.00    +0.000 NA
ATOM     19  C   UNL     1      44.914   2.017   9.316  0.00  0.00    +0.000 A 
ATOM     20  C   UNL     1      44.990   3.329   8.861  0.00  0.00    +0.000 A 
ATOM     21  C   UNL     1      45.816   3.590   7.763  0.00  0.00    +0.000 A 
BRANCH  16  23
ATOM     22  N   UNL     1      48.787   2.489   6.264  0.00  0.00    +0.000 N 
ATOM     23  C   UNL     1      47.464   2.763   6.050  0.00  0.00    +0.000 C 
ATOM     24  O   UNL     1      47.057   3.133   4.956  0.00  0.00    +0.000 OA
ATOM     25  H   UNL     1      49.391   2.536   5.452  0.00  0.00    +0.000 HD
ATOM     26  H   UNL     1      49.108   1.946   7.050  0.00  0.00    +0.000 HD
ENDBRANCH  16  23
ENDBRANCH  15  20
ENDBRANCH   1  15
TORSDOF 5
ENDMDL
MODEL 4
REMARK VINA RESULT:    -7.989      3.380      6.936
REMARK INTER + INTRA:         -11.114
REMARK INTER:                 -10.496
REMARK INTRA:                  -0.618
REMARK UNBOUND:                -0.790
REMARK  Name = 
REMARK  5 active torsions:
REMARK  status: ('A' for Active; 'I' for Inactive)
REMARK    1  A    between atoms: C_2  and  C_4
REMARK    2  A    between atoms: C_8  and  C_9
REMARK    3  A    between atoms: C_9  and  C_10
REMARK    4  A    between atoms: C_10  and  C_11
REMARK    5  A    between atoms: C_15  and  C_16
REMARK                            x       y       z     vdW  Elec       q    Type
REMARK                         _______ _______ _______ _____ _____    ______ ____
ROOT
ATOM      1  C   UNL     1      44.182   6.705  11.523  0.00  0.00    +0.000 C 
ENDROOT
BRANCH   1   2
ATOM      2  C   UNL     1      44.153   5.228  11.182  0.00  0.00    +0.000 A 
ATOM      3  C   UNL     1      43.331   4.370  11.923  0.00  0.00    +0.000 A 
ATOM      4  C   UNL     1      43.267   3.012  11.617  0.00  0.00    +0.000 A 
ATOM      5  C   UNL     1      44.019   2.493  10.559  0.00  0.00    +0.000 A 
ATOM      6  C   UNL     1      44.860   3.317   9.797  0.00  0.00    +0.000 A 
ATOM      7  C   UNL     1      44.934   4.677  10.154  0.00  0.00    +0.000 A 
BRANCH   6   8
ATOM      8  C   UNL     1      45.600   2.804   8.627  0.00  0.00    +0.000 A 
ATOM      9  C   UNL     1      46.070   3.660   7.622  0.00  0.00    +0.000 A 
ATOM     10  N   UNL     1      46.795   3.275   6.540  0.00  0.00    +0.000 NA
ATOM     11  C   UNL     1      47.083   1.959   6.452  0.00  0.00    +0.000 A 
ATOM     12  C   UNL     1      46.675   1.027   7.387  0.00  0.00    +0.000 A 
ATOM     13  F   UNL     1      47.006  -0.264   7.256  0.00  0.00    +0.000 F 
ATOM     14  C   UNL     1      45.924   1.448   8.478  0.00  0.00    +0.000 A 
ENDBRANCH   6   8
ENDBRANCH   1   2
BRANCH   1  15
ATOM     15  C   UNL     1      45.568   7.358  11.402  0.00  0.00    +0.000 C 
BRANCH  15  20
ATOM     16  C   UNL     1      47.246   5.494  14.255  0.00  0.00    +0.000 A 
ATOM     17  C   UNL     1      48.180   6.452  14.622  0.00  0.00    +0.000 A 
ATOM     18  N   UNL     1      48.309   7.651  14.001  0.00  0.00    +0.000 NA
ATOM     19  C   UNL     1      47.461   7.905  12.980  0.00  0.00    +0.000 A 
ATOM     20  C   UNL     1      46.478   7.021  12.548  0.00  0.00    +0.000 A 
ATOM     21  C   UNL     1      46.367   5.796  13.213  0.00  0.00    +0.000 A 
BRANCH  16  23
ATOM     22  N   UNL     1      46.891   4.243  16.302  0.00  0.00    +0.000 N 
ATOM     23  C   UNL     1      47.209   4.204  14.972  0.00  0.00    +0.000 C 
ATOM     24  O   UNL     1      47.416   3.144  14.395  0.00  0.00    +0.000 OA
ATOM     25  H   UNL     1      46.764   3.348  16.758  0.00  0.00    +0.000 HD
ATOM     26  H   UNL     1      46.466   5.048  16.735  0.00  0.00    +0.000 HD
ENDBRANCH  16  23
ENDBRANCH  15  20
ENDBRANCH   1  15
TORSDOF 5
ENDMDL
MODEL 5
REMARK VINA RESULT:    -7.728      1.699      2.154
REMARK INTER + INTRA:         -10.777
REMARK INTER:                 -10.030
REMARK INTRA:                  -0.747
REMARK UNBOUND:                -0.790
REMARK  Name = 
REMARK  5 active torsions:
REMARK  status: ('A' for Active; 'I' for Inactive)
REMARK    1  A    between atoms: C_2  and  C_4
REMARK    2  A    between atoms: C_8  and  C_9
REMARK    3  A    between atoms: C_9  and  C_10
REMARK    4  A    between atoms: C_10  and  C_11
REMARK    5  A    between atoms: C_15  and  C_16
REMARK                            x       y       z     vdW  Elec       q    Type
REMARK                         _______ _______ _______ _____ _____    ______ ____
ROOT
ATOM      1  C   UNL     1      44.820   3.386  12.010  0.00  0.00    +0.000 C 
ENDROOT
BRANCH   1   2
ATOM      2  C   UNL     1      45.101   4.872  12.108  0.00  0.00    +0.000 A 
ATOM      3  C   UNL     1      44.056   5.782  11.911  0.00  0.00    +0.000 A 
ATOM      4  C   UNL     1      44.281   7.154  12.018  0.00  0.00    +0.000 A 
ATOM      5  C   UNL     1      45.556   7.635  12.331  0.00  0.00    +0.000 A 
ATOM      6  C   UNL     1      46.631   6.757  12.529  0.00  0.00    +0.000 A 
ATOM      7  C   UNL     1      46.383   5.380  12.376  0.00  0.00    +0.000 A 
BRANCH   6   8
ATOM      8  C   UNL     1      47.965   7.241  12.939  0.00  0.00    +0.000 A 
ATOM      9  C   UNL     1      48.629   8.253  12.233  0.00  0.00    +0.000 A 
ATOM     10  N   UNL     1      49.833   8.783  12.570  0.00  0.00    +0.000 NA
ATOM     11  C   UNL     1      50.413   8.287  13.683  0.00  0.00    +0.000 A 
ATOM     12  C   UNL     1      49.847   7.292  14.457  0.00  0.00    +0.000 A 
ATOM     13  F   UNL     1      50.463   6.851  15.561  0.00  0.00    +0.000 F 
ATOM     14  C   UNL     1      48.620   6.759  14.081  0.00  0.00    +0.000 A 
ENDBRANCH   6   8
ENDBRANCH   1   2
BRANCH   1  15
ATOM     15  C   UNL     1      44.063   2.964  10.742  0.00  0.00    +0.000 C 
BRANCH  15  20
ATOM     16  C   UNL     1      46.366   2.073   7.856  0.00  0.00    +0.000 A 
ATOM     17  C   UNL     1      46.391   3.300   7.209  0.00  0.00    +0.000 A 
ATOM     18  N   UNL     1      45.705   4.389   7.638  0.00  0.00    +0.000 NA
ATOM     19  C   UNL     1      44.974   4.245   8.765  0.00  0.00    +0.000 A 
ATOM     20  C   UNL     1      44.898   3.064   9.498  0.00  0.00    +0.000 A 
ATOM     21  C   UNL     1      45.623   1.963   9.031  0.00  0.00    +0.000 A 
BRANCH  16  23
ATOM     22  N   UNL     1      46.732  -0.318   7.666  0.00  0.00    +0.000 N 
ATOM     23  C   UNL     1      47.121   0.939   7.288  0.00  0.00    +0.000 C 
ATOM     24  O   UNL     1      48.031   1.110   6.487  0.00  0.00    +0.000 OA
ATOM     25  H   UNL     1      47.184  -1.089   7.191  0.00  0.00    +0.000 HD
ATOM     26  H   UNL     1      45.842  -0.500   8.104  0.00  0.00    +0.000 HD
ENDBRANCH  16  23
ENDBRANCH  15  20
ENDBRANCH   1  15
TORSDOF 5
ENDMDL
MODEL 6
REMARK VINA RESULT:    -7.660      3.783      7.325
REMARK INTER + INTRA:         -10.689
REMARK INTER:                  -9.776
REMARK INTRA:                  -0.913
REMARK UNBOUND:                -0.790
REMARK  Name = 
REMARK  5 active torsions:
REMARK  status: ('A' for Active; 'I' for Inactive)
REMARK    1  A    between atoms: C_2  and  C_4
REMARK    2  A    between atoms: C_8  and  C_9
REMARK    3  A    between atoms: C_9  and  C_10
REMARK    4  A    between atoms: C_10  and  C_11
REMARK    5  A    between atoms: C_15  and  C_16
REMARK                            x       y       z     vdW  Elec       q    Type
REMARK                         _______ _______ _______ _____ _____    ______ ____
ROOT
ATOM      1  C   UNL     1      44.784   6.117  12.980  0.00  0.00    +0.000 C 
ENDROOT
BRANCH   1   2
ATOM      2  C   UNL     1      44.506   4.850  12.196  0.00  0.00    +0.000 A 
ATOM      3  C   UNL     1      43.546   3.947  12.670  0.00  0.00    +0.000 A 
ATOM      4  C   UNL     1      43.254   2.786  11.956  0.00  0.00    +0.000 A 
ATOM      5  C   UNL     1      43.913   2.514  10.754  0.00  0.00    +0.000 A 
ATOM      6  C   UNL     1      44.886   3.388  10.249  0.00  0.00    +0.000 A 
ATOM      7  C   UNL     1      45.188   4.534  11.010  0.00  0.00    +0.000 A 
BRANCH   6   8
ATOM      8  C   UNL     1      45.535   3.160   8.942  0.00  0.00    +0.000 A 
ATOM      9  C   UNL     1      45.845   4.220   8.081  0.00  0.00    +0.000 A 
ATOM     10  N   UNL     1      46.480   4.099   6.886  0.00  0.00    +0.000 NA
ATOM     11  C   UNL     1      46.841   2.849   6.525  0.00  0.00    +0.000 A 
ATOM     12  C   UNL     1      46.589   1.732   7.299  0.00  0.00    +0.000 A 
ATOM     13  F   UNL     1      46.986   0.518   6.897  0.00  0.00    +0.000 F 
ATOM     14  C   UNL     1      45.927   1.884   8.511  0.00  0.00    +0.000 A 
ENDBRANCH   6   8
ENDBRANCH   1   2
BRANCH   1  15
ATOM     15  C   UNL     1      45.924   6.978  12.414  0.00  0.00    +0.000 C 
BRANCH  15  20
ATOM     16  C   UNL     1      43.794   9.802  11.029  0.00  0.00    +0.000 A 
ATOM     17  C   UNL     1      44.683  10.853  11.208  0.00  0.00    +0.000 A 
ATOM     18  N   UNL     1      45.915  10.710  11.756  0.00  0.00    +0.000 NA
ATOM     19  C   UNL     1      46.276   9.462  12.129  0.00  0.00    +0.000 A 
ATOM     20  C   UNL     1      45.469   8.340  11.974  0.00  0.00    +0.000 A 
ATOM     21  C   UNL     1      44.206   8.522  11.400  0.00  0.00    +0.000 A 
BRANCH  16  23
ATOM     22  N   UNL     1      41.396   9.443  11.043  0.00  0.00    +0.000 N 
ATOM     23  C   UNL     1      42.461  10.069  10.455  0.00  0.00    +0.000 C 
ATOM     24  O   UNL     1      42.310  10.843   9.519  0.00  0.00    +0.000 OA
ATOM     25  H   UNL     1      40.478   9.715  10.711  0.00  0.00    +0.000 HD
ATOM     26  H   UNL     1      41.452   9.019  11.956  0.00  0.00    +0.000 HD
ENDBRANCH  16  23
ENDBRANCH  15  20
ENDBRANCH   1  15
TORSDOF 5
ENDMDL
MODEL 7
REMARK VINA RESULT:    -7.321      3.604      7.213
REMARK INTER + INTRA:         -10.251
REMARK INTER:                  -9.327
REMARK INTRA:                  -0.924
REMARK UNBOUND:                -0.790
REMARK  Name = 
REMARK  5 active torsions:
REMARK  status: ('A' for Active; 'I' for Inactive)
REMARK    1  A    between atoms: C_2  and  C_4
REMARK    2  A    between atoms: C_8  and  C_9
REMARK    3  A    between atoms: C_9  and  C_10
REMARK    4  A    between atoms: C_10  and  C_11
REMARK    5  A    between atoms: C_15  and  C_16
REMARK                            x       y       z     vdW  Elec       q    Type
REMARK                         _______ _______ _______ _____ _____    ______ ____
ROOT
ATOM      1  C   UNL     1      44.972   6.794  12.652  0.00  0.00    +0.000 C 
ENDROOT
BRANCH   1   2
ATOM      2  C   UNL     1      44.622   5.447  12.051  0.00  0.00    +0.000 A 
ATOM      3  C   UNL     1      43.646   4.655  12.666  0.00  0.00    +0.000 A 
ATOM      4  C   UNL     1      43.289   3.422  12.122  0.00  0.00    +0.000 A 
ATOM      5  C   UNL     1      43.899   2.967  10.950  0.00  0.00    +0.000 A 
ATOM      6  C   UNL     1      44.887   3.727  10.307  0.00  0.00    +0.000 A 
ATOM      7  C   UNL     1      45.255   4.950  10.900  0.00  0.00    +0.000 A 
BRANCH   6   8
ATOM      8  C   UNL     1      45.486   3.301   9.026  0.00  0.00    +0.000 A 
ATOM      9  C   UNL     1      45.819   4.226   8.028  0.00  0.00    +0.000 A 
ATOM     10  N   UNL     1      46.412   3.922   6.844  0.00  0.00    +0.000 NA
ATOM     11  C   UNL     1      46.704   2.621   6.639  0.00  0.00    +0.000 A 
ATOM     12  C   UNL     1      46.424   1.625   7.556  0.00  0.00    +0.000 A 
ATOM     13  F   UNL     1      46.753   0.352   7.305  0.00  0.00    +0.000 F 
ATOM     14  C   UNL     1      45.806   1.964   8.754  0.00  0.00    +0.000 A 
ENDBRANCH   6   8
ENDBRANCH   1   2
BRANCH   1  15
ATOM     15  C   UNL     1      45.990   7.608  11.839  0.00  0.00    +0.000 C 
BRANCH  15  20
ATOM     16  C   UNL     1      48.880   7.175  14.266  0.00  0.00    +0.000 A 
ATOM     17  C   UNL     1      49.931   7.459  13.406  0.00  0.00    +0.000 A 
ATOM     18  N   UNL     1      49.768   7.769  12.096  0.00  0.00    +0.000 NA
ATOM     19  C   UNL     1      48.499   7.806  11.632  0.00  0.00    +0.000 A 
ATOM     20  C   UNL     1      47.377   7.557  12.415  0.00  0.00    +0.000 A 
ATOM     21  C   UNL     1      47.581   7.247  13.763  0.00  0.00    +0.000 A 
BRANCH  16  23
ATOM     22  N   UNL     1      48.198   7.100  16.592  0.00  0.00    +0.000 N 
ATOM     23  C   UNL     1      49.167   6.815  15.668  0.00  0.00    +0.000 C 
ATOM     24  O   UNL     1      50.207   6.254  15.986  0.00  0.00    +0.000 OA
ATOM     25  H   UNL     1      48.359   6.753  17.530  0.00  0.00    +0.000 HD
ATOM     26  H   UNL     1      47.248   7.314  16.333  0.00  0.00    +0.000 HD
ENDBRANCH  16  23
ENDBRANCH  15  20
ENDBRANCH   1  15
TORSDOF 5
ENDMDL
MODEL 8
REMARK VINA RESULT:    -7.270      4.520      7.818
REMARK INTER + INTRA:         -10.185
REMARK INTER:                  -9.395
REMARK INTRA:                  -0.790
REMARK UNBOUND:                -0.790
REMARK  Name = 
REMARK  5 active torsions:
REMARK  status: ('A' for Active; 'I' for Inactive)
REMARK    1  A    between atoms: C_2  and  C_4
REMARK    2  A    between atoms: C_8  and  C_9
REMARK    3  A    between atoms: C_9  and  C_10
REMARK    4  A    between atoms: C_10  and  C_11
REMARK    5  A    between atoms: C_15  and  C_16
REMARK                            x       y       z     vdW  Elec       q    Type
REMARK                         _______ _______ _______ _____ _____    ______ ____
ROOT
ATOM      1  C   UNL     1      48.677   7.263  13.487  0.00  0.00    +0.000 C 
ENDROOT
BRANCH   1   2
ATOM      2  C   UNL     1      47.325   7.244  12.803  0.00  0.00    +0.000 A 
ATOM      3  C   UNL     1      46.492   8.365  12.901  0.00  0.00    +0.000 A 
ATOM      4  C   UNL     1      45.253   8.384  12.262  0.00  0.00    +0.000 A 
ATOM      5  C   UNL     1      44.832   7.284  11.510  0.00  0.00    +0.000 A 
ATOM      6  C   UNL     1      45.633   6.140  11.393  0.00  0.00    +0.000 A 
ATOM      7  C   UNL     1      46.862   6.133  12.080  0.00  0.00    +0.000 A 
BRANCH   6   8
ATOM      8  C   UNL     1      45.243   5.000  10.538  0.00  0.00    +0.000 A 
ATOM      9  C   UNL     1      44.407   3.980  11.010  0.00  0.00    +0.000 A 
ATOM     10  N   UNL     1      43.967   2.925  10.277  0.00  0.00    +0.000 NA
ATOM     11  C   UNL     1      44.371   2.883   8.990  0.00  0.00    +0.000 A 
ATOM     12  C   UNL     1      45.191   3.837   8.418  0.00  0.00    +0.000 A 
ATOM     13  F   UNL     1      45.545   3.751   7.130  0.00  0.00    +0.000 F 
ATOM     14  C   UNL     1      45.636   4.899   9.196  0.00  0.00    +0.000 A 
ENDBRANCH   6   8
ENDBRANCH   1   2
BRANCH   1  15
ATOM     15  C   UNL     1      48.634   7.651  14.973  0.00  0.00    +0.000 C 
BRANCH  15  20
ATOM     16  C   UNL     1      48.683   4.603  17.239  0.00  0.00    +0.000 A 
ATOM     17  C   UNL     1      50.042   4.561  17.518  0.00  0.00    +0.000 A 
ATOM     18  N   UNL     1      50.940   5.443  17.014  0.00  0.00    +0.000 NA
ATOM     19  C   UNL     1      50.456   6.413  16.207  0.00  0.00    +0.000 A 
ATOM     20  C   UNL     1      49.111   6.554  15.881  0.00  0.00    +0.000 A 
ATOM     21  C   UNL     1      48.210   5.631  16.423  0.00  0.00    +0.000 A 
BRANCH  16  23
ATOM     22  N   UNL     1      48.215   2.954  18.955  0.00  0.00    +0.000 N 
ATOM     23  C   UNL     1      47.793   3.574  17.810  0.00  0.00    +0.000 C 
ATOM     24  O   UNL     1      46.709   3.312  17.305  0.00  0.00    +0.000 OA
ATOM     25  H   UNL     1      47.552   2.329  19.397  0.00  0.00    +0.000 HD
ATOM     26  H   UNL     1      48.958   3.322  19.528  0.00  0.00    +0.000 HD
ENDBRANCH  16  23
ENDBRANCH  15  20
ENDBRANCH   1  15
TORSDOF 5
ENDMDL
MODEL 9
REMARK VINA RESULT:    -7.254      3.196      4.511
REMARK INTER + INTRA:         -10.164
REMARK INTER:                  -9.260
REMARK INTRA:                  -0.904
REMARK UNBOUND:                -0.790
REMARK  Name = 
REMARK  5 active torsions:
REMARK  status: ('A' for Active; 'I' for Inactive)
REMARK    1  A    between atoms: C_2  and  C_4
REMARK    2  A    between atoms: C_8  and  C_9
REMARK    3  A    between atoms: C_9  and  C_10
REMARK    4  A    between atoms: C_10  and  C_11
REMARK    5  A    between atoms: C_15  and  C_16
REMARK                            x       y       z     vdW  Elec       q    Type
REMARK                         _______ _______ _______ _____ _____    ______ ____
ROOT
ATOM      1  C   UNL     1      45.825   6.675  10.942  0.00  0.00    +0.000 C 
ENDROOT
BRANCH   1   2
ATOM      2  C   UNL     1      46.948   6.767  11.957  0.00  0.00    +0.000 A 
ATOM      3  C   UNL     1      48.018   7.637  11.717  0.00  0.00    +0.000 A 
ATOM      4  C   UNL     1      49.052   7.758  12.645  0.00  0.00    +0.000 A 
ATOM      5  C   UNL     1      49.026   7.016  13.829  0.00  0.00    +0.000 A 
ATOM      6  C   UNL     1      47.976   6.128  14.102  0.00  0.00    +0.000 A 
ATOM      7  C   UNL     1      46.965   5.997  13.131  0.00  0.00    +0.000 A 
BRANCH   6   8
ATOM      8  C   UNL     1      47.889   5.395  15.382  0.00  0.00    +0.000 A 
ATOM      9  C   UNL     1      47.100   4.246  15.518  0.00  0.00    +0.000 A 
ATOM     10  N   UNL     1      47.002   3.492  16.644  0.00  0.00    +0.000 NA
ATOM     11  C   UNL     1      47.740   3.895  17.699  0.00  0.00    +0.000 A 
ATOM     12  C   UNL     1      48.557   5.010  17.674  0.00  0.00    +0.000 A 
ATOM     13  F   UNL     1      49.280   5.352  18.748  0.00  0.00    +0.000 F 
ATOM     14  C   UNL     1      48.628   5.770  16.513  0.00  0.00    +0.000 A 
ENDBRANCH   6   8
ENDBRANCH   1   2
BRANCH   1  15
ATOM     15  C   UNL     1      44.728   5.661  11.297  0.00  0.00    +0.000 C 
BRANCH  15  20
ATOM     16  C   UNL     1      45.540   3.259   8.468  0.00  0.00    +0.000 A 
ATOM     17  C   UNL     1      44.761   2.182   8.866  0.00  0.00    +0.000 A 
ATOM     18  N   UNL     1      44.002   2.178   9.990  0.00  0.00    +0.000 NA
ATOM     19  C   UNL     1      44.017   3.302  10.741  0.00  0.00    +0.000 A 
ATOM     20  C   UNL     1      44.747   4.442  10.420  0.00  0.00    +0.000 A 
ATOM     21  C   UNL     1      45.514   4.415   9.250  0.00  0.00    +0.000 A 
BRANCH  16  23
ATOM     22  N   UNL     1      46.868   1.917   6.946  0.00  0.00    +0.000 N 
ATOM     23  C   UNL     1      46.357   3.151   7.244  0.00  0.00    +0.000 C 
ATOM     24  O   UNL     1      46.540   4.112   6.508  0.00  0.00    +0.000 OA
ATOM     25  H   UNL     1      47.336   1.830   6.052  0.00  0.00    +0.000 HD
ATOM     26  H   UNL     1      46.527   1.071   7.375  0.00  0.00    +0.000 HD
ENDBRANCH  16  23
ENDBRANCH  15  20
ENDBRANCH   1  15
TORSDOF 5
ENDMDL
