MODEL 1
REMARK VINA RESULT:    -7.956      0.000      0.000
REMARK INTER + INTRA:         -10.352
REMARK INTER:                  -9.817
REMARK INTRA:                  -0.535
REMARK UNBOUND:                -0.535
REMARK  Name = 
REMARK  5 active torsions:
REMARK  status: ('A' for Active; 'I' for Inactive)
REMARK    1  A    between atoms: C_1  and  C_2
REMARK    2  A    between atoms: C_2  and  O_3
REMARK    3  A    between atoms: C_2  and  C_13
REMARK    4  A    between atoms: O_3  and  C_4
REMARK    5  A    between atoms: C_7  and  C_8
REMARK                            x       y       z     vdW  Elec       q    Type
REMARK                         _______ _______ _______ _____ _____    ______ ____
ROOT
ATOM      1  C   UNL     1      44.560   3.788   9.267  0.00  0.00    +0.000 A 
ATOM      2  C   UNL     1      45.447   4.412   8.393  0.00  0.00    +0.000 A 
ATOM      3  C   UNL     1      46.357   3.647   7.662  0.00  0.00    +0.000 A 
ATOM      4  C   UNL     1      46.356   2.271   7.852  0.00  0.00    +0.000 A 
ATOM      5  N   UNL     1      45.530   1.628   8.721  0.00  0.00    +0.000 NA
ATOM      6  C   UNL     1      44.661   2.407   9.411  0.00  0.00    +0.000 A 
ENDROOT
BRANCH   4   7
ATOM      7  C   UNL     1      47.302   1.409   7.075  0.00  0.00    +0.000 C 
ATOM      8  N   UNL     1      48.386   2.056   6.545  0.00  0.00    +0.000 N 
ATOM      9  O   UNL     1      47.128   0.205   6.921  0.00  0.00    +0.000 OA
ATOM     10  H   UNL     1      48.489   3.054   6.691  0.00  0.00    +0.000 HD
ATOM     11  H   UNL     1      49.061   1.541   6.003  0.00  0.00    +0.000 HD
ENDBRANCH   4   7
BRANCH   1  12
ATOM     12  O   UNL     1      43.668   4.605   9.910  0.00  0.00    +0.000 OA
BRANCH  12  14
ATOM     13  C   UNL     1      42.467   5.372  11.899  0.00  0.00    +0.000 C 
ATOM     14  C   UNL     1      43.573   4.469  11.340  0.00  0.00    +0.000 C 
BRANCH  14  15
ATOM     15  C   UNL     1      44.878   4.857  12.026  0.00  0.00    +0.000 A 
ATOM     16  C   UNL     1      45.513   6.072  11.778  0.00  0.00    +0.000 A 
ATOM     17  C   UNL     1      46.626   6.419  12.539  0.00  0.00    +0.000 A 
ATOM     18  C   UNL     1      47.080   5.552  13.527  0.00  0.00    +0.000 A 
ATOM     19  C   UNL     1      46.406   4.359  13.703  0.00  0.00    +0.000 A 
ATOM     20  N   UNL     1      45.323   3.995  12.982  0.00  0.00    +0.000 NA
ENDBRANCH  14  15
ENDBRANCH  12  14
ENDBRANCH   1  12
TORSDOF 4
ENDMDL
MODEL 2
REMARK VINA RESULT:    -7.146      1.538      2.186
REMARK INTER + INTRA:          -9.352
REMARK INTER:                  -8.844
REMARK INTRA:                  -0.509
REMARK UNBOUND:                -0.535
REMARK  Name = 
REMARK  5 active torsions:
REMARK  status: ('A' for Active; 'I' for Inactive)
REMARK    1  A    between atoms: C_1  and  C_2
REMARK    2  A    between atoms: C_2  and  O_3
REMARK    3  A    between atoms: C_2  and  C_13
REMARK    4  A    between atoms: O_3  and  C_4
REMARK    5  A    between atoms: C_7  and  C_8
REMARK                            x       y       z     vdW  Elec       q    Type
REMARK                         _______ _______ _______ _____ _____    ______ ____
ROOT
ATOM      1  C   UNL     1      44.775   3.957   9.433  0.00  0.00    +0.000 A 
ATOM      2  C   UNL     1      44.811   2.565   9.486  0.00  0.00    +0.000 A 
ATOM      3  C   UNL     1      45.671   1.859   8.644  0.00  0.00    +0.000 A 
ATOM      4  C   UNL     1      46.457   2.582   7.756  0.00  0.00    +0.000 A 
ATOM      5  N   UNL     1      46.426   3.938   7.650  0.00  0.00    +0.000 NA
ATOM      6  C   UNL     1      45.578   4.586   8.486  0.00  0.00    +0.000 A 
ENDROOT
BRANCH   4   7
ATOM      7  C   UNL     1      47.408   1.867   6.847  0.00  0.00    +0.000 C 
ATOM      8  N   UNL     1      48.469   2.612   6.406  0.00  0.00    +0.000 N 
ATOM      9  O   UNL     1      47.257   0.697   6.517  0.00  0.00    +0.000 OA
ATOM     10  H   UNL     1      48.554   3.579   6.697  0.00  0.00    +0.000 HD
ATOM     11  H   UNL     1      49.146   2.199   5.784  0.00  0.00    +0.000 HD
ENDBRANCH   4   7
BRANCH   1  12
ATOM     12  O   UNL     1      43.940   4.576  10.325  0.00  0.00    +0.000 OA
BRANCH  12  14
ATOM     13  C   UNL     1      43.320   4.294  12.675  0.00  0.00    +0.000 C 
ATOM     14  C   UNL     1      44.412   4.704  11.679  0.00  0.00    +0.000 C 
BRANCH  14  15
ATOM     15  C   UNL     1      44.814   6.139  11.997  0.00  0.00    +0.000 A 
ATOM     16  C   UNL     1      45.855   6.440  12.873  0.00  0.00    +0.000 A 
ATOM     17  C   UNL     1      46.258   7.767  13.012  0.00  0.00    +0.000 A 
ATOM     18  C   UNL     1      45.616   8.758  12.278  0.00  0.00    +0.000 A 
ATOM     19  C   UNL     1      44.583   8.382  11.441  0.00  0.00    +0.000 A 
ATOM     20  N   UNL     1      44.171   7.106  11.285  0.00  0.00    +0.000 NA
ENDBRANCH  14  15
ENDBRANCH  12  14
ENDBRANCH   1  12
TORSDOF 4
ENDMDL
MODEL 3
REMARK VINA RESULT:    -6.264      2.815      6.273
REMARK INTER + INTRA:          -8.264
REMARK INTER:                  -7.738
REMARK INTRA:                  -0.525
REMARK UNBOUND:                -0.535
REMARK  Name = 
REMARK  5 active torsions:
REMARK  status: ('A' for Active; 'I' for Inactive)
REMARK    1  A    between atoms: C_1  and  C_2
REMARK    2  A    between atoms: C_2  and  O_3
REMARK    3  A    between atoms: C_2  and  C_13
REMARK    4  A    between atoms: O_3  and  C_4
REMARK    5  A    between atoms: C_7  and  C_8
REMARK                            x       y       z     vdW  Elec       q    Type
REMARK                         _______ _______ _______ _____ _____    ______ ____
ROOT
ATOM      1  C   UNL     1      45.993   4.853  12.994  0.00  0.00    +0.000 A 
ATOM      2  C   UNL     1      46.223   6.183  12.647  0.00  0.00    +0.000 A 
ATOM      3  C   UNL     1      47.195   6.921  13.324  0.00  0.00    +0.000 A 
ATOM      4  C   UNL     1      47.894   6.297  14.349  0.00  0.00    +0.000 A 
ATOM      5  N   UNL     1      47.676   5.012  14.741  0.00  0.00    +0.000 NA
ATOM      6  C   UNL     1      46.724   4.330  14.057  0.00  0.00    +0.000 A 
ENDROOT
BRANCH   4   7
ATOM      7  C   UNL     1      48.959   7.044  15.090  0.00  0.00    +0.000 C 
ATOM      8  N   UNL     1      48.518   7.809  16.137  0.00  0.00    +0.000 N 
ATOM      9  O   UNL     1      50.145   6.980  14.790  0.00  0.00    +0.000 OA
ATOM     10  H   UNL     1      47.527   7.839  16.349  0.00  0.00    +0.000 HD
ATOM     11  H   UNL     1      49.178   8.346  16.677  0.00  0.00    +0.000 HD
ENDBRANCH   4   7
BRANCH   1  12
ATOM     12  O   UNL     1      45.057   4.186  12.250  0.00  0.00    +0.000 OA
BRANCH  12  14
ATOM     13  C   UNL     1      43.085   4.905  10.995  0.00  0.00    +0.000 C 
ATOM     14  C   UNL     1      44.615   4.821  11.036  0.00  0.00    +0.000 C 
BRANCH  14  15
ATOM     15  C   UNL     1      45.070   4.049   9.804  0.00  0.00    +0.000 A 
ATOM     16  C   UNL     1      45.695   4.674   8.727  0.00  0.00    +0.000 A 
ATOM     17  C   UNL     1      46.207   3.889   7.695  0.00  0.00    +0.000 A 
ATOM     18  C   UNL     1      46.084   2.505   7.761  0.00  0.00    +0.000 A 
ATOM     19  C   UNL     1      45.438   1.961   8.854  0.00  0.00    +0.000 A 
ATOM     20  N   UNL     1      44.933   2.695   9.869  0.00  0.00    +0.000 NA
ENDBRANCH  14  15
ENDBRANCH  12  14
ENDBRANCH   1  12
TORSDOF 4
ENDMDL
MODEL 4
REMARK VINA RESULT:    -6.195      2.200      5.914
REMARK INTER + INTRA:          -8.178
REMARK INTER:                  -9.020
REMARK INTRA:                   0.842
REMARK UNBOUND:                -0.535
REMARK  Name = 
REMARK  5 active torsions:
REMARK  status: ('A' for Active; 'I' for Inactive)
REMARK    1  A    between atoms: C_1  and  C_2
REMARK    2  A    between atoms: C_2  and  O_3
REMARK    3  A    between atoms: C_2  and  C_13
REMARK    4  A    between atoms: O_3  and  C_4
REMARK    5  A    between atoms: C_7  and  C_8
REMARK                            x       y       z     vdW  Elec       q    Type
REMARK                         _______ _______ _______ _____ _____    ______ ____
ROOT
ATOM      1  C   UNL     1      45.225   5.111  11.435  0.00  0.00    +0.000 A 
ATOM      2  C   UNL     1      46.374   5.861  11.685  0.00  0.00    +0.000 A 
ATOM      3  C   UNL     1      47.031   5.739  12.910  0.00  0.00    +0.000 A 
ATOM      4  C   UNL     1      46.496   4.876  13.857  0.00  0.00    +0.000 A 
ATOM      5  N   UNL     1      45.359   4.153  13.665  0.00  0.00    +0.000 NA
ATOM      6  C   UNL     1      44.751   4.299  12.461  0.00  0.00    +0.000 A 
ENDROOT
BRANCH   4   7
ATOM      7  C   UNL     1      47.178   4.699  15.178  0.00  0.00    +0.000 C 
ATOM      8  N   UNL     1      47.935   5.761  15.594  0.00  0.00    +0.000 N 
ATOM      9  O   UNL     1      47.069   3.680  15.849  0.00  0.00    +0.000 OA
ATOM     10  H   UNL     1      48.003   6.585  15.006  0.00  0.00    +0.000 HD
ATOM     11  H   UNL     1      48.430   5.711  16.470  0.00  0.00    +0.000 HD
ENDBRANCH   4   7
BRANCH   1  12
ATOM     12  O   UNL     1      44.668   5.253  10.193  0.00  0.00    +0.000 OA
BRANCH  12  14
ATOM     13  C   UNL     1      43.748   3.020  10.581  0.00  0.00    +0.000 C 
ATOM     14  C   UNL     1      44.205   4.053   9.545  0.00  0.00    +0.000 C 
BRANCH  14  15
ATOM     15  C   UNL     1      45.303   3.413   8.704  0.00  0.00    +0.000 A 
ATOM     16  C   UNL     1      45.591   2.051   8.775  0.00  0.00    +0.000 A 
ATOM     17  C   UNL     1      46.512   1.510   7.881  0.00  0.00    +0.000 A 
ATOM     18  C   UNL     1      47.121   2.333   6.941  0.00  0.00    +0.000 A 
ATOM     19  C   UNL     1      46.794   3.675   6.943  0.00  0.00    +0.000 A 
ATOM     20  N   UNL     1      45.905   4.229   7.796  0.00  0.00    +0.000 NA
ENDBRANCH  14  15
ENDBRANCH  12  14
ENDBRANCH   1  12
TORSDOF 4
ENDMDL
MODEL 5
REMARK VINA RESULT:    -5.979      2.622      6.187
REMARK INTER + INTRA:          -7.912
REMARK INTER:                  -7.353
REMARK INTRA:                  -0.559
REMARK UNBOUND:                -0.535
REMARK  Name = 
REMARK  5 active torsions:
REMARK  status: ('A' for Active; 'I' for Inactive)
REMARK    1  A    between atoms: C_1  and  C_2
REMARK    2  A    between atoms: C_2  and  O_3
REMARK    3  A    between atoms: C_2  and  C_13
REMARK    4  A    between atoms: O_3  and  C_4
REMARK    5  A    between atoms: C_7  and  C_8
REMARK                            x       y       z     vdW  Elec       q    Type
REMARK                         _______ _______ _______ _____ _____    ______ ____
ROOT
ATOM      1  C   UNL     1      45.660   5.285  12.241  0.00  0.00    +0.000 A 
ATOM      2  C   UNL     1      44.745   6.296  11.955  0.00  0.00    +0.000 A 
ATOM      3  C   UNL     1      45.118   7.633  12.100  0.00  0.00    +0.000 A 
ATOM      4  C   UNL     1      46.403   7.909  12.550  0.00  0.00    +0.000 A 
ATOM      5  N   UNL     1      47.314   6.951  12.872  0.00  0.00    +0.000 NA
ATOM      6  C   UNL     1      46.912   5.665  12.717  0.00  0.00    +0.000 A 
ENDROOT
BRANCH   4   7
ATOM      7  C   UNL     1      46.853   9.329  12.702  0.00  0.00    +0.000 C 
ATOM      8  N   UNL     1      47.614   9.587  13.810  0.00  0.00    +0.000 N 
ATOM      9  O   UNL     1      46.567  10.205  11.894  0.00  0.00    +0.000 OA
ATOM     10  H   UNL     1      47.823   8.835  14.457  0.00  0.00    +0.000 HD
ATOM     11  H   UNL     1      47.946  10.523  13.982  0.00  0.00    +0.000 HD
ENDBRANCH   4   7
BRANCH   1  12
ATOM     12  O   UNL     1      45.231   4.002  12.028  0.00  0.00    +0.000 OA
BRANCH  12  14
ATOM     13  C   UNL     1      43.285   2.683  11.352  0.00  0.00    +0.000 C 
ATOM     14  C   UNL     1      44.263   3.803  10.981  0.00  0.00    +0.000 C 
BRANCH  14  15
ATOM     15  C   UNL     1      44.933   3.417   9.667  0.00  0.00    +0.000 A 
ATOM     16  C   UNL     1      45.398   4.371   8.764  0.00  0.00    +0.000 A 
ATOM     17  C   UNL     1      46.121   3.948   7.650  0.00  0.00    +0.000 A 
ATOM     18  C   UNL     1      46.363   2.592   7.463  0.00  0.00    +0.000 A 
ATOM     19  C   UNL     1      45.856   1.707   8.395  0.00  0.00    +0.000 A 
ATOM     20  N   UNL     1      45.154   2.085   9.485  0.00  0.00    +0.000 NA
ENDBRANCH  14  15
ENDBRANCH  12  14
ENDBRANCH   1  12
TORSDOF 4
ENDMDL
MODEL 6
REMARK VINA RESULT:    -5.898      3.916      6.090
REMARK INTER + INTRA:          -7.812
REMARK INTER:                  -7.339
REMARK INTRA:                  -0.473
REMARK UNBOUND:                -0.535
REMARK  Name = 
REMARK  5 active torsions:
REMARK  status: ('A' for Active; 'I' for Inactive)
REMARK    1  A    between atoms: C_1  and  C_2
REMARK    2  A    between atoms: C_2  and  O_3
REMARK    3  A    between atoms: C_2  and  C_13
REMARK    4  A    between atoms: O_3  and  C_4
REMARK    5  A    between atoms: C_7  and  C_8
REMARK                            x       y       z     vdW  Elec       q    Type
REMARK                         _______ _______ _______ _____ _____    ______ ____
ROOT
ATOM      1  C   UNL     1      46.944   5.330  13.406  0.00  0.00    +0.000 A 
ATOM      2  C   UNL     1      46.247   6.447  12.950  0.00  0.00    +0.000 A 
ATOM      3  C   UNL     1      44.972   6.297  12.404  0.00  0.00    +0.000 A 
ATOM      4  C   UNL     1      44.445   5.015  12.316  0.00  0.00    +0.000 A 
ATOM      5  N   UNL     1      45.106   3.896  12.718  0.00  0.00    +0.000 NA
ATOM      6  C   UNL     1      46.342   4.085  13.243  0.00  0.00    +0.000 A 
ENDROOT
BRANCH   4   7
ATOM      7  C   UNL     1      43.073   4.808  11.754  0.00  0.00    +0.000 C 
ATOM      8  N   UNL     1      42.259   5.909  11.774  0.00  0.00    +0.000 N 
ATOM      9  O   UNL     1      42.696   3.733  11.303  0.00  0.00    +0.000 OA
ATOM     10  H   UNL     1      42.607   6.778  12.161  0.00  0.00    +0.000 HD
ATOM     11  H   UNL     1      41.318   5.842  11.419  0.00  0.00    +0.000 HD
ENDBRANCH   4   7
BRANCH   1  12
ATOM     12  O   UNL     1      48.168   5.568  13.972  0.00  0.00    +0.000 OA
BRANCH  12  14
ATOM     13  C   UNL     1      49.342   7.099  15.476  0.00  0.00    +0.000 C 
ATOM     14  C   UNL     1      48.176   6.120  15.302  0.00  0.00    +0.000 C 
BRANCH  14  15
ATOM     15  C   UNL     1      48.324   5.031  16.357  0.00  0.00    +0.000 A 
ATOM     16  C   UNL     1      47.246   4.252  16.774  0.00  0.00    +0.000 A 
ATOM     17  C   UNL     1      47.480   3.185  17.640  0.00  0.00    +0.000 A 
ATOM     18  C   UNL     1      48.776   2.921  18.068  0.00  0.00    +0.000 A 
ATOM     19  C   UNL     1      49.789   3.747  17.622  0.00  0.00    +0.000 A 
ATOM     20  N   UNL     1      49.594   4.787  16.782  0.00  0.00    +0.000 NA
ENDBRANCH  14  15
ENDBRANCH  12  14
ENDBRANCH   1  12
TORSDOF 4
ENDMDL
MODEL 7
REMARK VINA RESULT:    -5.883      3.036      6.228
REMARK INTER + INTRA:          -7.794
REMARK INTER:                  -7.841
REMARK INTRA:                   0.048
REMARK UNBOUND:                -0.535
REMARK  Name = 
REMARK  5 active torsions:
REMARK  status: ('A' for Active; 'I' for Inactive)
REMARK    1  A    between atoms: C_1  and  C_2
REMARK    2  A    between atoms: C_2  and  O_3
REMARK    3  A    between atoms: C_2  and  C_13
REMARK    4  A    between atoms: O_3  and  C_4
REMARK    5  A    between atoms: C_7  and  C_8
REMARK                            x       y       z     vdW  Elec       q    Type
REMARK                         _______ _______ _______ _____ _____    ______ ____
ROOT
ATOM      1  C   UNL     1      46.996   5.267  13.199  0.00  0.00    +0.000 A 
ATOM      2  C   UNL     1      47.402   5.945  14.347  0.00  0.00    +0.000 A 
ATOM      3  C   UNL     1      47.742   5.227  15.495  0.00  0.00    +0.000 A 
ATOM      4  C   UNL     1      47.643   3.843  15.455  0.00  0.00    +0.000 A 
ATOM      5  N   UNL     1      47.219   3.146  14.365  0.00  0.00    +0.000 NA
ATOM      6  C   UNL     1      46.899   3.880  13.271  0.00  0.00    +0.000 A 
ENDROOT
BRANCH   4   7
ATOM      7  C   UNL     1      48.016   3.032  16.656  0.00  0.00    +0.000 C 
ATOM      8  N   UNL     1      47.036   2.903  17.604  0.00  0.00    +0.000 N 
ATOM      9  O   UNL     1      49.117   2.511  16.790  0.00  0.00    +0.000 OA
ATOM     10  H   UNL     1      46.140   3.354  17.458  0.00  0.00    +0.000 HD
ATOM     11  H   UNL     1      47.218   2.377  18.444  0.00  0.00    +0.000 HD
ENDBRANCH   4   7
BRANCH   1  12
ATOM     12  O   UNL     1      46.727   6.041  12.102  0.00  0.00    +0.000 OA
BRANCH  12  14
ATOM     13  C   UNL     1      44.400   5.803  12.820  0.00  0.00    +0.000 C 
ATOM     14  C   UNL     1      45.358   6.089  11.658  0.00  0.00    +0.000 C 
BRANCH  14  15
ATOM     15  C   UNL     1      45.087   5.056  10.571  0.00  0.00    +0.000 A 
ATOM     16  C   UNL     1      45.676   5.135   9.310  0.00  0.00    +0.000 A 
ATOM     17  C   UNL     1      45.492   4.085   8.413  0.00  0.00    +0.000 A 
ATOM     18  C   UNL     1      44.730   2.986   8.790  0.00  0.00    +0.000 A 
ATOM     19  C   UNL     1      44.167   2.987  10.052  0.00  0.00    +0.000 A 
ATOM     20  N   UNL     1      44.328   3.988  10.944  0.00  0.00    +0.000 NA
ENDBRANCH  14  15
ENDBRANCH  12  14
ENDBRANCH   1  12
TORSDOF 4
ENDMDL
MODEL 8
REMARK VINA RESULT:    -5.225      3.679      5.841
REMARK INTER + INTRA:          -6.982
REMARK INTER:                  -6.482
REMARK INTRA:                  -0.500
REMARK UNBOUND:                -0.535
REMARK  Name = 
REMARK  5 active torsions:
REMARK  status: ('A' for Active; 'I' for Inactive)
REMARK    1  A    between atoms: C_1  and  C_2
REMARK    2  A    between atoms: C_2  and  O_3
REMARK    3  A    between atoms: C_2  and  C_13
REMARK    4  A    between atoms: O_3  and  C_4
REMARK    5  A    between atoms: C_7  and  C_8
REMARK                            x       y       z     vdW  Elec       q    Type
REMARK                         _______ _______ _______ _____ _____    ______ ____
ROOT
ATOM      1  C   UNL     1      47.174   5.093  13.540  0.00  0.00    +0.000 A 
ATOM      2  C   UNL     1      46.318   5.935  12.832  0.00  0.00    +0.000 A 
ATOM      3  C   UNL     1      45.167   5.416  12.237  0.00  0.00    +0.000 A 
ATOM      4  C   UNL     1      44.926   4.054  12.357  0.00  0.00    +0.000 A 
ATOM      5  N   UNL     1      45.754   3.193  13.010  0.00  0.00    +0.000 NA
ATOM      6  C   UNL     1      46.860   3.738  13.575  0.00  0.00    +0.000 A 
ENDROOT
BRANCH   4   7
ATOM      7  C   UNL     1      43.694   3.456  11.751  0.00  0.00    +0.000 C 
ATOM      8  N   UNL     1      43.492   2.130  12.021  0.00  0.00    +0.000 N 
ATOM      9  O   UNL     1      42.914   4.103  11.062  0.00  0.00    +0.000 OA
ATOM     10  H   UNL     1      44.165   1.629  12.590  0.00  0.00    +0.000 HD
ATOM     11  H   UNL     1      42.687   1.657  11.639  0.00  0.00    +0.000 HD
ENDBRANCH   4   7
BRANCH   1  12
ATOM     12  O   UNL     1      48.255   5.689  14.134  0.00  0.00    +0.000 OA
BRANCH  12  14
ATOM     13  C   UNL     1      49.576   7.520  13.192  0.00  0.00    +0.000 C 
ATOM     14  C   UNL     1      48.352   7.121  14.024  0.00  0.00    +0.000 C 
BRANCH  14  15
ATOM     15  C   UNL     1      48.489   7.778  15.393  0.00  0.00    +0.000 A 
ATOM     16  C   UNL     1      48.215   9.129  15.597  0.00  0.00    +0.000 A 
ATOM     17  C   UNL     1      48.229   9.630  16.897  0.00  0.00    +0.000 A 
ATOM     18  C   UNL     1      48.513   8.779  17.958  0.00  0.00    +0.000 A 
ATOM     19  C   UNL     1      48.788   7.455  17.674  0.00  0.00    +0.000 A 
ATOM     20  N   UNL     1      48.782   6.939  16.425  0.00  0.00    +0.000 NA
ENDBRANCH  14  15
ENDBRANCH  12  14
ENDBRANCH   1  12
TORSDOF 4
ENDMDL
MODEL 9
REMARK VINA RESULT:    -5.045      3.395      5.448
REMARK INTER + INTRA:          -6.759
REMARK INTER:                  -6.310
REMARK INTRA:                  -0.449
REMARK UNBOUND:                -0.535
REMARK  Name = 
REMARK  5 active torsions:
REMARK  status: ('A' for Active; 'I' for Inactive)
REMARK    1  A    between atoms: C_1  and  C_2
REMARK    2  A    between atoms: C_2  and  O_3
REMARK    3  A    between atoms: C_2  and  C_13
REMARK    4  A    between atoms: O_3  and  C_4
REMARK    5  A    between atoms: C_7  and  C_8
REMARK                            x       y       z     vdW  Elec       q    Type
REMARK                         _______ _______ _______ _____ _____    ______ ____
ROOT
ATOM      1  C   UNL     1      46.195   6.222  12.348  0.00  0.00    +0.000 A 
ATOM      2  C   UNL     1      45.690   5.296  13.260  0.00  0.00    +0.000 A 
ATOM      3  C   UNL     1      44.981   4.185  12.802  0.00  0.00    +0.000 A 
ATOM      4  C   UNL     1      44.785   4.052  11.434  0.00  0.00    +0.000 A 
ATOM      5  N   UNL     1      45.231   4.951  10.515  0.00  0.00    +0.000 NA
ATOM      6  C   UNL     1      45.916   6.016  11.000  0.00  0.00    +0.000 A 
ENDROOT
BRANCH   4   7
ATOM      7  C   UNL     1      44.046   2.866  10.897  0.00  0.00    +0.000 C 
ATOM      8  N   UNL     1      44.623   2.256   9.816  0.00  0.00    +0.000 N 
ATOM      9  O   UNL     1      42.998   2.460  11.386  0.00  0.00    +0.000 OA
ATOM     10  H   UNL     1      45.487   2.627   9.437  0.00  0.00    +0.000 HD
ATOM     11  H   UNL     1      44.178   1.455   9.395  0.00  0.00    +0.000 HD
ENDBRANCH   4   7
BRANCH   1  12
ATOM     12  O   UNL     1      46.920   7.257  12.875  0.00  0.00    +0.000 OA
BRANCH  12  14
ATOM     13  C   UNL     1      48.744   6.982  14.482  0.00  0.00    +0.000 C 
ATOM     14  C   UNL     1      48.340   7.060  13.005  0.00  0.00    +0.000 C 
BRANCH  14  15
ATOM     15  C   UNL     1      49.123   8.203  12.370  0.00  0.00    +0.000 A 
ATOM     16  C   UNL     1      50.399   8.021  11.839  0.00  0.00    +0.000 A 
ATOM     17  C   UNL     1      51.000   9.075  11.153  0.00  0.00    +0.000 A 
ATOM     18  C   UNL     1      50.319  10.279  11.013  0.00  0.00    +0.000 A 
ATOM     19  C   UNL     1      49.064  10.386  11.580  0.00  0.00    +0.000 A 
ATOM     20  N   UNL     1      48.455   9.383  12.249  0.00  0.00    +0.000 NA
ENDBRANCH  14  15
ENDBRANCH  12  14
ENDBRANCH   1  12
TORSDOF 4
ENDMDL
