MODEL 1
REMARK VINA RESULT:    -7.403      0.000      0.000
REMARK INTER + INTRA:          -9.909
REMARK INTER:                  -9.134
REMARK INTRA:                  -0.776
REMARK UNBOUND:                -0.776
REMARK  Name = 
REMARK  6 active torsions:
REMARK  status: ('A' for Active; 'I' for Inactive)
REMARK    1  A    between atoms: C_1  and  C_2
REMARK    2  A    between atoms: C_6  and  C_7
REMARK    3  A    between atoms: C_11  and  C_12
REMARK    4  A    between atoms: C_12  and  N_13
REMARK    5  A    between atoms: C_16  and  C_17
REMARK    6  A    between atoms: C_19  and  C_20
REMARK                            x       y       z     vdW  Elec       q    Type
REMARK                         _______ _______ _______ _____ _____    ______ ____
ROOT
ATOM      1  C   UNL     1      45.310   6.562  11.030  0.00  0.00    +0.000 C 
ATOM      2  C   UNL     1      44.266   7.639  11.294  0.00  0.00    +0.000 C 
ATOM      3  C   UNL     1      43.986   6.235  11.701  0.00  0.00    +0.000 C 
ENDROOT
BRANCH   1   4
ATOM      4  N   UNL     1      45.554   6.138   9.636  0.00  0.00    +0.000 N 
ATOM      5  C   UNL     1      45.605   4.792   9.230  0.00  0.00    +0.000 A 
ATOM      6  C   UNL     1      44.771   3.806   9.758  0.00  0.00    +0.000 A 
ATOM      7  C   UNL     1      44.795   2.501   9.250  0.00  0.00    +0.000 A 
ATOM      8  C   UNL     1      43.884   1.441   9.790  0.00  0.00    +0.000 C 
ATOM      9  C   UNL     1      45.680   2.214   8.218  0.00  0.00    +0.000 A 
ATOM     10  C   UNL     1      46.481   3.241   7.747  0.00  0.00    +0.000 A 
ATOM     11  N   UNL     1      46.462   4.520   8.226  0.00  0.00    +0.000 NA
ATOM     12  H   UNL     1      46.327   6.599   9.164  0.00  0.00    +0.000 HD
BRANCH  10  13
ATOM     13  C   UNL     1      47.438   2.968   6.625  0.00  0.00    +0.000 C 
ATOM     14  N   UNL     1      47.134   3.571   5.437  0.00  0.00    +0.000 N 
ATOM     15  O   UNL     1      48.422   2.252   6.752  0.00  0.00    +0.000 OA
ATOM     16  H   UNL     1      46.307   4.148   5.363  0.00  0.00    +0.000 HD
ATOM     17  H   UNL     1      47.731   3.419   4.634  0.00  0.00    +0.000 HD
ENDBRANCH  10  13
ENDBRANCH   1   4
BRANCH   1  22
ATOM     18  C   UNL     1      47.788   6.073  13.946  0.00  0.00    +0.000 A 
ATOM     19  C   UNL     1      48.918   6.745  13.449  0.00  0.00    +0.000 A 
ATOM     20  C   UNL     1      48.894   7.363  12.195  0.00  0.00    +0.000 A 
ATOM     21  C   UNL     1      47.740   7.308  11.411  0.00  0.00    +0.000 A 
ATOM     22  C   UNL     1      46.582   6.661  11.868  0.00  0.00    +0.000 A 
ATOM     23  C   UNL     1      46.634   6.066  13.139  0.00  0.00    +0.000 A 
BRANCH  18  29
ATOM     24  C   UNL     1      49.245   5.599  18.756  0.00  0.00    +0.000 C 
ATOM     25  C   UNL     1      48.463   5.126  17.573  0.00  0.00    +0.000 A 
ATOM     26  C   UNL     1      47.672   3.988  17.637  0.00  0.00    +0.000 A 
ATOM     27  N   UNL     1      46.961   3.506  16.601  0.00  0.00    +0.000 NA
ATOM     28  C   UNL     1      47.047   4.200  15.441  0.00  0.00    +0.000 A 
ATOM     29  C   UNL     1      47.785   5.371  15.245  0.00  0.00    +0.000 A 
ATOM     30  C   UNL     1      48.503   5.826  16.359  0.00  0.00    +0.000 A 
ENDBRANCH  18  29
ENDBRANCH   1  22
TORSDOF 4
ENDMDL
MODEL 2
REMARK VINA RESULT:    -7.231      2.703      7.635
REMARK INTER + INTRA:          -9.697
REMARK INTER:                  -8.708
REMARK INTRA:                  -0.990
REMARK UNBOUND:                -0.776
REMARK  Name = 
REMARK  6 active torsions:
REMARK  status: ('A' for Active; 'I' for Inactive)
REMARK    1  A    between atoms: C_1  and  C_2
REMARK    2  A    between atoms: C_6  and  C_7
REMARK    3  A    between atoms: C_11  and  C_12
REMARK    4  A    between atoms: C_12  and  N_13
REMARK    5  A    between atoms: C_16  and  C_17
REMARK    6  A    between atoms: C_19  and  C_20
REMARK                            x       y       z     vdW  Elec       q    Type
REMARK                         _______ _______ _______ _____ _____    ______ ____
ROOT
ATOM      1  C   UNL     1      44.843   7.679  11.820  0.00  0.00    +0.000 C 
ATOM      2  C   UNL     1      43.756   8.682  11.457  0.00  0.00    +0.000 C 
ATOM      3  C   UNL     1      45.017   8.652  10.666  0.00  0.00    +0.000 C 
ENDROOT
BRANCH   1   4
ATOM      4  N   UNL     1      45.601   7.879  13.072  0.00  0.00    +0.000 N 
ATOM      5  C   UNL     1      46.977   7.612  13.199  0.00  0.00    +0.000 A 
ATOM      6  C   UNL     1      47.898   7.871  12.184  0.00  0.00    +0.000 A 
ATOM      7  C   UNL     1      49.269   7.680  12.396  0.00  0.00    +0.000 A 
ATOM      8  C   UNL     1      50.270   7.980  11.322  0.00  0.00    +0.000 C 
ATOM      9  C   UNL     1      49.683   7.214  13.638  0.00  0.00    +0.000 A 
ATOM     10  C   UNL     1      48.712   6.974  14.597  0.00  0.00    +0.000 A 
ATOM     11  N   UNL     1      47.373   7.165  14.407  0.00  0.00    +0.000 NA
ATOM     12  H   UNL     1      45.168   7.506  13.914  0.00  0.00    +0.000 HD
BRANCH  10  13
ATOM     13  C   UNL     1      49.126   6.483  15.952  0.00  0.00    +0.000 C 
ATOM     14  N   UNL     1      48.219   6.693  16.953  0.00  0.00    +0.000 N 
ATOM     15  O   UNL     1      50.201   5.938  16.160  0.00  0.00    +0.000 OA
ATOM     16  H   UNL     1      47.344   7.157  16.748  0.00  0.00    +0.000 HD
ATOM     17  H   UNL     1      48.440   6.397  17.895  0.00  0.00    +0.000 HD
ENDBRANCH  10  13
ENDBRANCH   1   4
BRANCH   1  22
ATOM     18  C   UNL     1      44.851   4.210  10.133  0.00  0.00    +0.000 A 
ATOM     19  C   UNL     1      43.988   3.499  10.985  0.00  0.00    +0.000 A 
ATOM     20  C   UNL     1      43.394   4.119  12.088  0.00  0.00    +0.000 A 
ATOM     21  C   UNL     1      43.664   5.461  12.365  0.00  0.00    +0.000 A 
ATOM     22  C   UNL     1      44.507   6.217  11.538  0.00  0.00    +0.000 A 
ATOM     23  C   UNL     1      45.073   5.569  10.427  0.00  0.00    +0.000 A 
BRANCH  18  29
ATOM     24  C   UNL     1      46.687   0.187   7.699  0.00  0.00    +0.000 C 
ATOM     25  C   UNL     1      46.415   1.655   7.781  0.00  0.00    +0.000 A 
ATOM     26  C   UNL     1      46.785   2.517   6.760  0.00  0.00    +0.000 A 
ATOM     27  N   UNL     1      46.582   3.847   6.788  0.00  0.00    +0.000 NA
ATOM     28  C   UNL     1      45.976   4.338   7.895  0.00  0.00    +0.000 A 
ATOM     29  C   UNL     1      45.532   3.581   8.984  0.00  0.00    +0.000 A 
ATOM     30  C   UNL     1      45.770   2.203   8.898  0.00  0.00    +0.000 A 
ENDBRANCH  18  29
ENDBRANCH   1  22
TORSDOF 4
ENDMDL
MODEL 3
REMARK VINA RESULT:    -7.099      3.513      7.889
REMARK INTER + INTRA:          -9.535
REMARK INTER:                  -8.697
REMARK INTRA:                  -0.838
REMARK UNBOUND:                -0.776
REMARK  Name = 
REMARK  6 active torsions:
REMARK  status: ('A' for Active; 'I' for Inactive)
REMARK    1  A    between atoms: C_1  and  C_2
REMARK    2  A    between atoms: C_6  and  C_7
REMARK    3  A    between atoms: C_11  and  C_12
REMARK    4  A    between atoms: C_12  and  N_13
REMARK    5  A    between atoms: C_16  and  C_17
REMARK    6  A    between atoms: C_19  and  C_20
REMARK                            x       y       z     vdW  Elec       q    Type
REMARK                         _______ _______ _______ _____ _____    ______ ____
ROOT
ATOM      1  C   UNL     1      48.934   8.683  15.522  0.00  0.00    +0.000 C 
ATOM      2  C   UNL     1      48.760  10.183  15.719  0.00  0.00    +0.000 C 
ATOM      3  C   UNL     1      50.120   9.586  15.817  0.00  0.00    +0.000 C 
ENDROOT
BRANCH   1   4
ATOM      4  N   UNL     1      48.427   7.768  16.566  0.00  0.00    +0.000 N 
ATOM      5  C   UNL     1      49.037   6.542  16.887  0.00  0.00    +0.000 A 
ATOM      6  C   UNL     1      50.420   6.361  16.901  0.00  0.00    +0.000 A 
ATOM      7  C   UNL     1      50.979   5.148  17.324  0.00  0.00    +0.000 A 
ATOM      8  C   UNL     1      52.464   4.952  17.368  0.00  0.00    +0.000 C 
ATOM      9  C   UNL     1      50.119   4.129  17.714  0.00  0.00    +0.000 A 
ATOM     10  C   UNL     1      48.757   4.379  17.671  0.00  0.00    +0.000 A 
ATOM     11  N   UNL     1      48.198   5.559  17.271  0.00  0.00    +0.000 NA
ATOM     12  H   UNL     1      47.427   7.583  16.541  0.00  0.00    +0.000 HD
BRANCH  10  13
ATOM     13  C   UNL     1      47.801   3.304  18.098  0.00  0.00    +0.000 C 
ATOM     14  N   UNL     1      48.071   2.730  19.309  0.00  0.00    +0.000 N 
ATOM     15  O   UNL     1      46.848   2.955  17.417  0.00  0.00    +0.000 OA
ATOM     16  H   UNL     1      48.874   3.035  19.843  0.00  0.00    +0.000 HD
ATOM     17  H   UNL     1      47.473   1.989  19.653  0.00  0.00    +0.000 HD
ENDBRANCH  10  13
ENDBRANCH   1   4
BRANCH   1  22
ATOM     18  C   UNL     1      47.403   6.734  12.567  0.00  0.00    +0.000 A 
ATOM     19  C   UNL     1      48.161   7.238  11.495  0.00  0.00    +0.000 A 
ATOM     20  C   UNL     1      49.165   8.187  11.709  0.00  0.00    +0.000 A 
ATOM     21  C   UNL     1      49.419   8.658  12.998  0.00  0.00    +0.000 A 
ATOM     22  C   UNL     1      48.699   8.177  14.101  0.00  0.00    +0.000 A 
ATOM     23  C   UNL     1      47.710   7.210  13.855  0.00  0.00    +0.000 A 
BRANCH  18  29
ATOM     24  C   UNL     1      44.042   4.312   9.682  0.00  0.00    +0.000 C 
ATOM     25  C   UNL     1      44.683   4.571  11.008  0.00  0.00    +0.000 A 
ATOM     26  C   UNL     1      44.281   3.894  12.149  0.00  0.00    +0.000 A 
ATOM     27  N   UNL     1      44.808   4.099  13.370  0.00  0.00    +0.000 NA
ATOM     28  C   UNL     1      45.790   5.028  13.451  0.00  0.00    +0.000 A 
ATOM     29  C   UNL     1      46.305   5.764  12.379  0.00  0.00    +0.000 A 
ATOM     30  C   UNL     1      45.718   5.507  11.134  0.00  0.00    +0.000 A 
ENDBRANCH  18  29
ENDBRANCH   1  22
TORSDOF 4
ENDMDL
MODEL 4
REMARK VINA RESULT:    -7.065      2.955      7.396
REMARK INTER + INTRA:          -9.493
REMARK INTER:                  -9.392
REMARK INTRA:                  -0.101
REMARK UNBOUND:                -0.776
REMARK  Name = 
REMARK  6 active torsions:
REMARK  status: ('A' for Active; 'I' for Inactive)
REMARK    1  A    between atoms: C_1  and  C_2
REMARK    2  A    between atoms: C_6  and  C_7
REMARK    3  A    between atoms: C_11  and  C_12
REMARK    4  A    between atoms: C_12  and  N_13
REMARK    5  A    between atoms: C_16  and  C_17
REMARK    6  A    between atoms: C_19  and  C_20
REMARK                            x       y       z     vdW  Elec       q    Type
REMARK                         _______ _______ _______ _____ _____    ______ ____
ROOT
ATOM      1  C   UNL     1      48.709   8.085  12.426  0.00  0.00    +0.000 C 
ATOM      2  C   UNL     1      49.222   9.477  12.084  0.00  0.00    +0.000 C 
ATOM      3  C   UNL     1      49.708   8.306  11.304  0.00  0.00    +0.000 C 
ENDROOT
BRANCH   1   4
ATOM      4  N   UNL     1      49.148   7.459  13.691  0.00  0.00    +0.000 N 
ATOM      5  C   UNL     1      48.443   6.425  14.332  0.00  0.00    +0.000 A 
ATOM      6  C   UNL     1      47.795   5.402  13.638  0.00  0.00    +0.000 A 
ATOM      7  C   UNL     1      47.191   4.342  14.327  0.00  0.00    +0.000 A 
ATOM      8  C   UNL     1      46.516   3.224  13.591  0.00  0.00    +0.000 C 
ATOM      9  C   UNL     1      47.242   4.345  15.715  0.00  0.00    +0.000 A 
ATOM     10  C   UNL     1      47.898   5.395  16.336  0.00  0.00    +0.000 A 
ATOM     11  N   UNL     1      48.501   6.430  15.679  0.00  0.00    +0.000 NA
ATOM     12  H   UNL     1      49.427   8.102  14.427  0.00  0.00    +0.000 HD
BRANCH  10  13
ATOM     13  C   UNL     1      47.984   5.422  17.834  0.00  0.00    +0.000 C 
ATOM     14  N   UNL     1      46.807   5.197  18.491  0.00  0.00    +0.000 N 
ATOM     15  O   UNL     1      49.027   5.637  18.434  0.00  0.00    +0.000 OA
ATOM     16  H   UNL     1      45.959   5.035  17.963  0.00  0.00    +0.000 HD
ATOM     17  H   UNL     1      46.790   5.214  19.503  0.00  0.00    +0.000 HD
ENDBRANCH  10  13
ENDBRANCH   1   4
BRANCH   1  22
ATOM     18  C   UNL     1      45.547   6.398  10.999  0.00  0.00    +0.000 A 
ATOM     19  C   UNL     1      44.545   7.248  11.499  0.00  0.00    +0.000 A 
ATOM     20  C   UNL     1      44.869   8.361  12.278  0.00  0.00    +0.000 A 
ATOM     21  C   UNL     1      46.203   8.637  12.582  0.00  0.00    +0.000 A 
ATOM     22  C   UNL     1      47.240   7.828  12.097  0.00  0.00    +0.000 A 
ATOM     23  C   UNL     1      46.882   6.727  11.301  0.00  0.00    +0.000 A 
BRANCH  18  29
ATOM     24  C   UNL     1      46.160   3.461   6.939  0.00  0.00    +0.000 C 
ATOM     25  C   UNL     1      45.531   3.746   8.266  0.00  0.00    +0.000 A 
ATOM     26  C   UNL     1      44.623   2.868   8.838  0.00  0.00    +0.000 A 
ATOM     27  N   UNL     1      44.013   3.080  10.019  0.00  0.00    +0.000 NA
ATOM     28  C   UNL     1      44.331   4.230  10.660  0.00  0.00    +0.000 A 
ATOM     29  C   UNL     1      45.245   5.188  10.208  0.00  0.00    +0.000 A 
ATOM     30  C   UNL     1      45.848   4.913   8.975  0.00  0.00    +0.000 A 
ENDBRANCH  18  29
ENDBRANCH   1  22
TORSDOF 4
ENDMDL
MODEL 5
REMARK VINA RESULT:    -6.865      2.920      8.228
REMARK INTER + INTRA:          -9.246
REMARK INTER:                  -9.543
REMARK INTRA:                   0.298
REMARK UNBOUND:                -0.776
REMARK  Name = 
REMARK  6 active torsions:
REMARK  status: ('A' for Active; 'I' for Inactive)
REMARK    1  A    between atoms: C_1  and  C_2
REMARK    2  A    between atoms: C_6  and  C_7
REMARK    3  A    between atoms: C_11  and  C_12
REMARK    4  A    between atoms: C_12  and  N_13
REMARK    5  A    between atoms: C_16  and  C_17
REMARK    6  A    between atoms: C_19  and  C_20
REMARK                            x       y       z     vdW  Elec       q    Type
REMARK                         _______ _______ _______ _____ _____    ______ ____
ROOT
ATOM      1  C   UNL     1      48.188   7.650  13.835  0.00  0.00    +0.000 C 
ATOM      2  C   UNL     1      49.140   8.830  13.684  0.00  0.00    +0.000 C 
ATOM      3  C   UNL     1      49.577   7.476  13.243  0.00  0.00    +0.000 C 
ENDROOT
BRANCH   1   4
ATOM      4  N   UNL     1      47.898   7.144  15.193  0.00  0.00    +0.000 N 
ATOM      5  C   UNL     1      48.805   6.378  15.947  0.00  0.00    +0.000 A 
ATOM      6  C   UNL     1      50.182   6.607  15.943  0.00  0.00    +0.000 A 
ATOM      7  C   UNL     1      51.030   5.881  16.787  0.00  0.00    +0.000 A 
ATOM      8  C   UNL     1      52.507   6.137  16.811  0.00  0.00    +0.000 C 
ATOM      9  C   UNL     1      50.467   4.918  17.616  0.00  0.00    +0.000 A 
ATOM     10  C   UNL     1      49.094   4.742  17.564  0.00  0.00    +0.000 A 
ATOM     11  N   UNL     1      48.252   5.450  16.753  0.00  0.00    +0.000 NA
ATOM     12  H   UNL     1      46.992   6.697  15.312  0.00  0.00    +0.000 HD
BRANCH  10  13
ATOM     13  C   UNL     1      48.452   3.721  18.455  0.00  0.00    +0.000 C 
ATOM     14  N   UNL     1      48.683   3.883  19.792  0.00  0.00    +0.000 N 
ATOM     15  O   UNL     1      47.772   2.799  18.026  0.00  0.00    +0.000 OA
ATOM     16  H   UNL     1      49.260   4.650  20.113  0.00  0.00    +0.000 HD
ATOM     17  H   UNL     1      48.290   3.222  20.450  0.00  0.00    +0.000 HD
ENDBRANCH  10  13
ENDBRANCH   1   4
BRANCH   1  22
ATOM     18  C   UNL     1      45.529   6.473  11.301  0.00  0.00    +0.000 A 
ATOM     19  C   UNL     1      44.694   7.603  11.249  0.00  0.00    +0.000 A 
ATOM     20  C   UNL     1      44.978   8.742  12.007  0.00  0.00    +0.000 A 
ATOM     21  C   UNL     1      46.097   8.766  12.841  0.00  0.00    +0.000 A 
ATOM     22  C   UNL     1      46.967   7.669  12.918  0.00  0.00    +0.000 A 
ATOM     23  C   UNL     1      46.664   6.547  12.130  0.00  0.00    +0.000 A 
BRANCH  18  29
ATOM     24  C   UNL     1      45.943   3.551   7.206  0.00  0.00    +0.000 C 
ATOM     25  C   UNL     1      45.436   3.799   8.591  0.00  0.00    +0.000 A 
ATOM     26  C   UNL     1      44.665   2.859   9.257  0.00  0.00    +0.000 A 
ATOM     27  N   UNL     1      44.167   3.036  10.495  0.00  0.00    +0.000 NA
ATOM     28  C   UNL     1      44.458   4.214  11.096  0.00  0.00    +0.000 A 
ATOM     29  C   UNL     1      45.242   5.235  10.549  0.00  0.00    +0.000 A 
ATOM     30  C   UNL     1      45.733   4.995   9.260  0.00  0.00    +0.000 A 
ENDBRANCH  18  29
ENDBRANCH   1  22
TORSDOF 4
ENDMDL
MODEL 6
REMARK VINA RESULT:    -6.814      4.033      8.368
REMARK INTER + INTRA:          -9.184
REMARK INTER:                  -8.211
REMARK INTRA:                  -0.973
REMARK UNBOUND:                -0.776
REMARK  Name = 
REMARK  6 active torsions:
REMARK  status: ('A' for Active; 'I' for Inactive)
REMARK    1  A    between atoms: C_1  and  C_2
REMARK    2  A    between atoms: C_6  and  C_7
REMARK    3  A    between atoms: C_11  and  C_12
REMARK    4  A    between atoms: C_12  and  N_13
REMARK    5  A    between atoms: C_16  and  C_17
REMARK    6  A    between atoms: C_19  and  C_20
REMARK                            x       y       z     vdW  Elec       q    Type
REMARK                         _______ _______ _______ _____ _____    ______ ____
ROOT
ATOM      1  C   UNL     1      49.051   8.363  12.567  0.00  0.00    +0.000 C 
ATOM      2  C   UNL     1      49.928   8.714  11.373  0.00  0.00    +0.000 C 
ATOM      3  C   UNL     1      50.064   7.377  12.011  0.00  0.00    +0.000 C 
ENDROOT
BRANCH   1   4
ATOM      4  N   UNL     1      49.310   9.035  13.858  0.00  0.00    +0.000 N 
ATOM      5  C   UNL     1      48.965   8.484  15.104  0.00  0.00    +0.000 A 
ATOM      6  C   UNL     1      49.069   7.122  15.389  0.00  0.00    +0.000 A 
ATOM      7  C   UNL     1      48.807   6.637  16.676  0.00  0.00    +0.000 A 
ATOM      8  C   UNL     1      48.942   5.180  17.000  0.00  0.00    +0.000 C 
ATOM      9  C   UNL     1      48.426   7.546  17.656  0.00  0.00    +0.000 A 
ATOM     10  C   UNL     1      48.338   8.883  17.300  0.00  0.00    +0.000 A 
ATOM     11  N   UNL     1      48.601   9.371  16.052  0.00  0.00    +0.000 NA
ATOM     12  H   UNL     1      49.044  10.016  13.905  0.00  0.00    +0.000 HD
BRANCH  10  13
ATOM     13  C   UNL     1      47.943   9.892  18.337  0.00  0.00    +0.000 C 
ATOM     14  N   UNL     1      47.472  11.078  17.848  0.00  0.00    +0.000 N 
ATOM     15  O   UNL     1      48.038   9.681  19.538  0.00  0.00    +0.000 OA
ATOM     16  H   UNL     1      47.417  11.224  16.849  0.00  0.00    +0.000 HD
ATOM     17  H   UNL     1      47.199  11.809  18.493  0.00  0.00    +0.000 HD
ENDBRANCH  10  13
ENDBRANCH   1   4
BRANCH   1  22
ATOM     18  C   UNL     1      45.756   6.744  11.385  0.00  0.00    +0.000 A 
ATOM     19  C   UNL     1      44.831   7.747  11.723  0.00  0.00    +0.000 A 
ATOM     20  C   UNL     1      45.251   8.942  12.316  0.00  0.00    +0.000 A 
ATOM     21  C   UNL     1      46.604   9.148  12.592  0.00  0.00    +0.000 A 
ATOM     22  C   UNL     1      47.567   8.183  12.261  0.00  0.00    +0.000 A 
ATOM     23  C   UNL     1      47.114   7.002  11.650  0.00  0.00    +0.000 A 
BRANCH  18  29
ATOM     24  C   UNL     1      45.512   3.478   7.544  0.00  0.00    +0.000 C 
ATOM     25  C   UNL     1      45.230   3.852   8.964  0.00  0.00    +0.000 A 
ATOM     26  C   UNL     1      44.569   2.985   9.822  0.00  0.00    +0.000 A 
ATOM     27  N   UNL     1      44.272   3.274  11.102  0.00  0.00    +0.000 NA
ATOM     28  C   UNL     1      44.659   4.494  11.546  0.00  0.00    +0.000 A 
ATOM     29  C   UNL     1      45.350   5.452  10.797  0.00  0.00    +0.000 A 
ATOM     30  C   UNL     1      45.632   5.094   9.472  0.00  0.00    +0.000 A 
ENDBRANCH  18  29
ENDBRANCH   1  22
TORSDOF 4
ENDMDL
MODEL 7
REMARK VINA RESULT:    -6.577      3.403      7.339
REMARK INTER + INTRA:          -8.891
REMARK INTER:                  -8.107
REMARK INTRA:                  -0.784
REMARK UNBOUND:                -0.776
REMARK  Name = 
REMARK  6 active torsions:
REMARK  status: ('A' for Active; 'I' for Inactive)
REMARK    1  A    between atoms: C_1  and  C_2
REMARK    2  A    between atoms: C_6  and  C_7
REMARK    3  A    between atoms: C_11  and  C_12
REMARK    4  A    between atoms: C_12  and  N_13
REMARK    5  A    between atoms: C_16  and  C_17
REMARK    6  A    between atoms: C_19  and  C_20
REMARK                            x       y       z     vdW  Elec       q    Type
REMARK                         _______ _______ _______ _____ _____    ______ ____
ROOT
ATOM      1  C   UNL     1      48.538   7.288  13.691  0.00  0.00    +0.000 C 
ATOM      2  C   UNL     1      48.381   6.601  15.041  0.00  0.00    +0.000 C 
ATOM      3  C   UNL     1      48.675   8.060  14.993  0.00  0.00    +0.000 C 
ENDROOT
BRANCH   1   4
ATOM      4  N   UNL     1      49.738   6.993  12.881  0.00  0.00    +0.000 N 
ATOM      5  C   UNL     1      50.510   7.982  12.245  0.00  0.00    +0.000 A 
ATOM      6  C   UNL     1      50.768   9.229  12.816  0.00  0.00    +0.000 A 
ATOM      7  C   UNL     1      51.625  10.140  12.186  0.00  0.00    +0.000 A 
ATOM      8  C   UNL     1      51.931  11.471  12.803  0.00  0.00    +0.000 C 
ATOM      9  C   UNL     1      52.196   9.775  10.973  0.00  0.00    +0.000 A 
ATOM     10  C   UNL     1      51.891   8.523  10.464  0.00  0.00    +0.000 A 
ATOM     11  N   UNL     1      51.066   7.620  11.072  0.00  0.00    +0.000 NA
ATOM     12  H   UNL     1      49.638   6.241  12.203  0.00  0.00    +0.000 HD
BRANCH  10  13
ATOM     13  C   UNL     1      52.502   8.093   9.163  0.00  0.00    +0.000 C 
ATOM     14  N   UNL     1      53.107   9.085   8.444  0.00  0.00    +0.000 N 
ATOM     15  O   UNL     1      52.461   6.938   8.762  0.00  0.00    +0.000 OA
ATOM     16  H   UNL     1      53.112  10.032   8.800  0.00  0.00    +0.000 HD
ATOM     17  H   UNL     1      53.528   8.866   7.551  0.00  0.00    +0.000 HD
ENDBRANCH  10  13
ENDBRANCH   1   4
BRANCH   1  22
ATOM     18  C   UNL     1      45.656   6.367  11.299  0.00  0.00    +0.000 A 
ATOM     19  C   UNL     1      44.878   7.537  11.358  0.00  0.00    +0.000 A 
ATOM     20  C   UNL     1      45.271   8.622  12.146  0.00  0.00    +0.000 A 
ATOM     21  C   UNL     1      46.444   8.551  12.900  0.00  0.00    +0.000 A 
ATOM     22  C   UNL     1      47.260   7.412  12.864  0.00  0.00    +0.000 A 
ATOM     23  C   UNL     1      46.847   6.346  12.048  0.00  0.00    +0.000 A 
BRANCH  18  29
ATOM     24  C   UNL     1      45.868   3.490   7.156  0.00  0.00    +0.000 C 
ATOM     25  C   UNL     1      45.349   3.770   8.530  0.00  0.00    +0.000 A 
ATOM     26  C   UNL     1      44.456   2.911   9.154  0.00  0.00    +0.000 A 
ATOM     27  N   UNL     1      43.942   3.120  10.380  0.00  0.00    +0.000 NA
ATOM     28  C   UNL     1      44.345   4.247  11.015  0.00  0.00    +0.000 A 
ATOM     29  C   UNL     1      45.255   5.183  10.513  0.00  0.00    +0.000 A 
ATOM     30  C   UNL     1      45.756   4.912   9.233  0.00  0.00    +0.000 A 
ENDBRANCH  18  29
ENDBRANCH   1  22
TORSDOF 4
ENDMDL
MODEL 8
REMARK VINA RESULT:    -6.567      3.494      4.644
REMARK INTER + INTRA:          -8.878
REMARK INTER:                  -8.472
REMARK INTRA:                  -0.406
REMARK UNBOUND:                -0.776
REMARK  Name = 
REMARK  6 active torsions:
REMARK  status: ('A' for Active; 'I' for Inactive)
REMARK    1  A    between atoms: C_1  and  C_2
REMARK    2  A    between atoms: C_6  and  C_7
REMARK    3  A    between atoms: C_11  and  C_12
REMARK    4  A    between atoms: C_12  and  N_13
REMARK    5  A    between atoms: C_16  and  C_17
REMARK    6  A    between atoms: C_19  and  C_20
REMARK                            x       y       z     vdW  Elec       q    Type
REMARK                         _______ _______ _______ _____ _____    ______ ____
ROOT
ATOM      1  C   UNL     1      47.931   8.884  13.063  0.00  0.00    +0.000 C 
ATOM      2  C   UNL     1      48.849   8.517  11.905  0.00  0.00    +0.000 C 
ATOM      3  C   UNL     1      48.447   9.937  12.097  0.00  0.00    +0.000 C 
ENDROOT
BRANCH   1   4
ATOM      4  N   UNL     1      46.516   8.463  13.006  0.00  0.00    +0.000 N 
ATOM      5  C   UNL     1      46.108   7.132  12.805  0.00  0.00    +0.000 A 
ATOM      6  C   UNL     1      46.779   6.040  13.355  0.00  0.00    +0.000 A 
ATOM      7  C   UNL     1      46.274   4.742  13.206  0.00  0.00    +0.000 A 
ATOM      8  C   UNL     1      46.972   3.563  13.816  0.00  0.00    +0.000 C 
ATOM      9  C   UNL     1      45.099   4.571  12.485  0.00  0.00    +0.000 A 
ATOM     10  C   UNL     1      44.490   5.701  11.963  0.00  0.00    +0.000 A 
ATOM     11  N   UNL     1      44.964   6.974  12.108  0.00  0.00    +0.000 NA
ATOM     12  H   UNL     1      45.911   9.030  12.417  0.00  0.00    +0.000 HD
BRANCH  10  13
ATOM     13  C   UNL     1      43.213   5.554  11.190  0.00  0.00    +0.000 C 
ATOM     14  N   UNL     1      42.144   6.242  11.691  0.00  0.00    +0.000 N 
ATOM     15  O   UNL     1      43.122   4.864  10.184  0.00  0.00    +0.000 OA
ATOM     16  H   UNL     1      42.250   6.794  12.532  0.00  0.00    +0.000 HD
ATOM     17  H   UNL     1      41.247   6.177  11.226  0.00  0.00    +0.000 HD
ENDBRANCH  10  13
ENDBRANCH   1   4
BRANCH   1  22
ATOM     18  C   UNL     1      49.309   7.299  16.298  0.00  0.00    +0.000 A 
ATOM     19  C   UNL     1      49.737   8.444  16.993  0.00  0.00    +0.000 A 
ATOM     20  C   UNL     1      49.581   9.719  16.443  0.00  0.00    +0.000 A 
ATOM     21  C   UNL     1      49.003   9.870  15.181  0.00  0.00    +0.000 A 
ATOM     22  C   UNL     1      48.547   8.760  14.454  0.00  0.00    +0.000 A 
ATOM     23  C   UNL     1      48.703   7.494  15.043  0.00  0.00    +0.000 A 
BRANCH  18  29
ATOM     24  C   UNL     1      47.546   2.758  17.623  0.00  0.00    +0.000 C 
ATOM     25  C   UNL     1      48.672   3.728  17.459  0.00  0.00    +0.000 A 
ATOM     26  C   UNL     1      49.975   3.385  17.789  0.00  0.00    +0.000 A 
ATOM     27  N   UNL     1      51.024   4.221  17.680  0.00  0.00    +0.000 NA
ATOM     28  C   UNL     1      50.754   5.464  17.215  0.00  0.00    +0.000 A 
ATOM     29  C   UNL     1      49.495   5.931  16.825  0.00  0.00    +0.000 A 
ATOM     30  C   UNL     1      48.442   5.017  16.960  0.00  0.00    +0.000 A 
ENDBRANCH  18  29
ENDBRANCH   1  22
TORSDOF 4
ENDMDL
MODEL 9
REMARK VINA RESULT:    -6.238      3.963      6.894
REMARK INTER + INTRA:          -8.473
REMARK INTER:                  -7.468
REMARK INTRA:                  -1.005
REMARK UNBOUND:                -0.776
REMARK  Name = 
REMARK  6 active torsions:
REMARK  status: ('A' for Active; 'I' for Inactive)
REMARK    1  A    between atoms: C_1  and  C_2
REMARK    2  A    between atoms: C_6  and  C_7
REMARK    3  A    between atoms: C_11  and  C_12
REMARK    4  A    between atoms: C_12  and  N_13
REMARK    5  A    between atoms: C_16  and  C_17
REMARK    6  A    between atoms: C_19  and  C_20
REMARK                            x       y       z     vdW  Elec       q    Type
REMARK                         _______ _______ _______ _____ _____    ______ ____
ROOT
ATOM      1  C   UNL     1      50.531   8.489  13.331  0.00  0.00    +0.000 C 
ATOM      2  C   UNL     1      50.706   8.373  14.840  0.00  0.00    +0.000 C 
ATOM      3  C   UNL     1      51.042   9.654  14.161  0.00  0.00    +0.000 C 
ENDROOT
BRANCH   1   4
ATOM      4  N   UNL     1      51.458   7.748  12.452  0.00  0.00    +0.000 N 
ATOM      5  C   UNL     1      51.859   8.205  11.183  0.00  0.00    +0.000 A 
ATOM      6  C   UNL     1      52.104   9.549  10.901  0.00  0.00    +0.000 A 
ATOM      7  C   UNL     1      52.596   9.939   9.650  0.00  0.00    +0.000 A 
ATOM      8  C   UNL     1      52.888  11.378   9.345  0.00  0.00    +0.000 C 
ATOM      9  C   UNL     1      52.818   8.955   8.694  0.00  0.00    +0.000 A 
ATOM     10  C   UNL     1      52.548   7.642   9.043  0.00  0.00    +0.000 A 
ATOM     11  N   UNL     1      52.078   7.245  10.262  0.00  0.00    +0.000 NA
ATOM     12  H   UNL     1      51.262   6.756  12.340  0.00  0.00    +0.000 HD
BRANCH  10  13
ATOM     13  C   UNL     1      52.790   6.553   8.039  0.00  0.00    +0.000 C 
ATOM     14  N   UNL     1      53.611   5.544   8.458  0.00  0.00    +0.000 N 
ATOM     15  O   UNL     1      52.298   6.562   6.920  0.00  0.00    +0.000 OA
ATOM     16  H   UNL     1      54.010   5.573   9.387  0.00  0.00    +0.000 HD
ATOM     17  H   UNL     1      53.826   4.783   7.827  0.00  0.00    +0.000 HD
ENDBRANCH  10  13
ENDBRANCH   1   4
BRANCH   1  22
ATOM     18  C   UNL     1      47.053   7.189  12.283  0.00  0.00    +0.000 A 
ATOM     19  C   UNL     1      46.397   8.397  11.988  0.00  0.00    +0.000 A 
ATOM     20  C   UNL     1      47.057   9.623  12.110  0.00  0.00    +0.000 A 
ATOM     21  C   UNL     1      48.384   9.662  12.542  0.00  0.00    +0.000 A 
ATOM     22  C   UNL     1      49.087   8.484  12.836  0.00  0.00    +0.000 A 
ATOM     23  C   UNL     1      48.400   7.268  12.685  0.00  0.00    +0.000 A 
BRANCH  18  29
ATOM     24  C   UNL     1      44.165   3.792   9.916  0.00  0.00    +0.000 C 
ATOM     25  C   UNL     1      44.999   4.215  11.083  0.00  0.00    +0.000 A 
ATOM     26  C   UNL     1      45.196   3.378  12.171  0.00  0.00    +0.000 A 
ATOM     27  N   UNL     1      45.921   3.711  13.255  0.00  0.00    +0.000 NA
ATOM     28  C   UNL     1      46.478   4.946  13.247  0.00  0.00    +0.000 A 
ATOM     29  C   UNL     1      46.379   5.877  12.209  0.00  0.00    +0.000 A 
ATOM     30  C   UNL     1      45.614   5.475  11.107  0.00  0.00    +0.000 A 
ENDBRANCH  18  29
ENDBRANCH   1  22
TORSDOF 4
ENDMDL
