MODEL 1
REMARK VINA RESULT:    -8.610      0.000      0.000
REMARK INTER + INTRA:         -11.907
REMARK INTER:                 -11.127
REMARK INTRA:                  -0.780
REMARK UNBOUND:                -0.780
REMARK  Name = 
REMARK  5 active torsions:
REMARK  status: ('A' for Active; 'I' for Inactive)
REMARK    1  A    between atoms: C_2  and  C_4
REMARK    2  A    between atoms: C_7  and  O_8
REMARK    3  A    between atoms: O_8  and  C_9
REMARK    4  A    between atoms: C_9  and  C_10
REMARK    5  A    between atoms: C_14  and  C_15
REMARK                            x       y       z     vdW  Elec       q    Type
REMARK                         _______ _______ _______ _____ _____    ______ ____
ROOT
ATOM      1  C   UNL     1      43.834   5.174  10.667  0.00  0.00    +0.000 C 
ENDROOT
BRANCH   1   2
ATOM      2  C   UNL     1      44.915   5.131  11.713  0.00  0.00    +0.000 A 
ATOM      3  C   UNL     1      44.787   4.282  12.805  0.00  0.00    +0.000 A 
ATOM      4  N   UNL     1      45.681   4.206  13.811  0.00  0.00    +0.000 NA
ATOM      5  C   UNL     1      46.756   5.027  13.729  0.00  0.00    +0.000 A 
ATOM      6  C   UNL     1      46.993   5.948  12.705  0.00  0.00    +0.000 A 
ATOM      7  C   UNL     1      46.027   5.984  11.687  0.00  0.00    +0.000 A 
BRANCH   6   8
ATOM      8  C   UNL     1      48.184   6.819  12.696  0.00  0.00    +0.000 A 
ATOM      9  C   UNL     1      48.576   7.541  11.559  0.00  0.00    +0.000 A 
ATOM     10  C   UNL     1      49.693   8.376  11.591  0.00  0.00    +0.000 A 
ATOM     11  C   UNL     1      50.411   8.465  12.769  0.00  0.00    +0.000 A 
ATOM     12  N   UNL     1      50.090   7.785  13.888  0.00  0.00    +0.000 NA
ATOM     13  C   UNL     1      48.993   6.991  13.824  0.00  0.00    +0.000 A 
ENDBRANCH   6   8
ENDBRANCH   1   2
BRANCH   1  14
ATOM     14  O   UNL     1      43.580   3.865  10.143  0.00  0.00    +0.000 OA
BRANCH  14  18
ATOM     15  C   UNL     1      46.429   2.685   7.478  0.00  0.00    +0.000 A 
ATOM     16  C   UNL     1      45.956   1.754   8.388  0.00  0.00    +0.000 A 
ATOM     17  C   UNL     1      44.986   2.163   9.298  0.00  0.00    +0.000 A 
ATOM     18  C   UNL     1      44.549   3.473   9.241  0.00  0.00    +0.000 A 
ATOM     19  N   UNL     1      45.035   4.361   8.343  0.00  0.00    +0.000 NA
ATOM     20  N   UNL     1      45.986   3.967   7.450  0.00  0.00    +0.000 NA
BRANCH  15  22
ATOM     21  N   UNL     1      47.466   3.074   5.319  0.00  0.00    +0.000 N 
ATOM     22  C   UNL     1      47.461   2.327   6.467  0.00  0.00    +0.000 C 
ATOM     23  O   UNL     1      48.264   1.420   6.649  0.00  0.00    +0.000 OA
ATOM     24  H   UNL     1      48.148   2.872   4.602  0.00  0.00    +0.000 HD
ATOM     25  H   UNL     1      46.804   3.830   5.187  0.00  0.00    +0.000 HD
ENDBRANCH  15  22
ENDBRANCH  14  18
ENDBRANCH   1  14
TORSDOF 5
ENDMDL
MODEL 2
REMARK VINA RESULT:    -8.356      1.423      1.565
REMARK INTER + INTRA:         -11.578
REMARK INTER:                 -10.932
REMARK INTRA:                  -0.647
REMARK UNBOUND:                -0.780
REMARK  Name = 
REMARK  5 active torsions:
REMARK  status: ('A' for Active; 'I' for Inactive)
REMARK    1  A    between atoms: C_2  and  C_4
REMARK    2  A    between atoms: C_7  and  O_8
REMARK    3  A    between atoms: O_8  and  C_9
REMARK    4  A    between atoms: C_9  and  C_10
REMARK    5  A    between atoms: C_14  and  C_15
REMARK                            x       y       z     vdW  Elec       q    Type
REMARK                         _______ _______ _______ _____ _____    ______ ____
ROOT
ATOM      1  C   UNL     1      43.829   4.356  11.317  0.00  0.00    +0.000 C 
ENDROOT
BRANCH   1   2
ATOM      2  C   UNL     1      45.099   4.845  11.959  0.00  0.00    +0.000 A 
ATOM      3  C   UNL     1      45.753   4.051  12.892  0.00  0.00    +0.000 A 
ATOM      4  N   UNL     1      46.869   4.422  13.548  0.00  0.00    +0.000 NA
ATOM      5  C   UNL     1      47.356   5.655  13.268  0.00  0.00    +0.000 A 
ATOM      6  C   UNL     1      46.783   6.566  12.375  0.00  0.00    +0.000 A 
ATOM      7  C   UNL     1      45.621   6.125  11.724  0.00  0.00    +0.000 A 
BRANCH   6   8
ATOM      8  C   UNL     1      47.367   7.899  12.136  0.00  0.00    +0.000 A 
ATOM      9  C   UNL     1      48.713   8.074  11.777  0.00  0.00    +0.000 A 
ATOM     10  C   UNL     1      49.228   9.347  11.533  0.00  0.00    +0.000 A 
ATOM     11  C   UNL     1      48.383  10.433  11.665  0.00  0.00    +0.000 A 
ATOM     12  N   UNL     1      47.088  10.327  12.021  0.00  0.00    +0.000 NA
ATOM     13  C   UNL     1      46.617   9.074  12.241  0.00  0.00    +0.000 A 
ENDBRANCH   6   8
ENDBRANCH   1   2
BRANCH   1  14
ATOM     14  O   UNL     1      43.789   4.713   9.930  0.00  0.00    +0.000 OA
BRANCH  14  18
ATOM     15  C   UNL     1      46.457   2.560   7.726  0.00  0.00    +0.000 A 
ATOM     16  C   UNL     1      45.642   1.880   8.617  0.00  0.00    +0.000 A 
ATOM     17  C   UNL     1      44.735   2.621   9.370  0.00  0.00    +0.000 A 
ATOM     18  C   UNL     1      44.698   3.991   9.184  0.00  0.00    +0.000 A 
ATOM     19  N   UNL     1      45.511   4.626   8.309  0.00  0.00    +0.000 NA
ATOM     20  N   UNL     1      46.403   3.906   7.571  0.00  0.00    +0.000 NA
BRANCH  15  22
ATOM     21  N   UNL     1      48.503   2.587   6.424  0.00  0.00    +0.000 N 
ATOM     22  C   UNL     1      47.448   1.842   6.879  0.00  0.00    +0.000 C 
ATOM     23  O   UNL     1      47.332   0.654   6.606  0.00  0.00    +0.000 OA
ATOM     24  H   UNL     1      49.205   2.146   5.846  0.00  0.00    +0.000 HD
ATOM     25  H   UNL     1      48.594   3.566   6.668  0.00  0.00    +0.000 HD
ENDBRANCH  15  22
ENDBRANCH  14  18
ENDBRANCH   1  14
TORSDOF 5
ENDMDL
MODEL 3
REMARK VINA RESULT:    -8.181      1.806      2.795
REMARK INTER + INTRA:         -11.352
REMARK INTER:                 -10.766
REMARK INTRA:                  -0.586
REMARK UNBOUND:                -0.780
REMARK  Name = 
REMARK  5 active torsions:
REMARK  status: ('A' for Active; 'I' for Inactive)
REMARK    1  A    between atoms: C_2  and  C_4
REMARK    2  A    between atoms: C_7  and  O_8
REMARK    3  A    between atoms: O_8  and  C_9
REMARK    4  A    between atoms: C_9  and  C_10
REMARK    5  A    between atoms: C_14  and  C_15
REMARK                            x       y       z     vdW  Elec       q    Type
REMARK                         _______ _______ _______ _____ _____    ______ ____
ROOT
ATOM      1  C   UNL     1      43.982   4.012  11.311  0.00  0.00    +0.000 C 
ENDROOT
BRANCH   1   2
ATOM      2  C   UNL     1      44.942   4.932  12.016  0.00  0.00    +0.000 A 
ATOM      3  C   UNL     1      45.188   6.200  11.504  0.00  0.00    +0.000 A 
ATOM      4  N   UNL     1      46.061   7.074  12.042  0.00  0.00    +0.000 NA
ATOM      5  C   UNL     1      46.732   6.661  13.144  0.00  0.00    +0.000 A 
ATOM      6  C   UNL     1      46.604   5.405  13.745  0.00  0.00    +0.000 A 
ATOM      7  C   UNL     1      45.683   4.536  13.139  0.00  0.00    +0.000 A 
BRANCH   6   8
ATOM      8  C   UNL     1      47.384   5.025  14.937  0.00  0.00    +0.000 A 
ATOM      9  C   UNL     1      47.164   3.821  15.624  0.00  0.00    +0.000 A 
ATOM     10  C   UNL     1      47.937   3.480  16.734  0.00  0.00    +0.000 A 
ATOM     11  C   UNL     1      48.916   4.363  17.149  0.00  0.00    +0.000 A 
ATOM     12  N   UNL     1      49.162   5.539  16.538  0.00  0.00    +0.000 NA
ATOM     13  C   UNL     1      48.399   5.834  15.456  0.00  0.00    +0.000 A 
ENDBRANCH   6   8
ENDBRANCH   1   2
BRANCH   1  14
ATOM     14  O   UNL     1      43.798   4.415   9.949  0.00  0.00    +0.000 OA
BRANCH  14  18
ATOM     15  C   UNL     1      46.614   2.796   7.488  0.00  0.00    +0.000 A 
ATOM     16  C   UNL     1      45.928   1.951   8.345  0.00  0.00    +0.000 A 
ATOM     17  C   UNL     1      44.970   2.510   9.186  0.00  0.00    +0.000 A 
ATOM     18  C   UNL     1      44.757   3.874   9.116  0.00  0.00    +0.000 A 
ATOM     19  N   UNL     1      45.447   4.673   8.270  0.00  0.00    +0.000 NA
ATOM     20  N   UNL     1      46.388   4.132   7.446  0.00  0.00    +0.000 NA
BRANCH  15  22
ATOM     21  N   UNL     1      47.837   2.997   5.402  0.00  0.00    +0.000 N 
ATOM     22  C   UNL     1      47.649   2.277   6.552  0.00  0.00    +0.000 C 
ATOM     23  O   UNL     1      48.299   1.268   6.794  0.00  0.00    +0.000 OA
ATOM     24  H   UNL     1      48.529   2.688   4.734  0.00  0.00    +0.000 HD
ATOM     25  H   UNL     1      47.301   3.838   5.220  0.00  0.00    +0.000 HD
ENDBRANCH  15  22
ENDBRANCH  14  18
ENDBRANCH   1  14
TORSDOF 5
ENDMDL
MODEL 4
REMARK VINA RESULT:    -7.754      2.496      6.637
REMARK INTER + INTRA:         -10.800
REMARK INTER:                 -10.007
REMARK INTRA:                  -0.793
REMARK UNBOUND:                -0.780
REMARK  Name = 
REMARK  5 active torsions:
REMARK  status: ('A' for Active; 'I' for Inactive)
REMARK    1  A    between atoms: C_2  and  C_4
REMARK    2  A    between atoms: C_7  and  O_8
REMARK    3  A    between atoms: O_8  and  C_9
REMARK    4  A    between atoms: C_9  and  C_10
REMARK    5  A    between atoms: C_14  and  C_15
REMARK                            x       y       z     vdW  Elec       q    Type
REMARK                         _______ _______ _______ _____ _____    ______ ____
ROOT
ATOM      1  C   UNL     1      44.376   6.357  11.421  0.00  0.00    +0.000 C 
ENDROOT
BRANCH   1   2
ATOM      2  C   UNL     1      44.306   4.964  10.857  0.00  0.00    +0.000 A 
ATOM      3  C   UNL     1      43.495   4.013  11.464  0.00  0.00    +0.000 A 
ATOM      4  N   UNL     1      43.401   2.732  11.057  0.00  0.00    +0.000 NA
ATOM      5  C   UNL     1      44.162   2.376   9.994  0.00  0.00    +0.000 A 
ATOM      6  C   UNL     1      45.041   3.221   9.310  0.00  0.00    +0.000 A 
ATOM      7  C   UNL     1      45.099   4.542   9.781  0.00  0.00    +0.000 A 
BRANCH   6   8
ATOM      8  C   UNL     1      45.848   2.752   8.168  0.00  0.00    +0.000 A 
ATOM      9  C   UNL     1      46.152   3.578   7.075  0.00  0.00    +0.000 A 
ATOM     10  C   UNL     1      46.939   3.111   6.023  0.00  0.00    +0.000 A 
ATOM     11  C   UNL     1      47.402   1.810   6.077  0.00  0.00    +0.000 A 
ATOM     12  N   UNL     1      47.131   0.967   7.093  0.00  0.00    +0.000 NA
ATOM     13  C   UNL     1      46.371   1.457   8.104  0.00  0.00    +0.000 A 
ENDBRANCH   6   8
ENDBRANCH   1   2
BRANCH   1  14
ATOM     14  O   UNL     1      45.024   6.358  12.698  0.00  0.00    +0.000 OA
BRANCH  14  18
ATOM     15  C   UNL     1      48.953   7.403  12.419  0.00  0.00    +0.000 A 
ATOM     16  C   UNL     1      47.999   8.329  12.030  0.00  0.00    +0.000 A 
ATOM     17  C   UNL     1      46.659   7.965  12.124  0.00  0.00    +0.000 A 
ATOM     18  C   UNL     1      46.356   6.704  12.602  0.00  0.00    +0.000 A 
ATOM     19  N   UNL     1      47.313   5.820  12.969  0.00  0.00    +0.000 NA
ATOM     20  N   UNL     1      48.627   6.169  12.878  0.00  0.00    +0.000 NA
BRANCH  15  22
ATOM     21  N   UNL     1      51.033   7.916  13.557  0.00  0.00    +0.000 N 
ATOM     22  C   UNL     1      50.407   7.714  12.356  0.00  0.00    +0.000 C 
ATOM     23  O   UNL     1      51.013   7.784  11.293  0.00  0.00    +0.000 OA
ATOM     24  H   UNL     1      52.021   8.129  13.569  0.00  0.00    +0.000 HD
ATOM     25  H   UNL     1      50.523   7.843  14.430  0.00  0.00    +0.000 HD
ENDBRANCH  15  22
ENDBRANCH  14  18
ENDBRANCH   1  14
TORSDOF 5
ENDMDL
MODEL 5
REMARK VINA RESULT:    -7.659      2.990      7.263
REMARK INTER + INTRA:         -10.678
REMARK INTER:                 -10.169
REMARK INTRA:                  -0.509
REMARK UNBOUND:                -0.780
REMARK  Name = 
REMARK  5 active torsions:
REMARK  status: ('A' for Active; 'I' for Inactive)
REMARK    1  A    between atoms: C_2  and  C_4
REMARK    2  A    between atoms: C_7  and  O_8
REMARK    3  A    between atoms: O_8  and  C_9
REMARK    4  A    between atoms: C_9  and  C_10
REMARK    5  A    between atoms: C_14  and  C_15
REMARK                            x       y       z     vdW  Elec       q    Type
REMARK                         _______ _______ _______ _____ _____    ______ ____
ROOT
ATOM      1  C   UNL     1      45.095   5.596  12.333  0.00  0.00    +0.000 C 
ENDROOT
BRANCH   1   2
ATOM      2  C   UNL     1      44.733   4.440  11.439  0.00  0.00    +0.000 A 
ATOM      3  C   UNL     1      43.694   3.590  11.795  0.00  0.00    +0.000 A 
ATOM      4  N   UNL     1      43.326   2.508  11.081  0.00  0.00    +0.000 NA
ATOM      5  C   UNL     1      44.037   2.254   9.957  0.00  0.00    +0.000 A 
ATOM      6  C   UNL     1      45.122   3.007   9.498  0.00  0.00    +0.000 A 
ATOM      7  C   UNL     1      45.460   4.120  10.284  0.00  0.00    +0.000 A 
BRANCH   6   8
ATOM      8  C   UNL     1      45.856   2.655   8.268  0.00  0.00    +0.000 A 
ATOM      9  C   UNL     1      46.091   3.584   7.244  0.00  0.00    +0.000 A 
ATOM     10  C   UNL     1      46.811   3.225   6.104  0.00  0.00    +0.000 A 
ATOM     11  C   UNL     1      47.275   1.927   6.003  0.00  0.00    +0.000 A 
ATOM     12  N   UNL     1      47.068   0.989   6.948  0.00  0.00    +0.000 NA
ATOM     13  C   UNL     1      46.374   1.375   8.048  0.00  0.00    +0.000 A 
ENDBRANCH   6   8
ENDBRANCH   1   2
BRANCH   1  14
ATOM     14  O   UNL     1      46.516   5.707  12.471  0.00  0.00    +0.000 OA
BRANCH  14  18
ATOM     15  C   UNL     1      47.868   3.817  15.819  0.00  0.00    +0.000 A 
ATOM     16  C   UNL     1      47.906   5.202  15.787  0.00  0.00    +0.000 A 
ATOM     17  C   UNL     1      47.446   5.842  14.639  0.00  0.00    +0.000 A 
ATOM     18  C   UNL     1      46.977   5.060  13.600  0.00  0.00    +0.000 A 
ATOM     19  N   UNL     1      46.958   3.709  13.661  0.00  0.00    +0.000 NA
ATOM     20  N   UNL     1      47.408   3.076  14.781  0.00  0.00    +0.000 NA
BRANCH  15  22
ATOM     21  N   UNL     1      47.389   2.795  17.967  0.00  0.00    +0.000 N 
ATOM     22  C   UNL     1      48.334   3.057  17.011  0.00  0.00    +0.000 C 
ATOM     23  O   UNL     1      49.494   2.681  17.132  0.00  0.00    +0.000 OA
ATOM     24  H   UNL     1      47.653   2.281  18.795  0.00  0.00    +0.000 HD
ATOM     25  H   UNL     1      46.429   3.100  17.849  0.00  0.00    +0.000 HD
ENDBRANCH  15  22
ENDBRANCH  14  18
ENDBRANCH   1  14
TORSDOF 5
ENDMDL
MODEL 6
REMARK VINA RESULT:    -7.422      3.244      7.502
REMARK INTER + INTRA:         -10.371
REMARK INTER:                  -9.812
REMARK INTRA:                  -0.559
REMARK UNBOUND:                -0.780
REMARK  Name = 
REMARK  5 active torsions:
REMARK  status: ('A' for Active; 'I' for Inactive)
REMARK    1  A    between atoms: C_2  and  C_4
REMARK    2  A    between atoms: C_7  and  O_8
REMARK    3  A    between atoms: O_8  and  C_9
REMARK    4  A    between atoms: C_9  and  C_10
REMARK    5  A    between atoms: C_14  and  C_15
REMARK                            x       y       z     vdW  Elec       q    Type
REMARK                         _______ _______ _______ _____ _____    ______ ____
ROOT
ATOM      1  C   UNL     1      45.148   5.428  13.176  0.00  0.00    +0.000 C 
ENDROOT
BRANCH   1   2
ATOM      2  C   UNL     1      44.708   4.407  12.161  0.00  0.00    +0.000 A 
ATOM      3  C   UNL     1      43.635   3.571  12.442  0.00  0.00    +0.000 A 
ATOM      4  N   UNL     1      43.197   2.602  11.615  0.00  0.00    +0.000 NA
ATOM      5  C   UNL     1      43.869   2.451  10.448  0.00  0.00    +0.000 A 
ATOM      6  C   UNL     1      44.981   3.202  10.053  0.00  0.00    +0.000 A 
ATOM      7  C   UNL     1      45.392   4.195  10.957  0.00  0.00    +0.000 A 
BRANCH   6   8
ATOM      8  C   UNL     1      45.668   2.966   8.770  0.00  0.00    +0.000 A 
ATOM      9  C   UNL     1      46.125   1.695   8.387  0.00  0.00    +0.000 A 
ATOM     10  C   UNL     1      46.749   1.501   7.155  0.00  0.00    +0.000 A 
ATOM     11  C   UNL     1      46.919   2.594   6.326  0.00  0.00    +0.000 A 
ATOM     12  N   UNL     1      46.515   3.839   6.646  0.00  0.00    +0.000 NA
ATOM     13  C   UNL     1      45.902   3.990   7.847  0.00  0.00    +0.000 A 
ENDBRANCH   6   8
ENDBRANCH   1   2
BRANCH   1  14
ATOM     14  O   UNL     1      46.573   5.576  13.165  0.00  0.00    +0.000 OA
BRANCH  14  18
ATOM     15  C   UNL     1      48.290   4.027  16.520  0.00  0.00    +0.000 A 
ATOM     16  C   UNL     1      48.387   5.392  16.304  0.00  0.00    +0.000 A 
ATOM     17  C   UNL     1      47.802   5.915  15.154  0.00  0.00    +0.000 A 
ATOM     18  C   UNL     1      47.156   5.044  14.296  0.00  0.00    +0.000 A 
ATOM     19  N   UNL     1      47.083   3.714  14.534  0.00  0.00    +0.000 NA
ATOM     20  N   UNL     1      47.655   3.195  15.657  0.00  0.00    +0.000 NA
BRANCH  15  22
ATOM     21  N   UNL     1      47.998   3.003  18.700  0.00  0.00    +0.000 N 
ATOM     22  C   UNL     1      48.882   3.389  17.728  0.00  0.00    +0.000 C 
ATOM     23  O   UNL     1      50.088   3.214  17.847  0.00  0.00    +0.000 OA
ATOM     24  H   UNL     1      48.349   2.564  19.540  0.00  0.00    +0.000 HD
ATOM     25  H   UNL     1      47.001   3.142  18.584  0.00  0.00    +0.000 HD
ENDBRANCH  15  22
ENDBRANCH  14  18
ENDBRANCH   1  14
TORSDOF 5
ENDMDL
MODEL 7
REMARK VINA RESULT:    -7.112      1.642      1.992
REMARK INTER + INTRA:          -9.971
REMARK INTER:                  -9.336
REMARK INTRA:                  -0.635
REMARK UNBOUND:                -0.780
REMARK  Name = 
REMARK  5 active torsions:
REMARK  status: ('A' for Active; 'I' for Inactive)
REMARK    1  A    between atoms: C_2  and  C_4
REMARK    2  A    between atoms: C_7  and  O_8
REMARK    3  A    between atoms: O_8  and  C_9
REMARK    4  A    between atoms: C_9  and  C_10
REMARK    5  A    between atoms: C_14  and  C_15
REMARK                            x       y       z     vdW  Elec       q    Type
REMARK                         _______ _______ _______ _____ _____    ______ ____
ROOT
ATOM      1  C   UNL     1      44.651   3.995  11.678  0.00  0.00    +0.000 C 
ENDROOT
BRANCH   1   2
ATOM      2  C   UNL     1      44.945   5.466  11.801  0.00  0.00    +0.000 A 
ATOM      3  C   UNL     1      43.982   6.397  11.434  0.00  0.00    +0.000 A 
ATOM      4  N   UNL     1      44.170   7.731  11.470  0.00  0.00    +0.000 NA
ATOM      5  C   UNL     1      45.386   8.161  11.885  0.00  0.00    +0.000 A 
ATOM      6  C   UNL     1      46.452   7.335  12.254  0.00  0.00    +0.000 A 
ATOM      7  C   UNL     1      46.198   5.956  12.194  0.00  0.00    +0.000 A 
BRANCH   6   8
ATOM      8  C   UNL     1      47.753   7.883  12.682  0.00  0.00    +0.000 A 
ATOM      9  C   UNL     1      47.857   9.029  13.484  0.00  0.00    +0.000 A 
ATOM     10  C   UNL     1      49.103   9.506  13.892  0.00  0.00    +0.000 A 
ATOM     11  C   UNL     1      50.233   8.829  13.475  0.00  0.00    +0.000 A 
ATOM     12  N   UNL     1      50.196   7.733  12.693  0.00  0.00    +0.000 NA
ATOM     13  C   UNL     1      48.968   7.290  12.324  0.00  0.00    +0.000 A 
ENDBRANCH   6   8
ENDBRANCH   1   2
BRANCH   1  14
ATOM     14  O   UNL     1      43.974   3.712  10.447  0.00  0.00    +0.000 OA
BRANCH  14  18
ATOM     15  C   UNL     1      46.575   2.626   7.504  0.00  0.00    +0.000 A 
ATOM     16  C   UNL     1      46.226   3.963   7.611  0.00  0.00    +0.000 A 
ATOM     17  C   UNL     1      45.335   4.327   8.616  0.00  0.00    +0.000 A 
ATOM     18  C   UNL     1      44.850   3.337   9.450  0.00  0.00    +0.000 A 
ATOM     19  N   UNL     1      45.206   2.039   9.316  0.00  0.00    +0.000 NA
ATOM     20  N   UNL     1      46.077   1.675   8.333  0.00  0.00    +0.000 NA
BRANCH  15  22
ATOM     21  N   UNL     1      47.744   3.008   5.414  0.00  0.00    +0.000 N 
ATOM     22  C   UNL     1      47.527   2.154   6.462  0.00  0.00    +0.000 C 
ATOM     23  O   UNL     1      48.088   1.068   6.536  0.00  0.00    +0.000 OA
ATOM     24  H   UNL     1      48.383   2.735   4.679  0.00  0.00    +0.000 HD
ATOM     25  H   UNL     1      47.283   3.909   5.371  0.00  0.00    +0.000 HD
ENDBRANCH  15  22
ENDBRANCH  14  18
ENDBRANCH   1  14
TORSDOF 5
ENDMDL
MODEL 8
REMARK VINA RESULT:    -7.043      2.647      6.589
REMARK INTER + INTRA:          -9.882
REMARK INTER:                  -9.163
REMARK INTRA:                  -0.719
REMARK UNBOUND:                -0.780
REMARK  Name = 
REMARK  5 active torsions:
REMARK  status: ('A' for Active; 'I' for Inactive)
REMARK    1  A    between atoms: C_2  and  C_4
REMARK    2  A    between atoms: C_7  and  O_8
REMARK    3  A    between atoms: O_8  and  C_9
REMARK    4  A    between atoms: C_9  and  C_10
REMARK    5  A    between atoms: C_14  and  C_15
REMARK                            x       y       z     vdW  Elec       q    Type
REMARK                         _______ _______ _______ _____ _____    ______ ____
ROOT
ATOM      1  C   UNL     1      45.523   4.522  13.496  0.00  0.00    +0.000 C 
ENDROOT
BRANCH   1   2
ATOM      2  C   UNL     1      44.931   3.793  12.320  0.00  0.00    +0.000 A 
ATOM      3  C   UNL     1      43.716   3.133  12.456  0.00  0.00    +0.000 A 
ATOM      4  N   UNL     1      43.130   2.421  11.473  0.00  0.00    +0.000 NA
ATOM      5  C   UNL     1      43.794   2.355  10.294  0.00  0.00    +0.000 A 
ATOM      6  C   UNL     1      45.033   2.946  10.030  0.00  0.00    +0.000 A 
ATOM      7  C   UNL     1      45.596   3.672  11.092  0.00  0.00    +0.000 A 
BRANCH   6   8
ATOM      8  C   UNL     1      45.699   2.815   8.720  0.00  0.00    +0.000 A 
ATOM      9  C   UNL     1      46.213   1.593   8.260  0.00  0.00    +0.000 A 
ATOM     10  C   UNL     1      46.815   1.497   7.005  0.00  0.00    +0.000 A 
ATOM     11  C   UNL     1      46.904   2.640   6.232  0.00  0.00    +0.000 A 
ATOM     12  N   UNL     1      46.443   3.842   6.628  0.00  0.00    +0.000 NA
ATOM     13  C   UNL     1      45.854   3.897   7.849  0.00  0.00    +0.000 A 
ENDBRANCH   6   8
ENDBRANCH   1   2
BRANCH   1  14
ATOM     14  O   UNL     1      45.444   5.940  13.309  0.00  0.00    +0.000 OA
BRANCH  14  18
ATOM     15  C   UNL     1      49.045   7.577  12.329  0.00  0.00    +0.000 A 
ATOM     16  C   UNL     1      47.895   8.277  12.003  0.00  0.00    +0.000 A 
ATOM     17  C   UNL     1      46.668   7.712  12.336  0.00  0.00    +0.000 A 
ATOM     18  C   UNL     1      46.666   6.486  12.976  0.00  0.00    +0.000 A 
ATOM     19  N   UNL     1      47.807   5.824  13.277  0.00  0.00    +0.000 NA
ATOM     20  N   UNL     1      49.012   6.371  12.951  0.00  0.00    +0.000 NA
BRANCH  15  22
ATOM     21  N   UNL     1      51.217   7.293  11.287  0.00  0.00    +0.000 N 
ATOM     22  C   UNL     1      50.396   8.114  12.014  0.00  0.00    +0.000 C 
ATOM     23  O   UNL     1      50.757   9.227  12.378  0.00  0.00    +0.000 OA
ATOM     24  H   UNL     1      52.145   7.612  11.045  0.00  0.00    +0.000 HD
ATOM     25  H   UNL     1      50.902   6.380  10.981  0.00  0.00    +0.000 HD
ENDBRANCH  15  22
ENDBRANCH  14  18
ENDBRANCH   1  14
TORSDOF 5
ENDMDL
MODEL 9
REMARK VINA RESULT:    -6.964      4.626      7.057
REMARK INTER + INTRA:          -9.780
REMARK INTER:                  -9.169
REMARK INTRA:                  -0.610
REMARK UNBOUND:                -0.780
REMARK  Name = 
REMARK  5 active torsions:
REMARK  status: ('A' for Active; 'I' for Inactive)
REMARK    1  A    between atoms: C_2  and  C_4
REMARK    2  A    between atoms: C_7  and  O_8
REMARK    3  A    between atoms: O_8  and  C_9
REMARK    4  A    between atoms: C_9  and  C_10
REMARK    5  A    between atoms: C_14  and  C_15
REMARK                            x       y       z     vdW  Elec       q    Type
REMARK                         _______ _______ _______ _____ _____    ______ ____
ROOT
ATOM      1  C   UNL     1      46.913   3.591  14.376  0.00  0.00    +0.000 C 
ENDROOT
BRANCH   1   2
ATOM      2  C   UNL     1      46.493   4.869  13.703  0.00  0.00    +0.000 A 
ATOM      3  C   UNL     1      45.156   5.077  13.387  0.00  0.00    +0.000 A 
ATOM      4  N   UNL     1      44.693   6.169  12.747  0.00  0.00    +0.000 NA
ATOM      5  C   UNL     1      45.612   7.101  12.395  0.00  0.00    +0.000 A 
ATOM      6  C   UNL     1      46.988   7.006  12.624  0.00  0.00    +0.000 A 
ATOM      7  C   UNL     1      47.411   5.845  13.291  0.00  0.00    +0.000 A 
BRANCH   6   8
ATOM      8  C   UNL     1      47.927   8.059  12.195  0.00  0.00    +0.000 A 
ATOM      9  C   UNL     1      49.238   7.773  11.786  0.00  0.00    +0.000 A 
ATOM     10  C   UNL     1      50.093   8.789  11.362  0.00  0.00    +0.000 A 
ATOM     11  C   UNL     1      49.621  10.088  11.367  0.00  0.00    +0.000 A 
ATOM     12  N   UNL     1      48.378  10.425  11.763  0.00  0.00    +0.000 NA
ATOM     13  C   UNL     1      47.569   9.410  12.159  0.00  0.00    +0.000 A 
ENDBRANCH   6   8
ENDBRANCH   1   2
BRANCH   1  14
ATOM     14  O   UNL     1      47.048   3.781  15.790  0.00  0.00    +0.000 OA
BRANCH  14  18
ATOM     15  C   UNL     1      50.537   2.246  17.232  0.00  0.00    +0.000 A 
ATOM     16  C   UNL     1      50.040   3.402  17.811  0.00  0.00    +0.000 A 
ATOM     17  C   UNL     1      48.850   3.924  17.312  0.00  0.00    +0.000 A 
ATOM     18  C   UNL     1      48.232   3.258  16.270  0.00  0.00    +0.000 A 
ATOM     19  N   UNL     1      48.746   2.133  15.722  0.00  0.00    +0.000 NA
ATOM     20  N   UNL     1      49.911   1.618  16.205  0.00  0.00    +0.000 NA
BRANCH  15  22
ATOM     21  N   UNL     1      51.720   0.299  18.067  0.00  0.00    +0.000 N 
ATOM     22  C   UNL     1      51.799   1.619  17.710  0.00  0.00    +0.000 C 
ATOM     23  O   UNL     1      52.851   2.243  17.780  0.00  0.00    +0.000 OA
ATOM     24  H   UNL     1      52.550  -0.174  18.398  0.00  0.00    +0.000 HD
ATOM     25  H   UNL     1      50.847  -0.209  17.992  0.00  0.00    +0.000 HD
ENDBRANCH  15  22
ENDBRANCH  14  18
ENDBRANCH   1  14
TORSDOF 5
ENDMDL
