MODEL 1
REMARK VINA RESULT:    -8.687      0.000      0.000
REMARK INTER + INTRA:         -13.147
REMARK INTER:                 -12.242
REMARK INTRA:                  -0.906
REMARK UNBOUND:                -0.906
REMARK  Name = 
REMARK  8 active torsions:
REMARK  status: ('A' for Active; 'I' for Inactive)
REMARK    1  A    between atoms: C_1  and  C_2
REMARK    2  A    between atoms: C_2  and  N_3
REMARK    3  A    between atoms: C_2  and  C_25
REMARK    4  A    between atoms: N_3  and  C_4
REMARK    5  A    between atoms: C_4  and  C_5
REMARK    6  A    between atoms: C_8  and  C_9
REMARK    7  A    between atoms: C_9  and  N_10
REMARK    8  A    between atoms: C_11  and  C_13
REMARK                            x       y       z     vdW  Elec       q    Type
REMARK                         _______ _______ _______ _____ _____    ______ ____
ROOT
ATOM      1  C   UNL     1      45.489   4.258  12.694  0.00  0.00    +0.000 A 
ATOM      2  N   UNL     1      45.550   5.568  12.381  0.00  0.00    +0.000 NA
ATOM      3  C   UNL     1      46.445   6.309  13.060  0.00  0.00    +0.000 A 
ATOM      4  C   UNL     1      47.277   5.806  14.036  0.00  0.00    +0.000 A 
ATOM      5  C   UNL     1      47.100   4.468  14.313  0.00  0.00    +0.000 A 
ATOM      6  N   UNL     1      46.228   3.671  13.658  0.00  0.00    +0.000 NA
ENDROOT
BRANCH   1   7
ATOM      7  C   UNL     1      44.512   3.386  11.916  0.00  0.00    +0.000 C 
BRANCH   7   8
ATOM      8  N   UNL     1      45.136   2.618  10.820  0.00  0.00    +0.000 NA
ATOM      9  H   UNL     1      45.029   1.624  11.024  0.00  0.00    +0.000 HD
BRANCH   8  11
ATOM     10  C   UNL     1      44.158   4.376   9.332  0.00  0.00    +0.000 C 
ATOM     11  C   UNL     1      44.547   2.899   9.504  0.00  0.00    +0.000 C 
BRANCH  11  12
ATOM     12  C   UNL     1      45.496   2.549   8.360  0.00  0.00    +0.000 A 
ATOM     13  C   UNL     1      45.891   3.555   7.462  0.00  0.00    +0.000 A 
ATOM     14  C   UNL     1      46.895   3.319   6.519  0.00  0.00    +0.000 A 
ATOM     15  C   UNL     1      47.505   2.070   6.449  0.00  0.00    +0.000 A 
ATOM     16  C   UNL     1      47.099   1.050   7.306  0.00  0.00    +0.000 A 
ATOM     17  C   UNL     1      46.104   1.287   8.257  0.00  0.00    +0.000 A 
ENDBRANCH  11  12
ENDBRANCH   8  11
ENDBRANCH   7   8
ENDBRANCH   1   7
BRANCH   4  18
ATOM     18  C   UNL     1      48.273   6.660  14.744  0.00  0.00    +0.000 C 
BRANCH  18  19
ATOM     19  N   UNL     1      49.187   5.876  15.530  0.00  0.00    +0.000 N 
ATOM     20  C   UNL     1      49.149   5.903  16.902  0.00  0.00    +0.000 C 
ATOM     21  O   UNL     1      48.339   6.599  17.507  0.00  0.00    +0.000 OA
ATOM     22  H   UNL     1      49.679   5.118  15.064  0.00  0.00    +0.000 HD
BRANCH  20  23
ATOM     23  C   UNL     1      50.177   5.125  17.606  0.00  0.00    +0.000 A 
ATOM     24  C   UNL     1      51.075   5.762  18.453  0.00  0.00    +0.000 A 
ATOM     25  S   UNL     1      52.351   4.755  18.971  0.00  0.00    +0.000 S 
ATOM     26  C   UNL     1      51.719   3.426  18.118  0.00  0.00    +0.000 A 
ATOM     27  N   UNL     1      52.390   2.243  18.049  0.00  0.00    +0.000 NA
ATOM     28  C   UNL     1      51.773   1.322  17.386  0.00  0.00    +0.000 A 
ATOM     29  N   UNL     1      50.532   1.456  16.825  0.00  0.00    +0.000 N 
ATOM     30  C   UNL     1      49.795   2.612  16.921  0.00  0.00    +0.000 A 
ATOM     31  O   UNL     1      48.636   2.671  16.529  0.00  0.00    +0.000 OA
ATOM     32  C   UNL     1      50.497   3.719  17.544  0.00  0.00    +0.000 A 
ATOM     33  H   UNL     1      50.071   0.671  16.388  0.00  0.00    +0.000 HD
ENDBRANCH  20  23
ENDBRANCH  18  19
ENDBRANCH   4  18
TORSDOF 7
ENDMDL
MODEL 2
REMARK VINA RESULT:    -8.647      2.168      2.519
REMARK INTER + INTRA:         -13.091
REMARK INTER:                 -12.364
REMARK INTRA:                  -0.727
REMARK UNBOUND:                -0.906
REMARK  Name = 
REMARK  8 active torsions:
REMARK  status: ('A' for Active; 'I' for Inactive)
REMARK    1  A    between atoms: C_1  and  C_2
REMARK    2  A    between atoms: C_2  and  N_3
REMARK    3  A    between atoms: C_2  and  C_25
REMARK    4  A    between atoms: N_3  and  C_4
REMARK    5  A    between atoms: C_4  and  C_5
REMARK    6  A    between atoms: C_8  and  C_9
REMARK    7  A    between atoms: C_9  and  N_10
REMARK    8  A    between atoms: C_11  and  C_13
REMARK                            x       y       z     vdW  Elec       q    Type
REMARK                         _______ _______ _______ _____ _____    ______ ____
ROOT
ATOM      1  C   UNL     1      45.381   4.282  12.126  0.00  0.00    +0.000 A 
ATOM      2  N   UNL     1      45.573   5.519  11.625  0.00  0.00    +0.000 NA
ATOM      3  C   UNL     1      46.515   6.272  12.222  0.00  0.00    +0.000 A 
ATOM      4  C   UNL     1      47.269   5.851  13.296  0.00  0.00    +0.000 A 
ATOM      5  C   UNL     1      46.959   4.591  13.762  0.00  0.00    +0.000 A 
ATOM      6  N   UNL     1      46.035   3.785  13.197  0.00  0.00    +0.000 NA
ENDROOT
BRANCH   1   7
ATOM      7  C   UNL     1      44.347   3.393  11.447  0.00  0.00    +0.000 C 
BRANCH   7   8
ATOM      8  N   UNL     1      44.913   2.488  10.427  0.00  0.00    +0.000 NA
ATOM      9  H   UNL     1      44.613   1.537  10.640  0.00  0.00    +0.000 HD
BRANCH   8  11
ATOM     10  C   UNL     1      44.188   4.318   8.882  0.00  0.00    +0.000 C 
ATOM     11  C   UNL     1      44.498   2.823   9.058  0.00  0.00    +0.000 C 
BRANCH  11  12
ATOM     12  C   UNL     1      45.563   2.461   8.027  0.00  0.00    +0.000 A 
ATOM     13  C   UNL     1      45.913   3.400   7.040  0.00  0.00    +0.000 A 
ATOM     14  C   UNL     1      47.005   3.180   6.198  0.00  0.00    +0.000 A 
ATOM     15  C   UNL     1      47.752   2.012   6.316  0.00  0.00    +0.000 A 
ATOM     16  C   UNL     1      47.397   1.053   7.263  0.00  0.00    +0.000 A 
ATOM     17  C   UNL     1      46.313   1.277   8.114  0.00  0.00    +0.000 A 
ENDBRANCH  11  12
ENDBRANCH   8  11
ENDBRANCH   7   8
ENDBRANCH   1   7
BRANCH   4  18
ATOM     18  C   UNL     1      48.322   6.710  13.909  0.00  0.00    +0.000 C 
BRANCH  18  19
ATOM     19  N   UNL     1      48.097   6.911  15.315  0.00  0.00    +0.000 N 
ATOM     20  C   UNL     1      49.097   6.704  16.232  0.00  0.00    +0.000 C 
ATOM     21  O   UNL     1      50.217   6.337  15.888  0.00  0.00    +0.000 OA
ATOM     22  H   UNL     1      47.278   7.446  15.589  0.00  0.00    +0.000 HD
BRANCH  20  23
ATOM     23  C   UNL     1      48.738   6.863  17.648  0.00  0.00    +0.000 A 
ATOM     24  C   UNL     1      48.570   8.133  18.185  0.00  0.00    +0.000 A 
ATOM     25  S   UNL     1      48.420   8.136  19.885  0.00  0.00    +0.000 S 
ATOM     26  C   UNL     1      48.528   6.440  19.950  0.00  0.00    +0.000 A 
ATOM     27  N   UNL     1      48.571   5.776  21.139  0.00  0.00    +0.000 NA
ATOM     28  C   UNL     1      48.629   4.491  21.027  0.00  0.00    +0.000 A 
ATOM     29  N   UNL     1      48.602   3.804  19.844  0.00  0.00    +0.000 N 
ATOM     30  C   UNL     1      48.500   4.430  18.624  0.00  0.00    +0.000 A 
ATOM     31  O   UNL     1      48.345   3.798  17.587  0.00  0.00    +0.000 OA
ATOM     32  C   UNL     1      48.562   5.878  18.688  0.00  0.00    +0.000 A 
ATOM     33  H   UNL     1      48.570   2.796  19.828  0.00  0.00    +0.000 HD
ENDBRANCH  20  23
ENDBRANCH  18  19
ENDBRANCH   4  18
TORSDOF 7
ENDMDL
MODEL 3
REMARK VINA RESULT:    -8.513      2.138      2.559
REMARK INTER + INTRA:         -12.902
REMARK INTER:                 -11.983
REMARK INTRA:                  -0.919
REMARK UNBOUND:                -0.906
REMARK  Name = 
REMARK  8 active torsions:
REMARK  status: ('A' for Active; 'I' for Inactive)
REMARK    1  A    between atoms: C_1  and  C_2
REMARK    2  A    between atoms: C_2  and  N_3
REMARK    3  A    between atoms: C_2  and  C_25
REMARK    4  A    between atoms: N_3  and  C_4
REMARK    5  A    between atoms: C_4  and  C_5
REMARK    6  A    between atoms: C_8  and  C_9
REMARK    7  A    between atoms: C_9  and  N_10
REMARK    8  A    between atoms: C_11  and  C_13
REMARK                            x       y       z     vdW  Elec       q    Type
REMARK                         _______ _______ _______ _____ _____    ______ ____
ROOT
ATOM      1  C   UNL     1      44.750   5.876  11.202  0.00  0.00    +0.000 A 
ATOM      2  N   UNL     1      45.887   5.313  11.661  0.00  0.00    +0.000 NA
ATOM      3  C   UNL     1      46.711   6.107  12.368  0.00  0.00    +0.000 A 
ATOM      4  C   UNL     1      46.457   7.434  12.635  0.00  0.00    +0.000 A 
ATOM      5  C   UNL     1      45.295   7.924  12.079  0.00  0.00    +0.000 A 
ATOM      6  N   UNL     1      44.423   7.174  11.372  0.00  0.00    +0.000 NA
ENDROOT
BRANCH   1   7
ATOM      7  C   UNL     1      43.780   4.992  10.430  0.00  0.00    +0.000 C 
BRANCH   7   8
ATOM      8  N   UNL     1      44.345   4.422   9.191  0.00  0.00    +0.000 NA
ATOM      9  H   UNL     1      45.001   5.097   8.798  0.00  0.00    +0.000 HD
BRANCH   8  11
ATOM     10  C   UNL     1      44.093   2.008   9.802  0.00  0.00    +0.000 C 
ATOM     11  C   UNL     1      45.044   3.147   9.404  0.00  0.00    +0.000 C 
BRANCH  11  12
ATOM     12  C   UNL     1      45.798   2.688   8.158  0.00  0.00    +0.000 A 
ATOM     13  C   UNL     1      46.038   3.606   7.121  0.00  0.00    +0.000 A 
ATOM     14  C   UNL     1      46.878   3.278   6.054  0.00  0.00    +0.000 A 
ATOM     15  C   UNL     1      47.475   2.022   5.998  0.00  0.00    +0.000 A 
ATOM     16  C   UNL     1      47.217   1.085   6.997  0.00  0.00    +0.000 A 
ATOM     17  C   UNL     1      46.387   1.416   8.071  0.00  0.00    +0.000 A 
ENDBRANCH  11  12
ENDBRANCH   8  11
ENDBRANCH   7   8
ENDBRANCH   1   7
BRANCH   4  18
ATOM     18  C   UNL     1      47.387   8.270  13.447  0.00  0.00    +0.000 C 
BRANCH  18  19
ATOM     19  N   UNL     1      47.634   7.693  14.741  0.00  0.00    +0.000 N 
ATOM     20  C   UNL     1      48.814   7.051  15.021  0.00  0.00    +0.000 C 
ATOM     21  O   UNL     1      49.700   6.942  14.178  0.00  0.00    +0.000 OA
ATOM     22  H   UNL     1      47.038   7.989  15.510  0.00  0.00    +0.000 HD
BRANCH  20  23
ATOM     23  C   UNL     1      48.931   6.432  16.348  0.00  0.00    +0.000 A 
ATOM     24  C   UNL     1      49.709   7.031  17.330  0.00  0.00    +0.000 A 
ATOM     25  S   UNL     1      49.943   6.047  18.705  0.00  0.00    +0.000 S 
ATOM     26  C   UNL     1      48.974   4.812  18.050  0.00  0.00    +0.000 A 
ATOM     27  N   UNL     1      48.831   3.613  18.680  0.00  0.00    +0.000 NA
ATOM     28  C   UNL     1      48.047   2.786  18.074  0.00  0.00    +0.000 A 
ATOM     29  N   UNL     1      47.356   3.057  16.924  0.00  0.00    +0.000 N 
ATOM     30  C   UNL     1      47.425   4.274  16.287  0.00  0.00    +0.000 A 
ATOM     31  O   UNL     1      46.701   4.545  15.337  0.00  0.00    +0.000 OA
ATOM     32  C   UNL     1      48.392   5.193  16.856  0.00  0.00    +0.000 A 
ATOM     33  H   UNL     1      46.696   2.395  16.544  0.00  0.00    +0.000 HD
ENDBRANCH  20  23
ENDBRANCH  18  19
ENDBRANCH   4  18
TORSDOF 7
ENDMDL
MODEL 4
REMARK VINA RESULT:    -8.158      2.571      3.934
REMARK INTER + INTRA:         -12.402
REMARK INTER:                 -11.430
REMARK INTRA:                  -0.973
REMARK UNBOUND:                -0.906
REMARK  Name = 
REMARK  8 active torsions:
REMARK  status: ('A' for Active; 'I' for Inactive)
REMARK    1  A    between atoms: C_1  and  C_2
REMARK    2  A    between atoms: C_2  and  N_3
REMARK    3  A    between atoms: C_2  and  C_25
REMARK    4  A    between atoms: N_3  and  C_4
REMARK    5  A    between atoms: C_4  and  C_5
REMARK    6  A    between atoms: C_8  and  C_9
REMARK    7  A    between atoms: C_9  and  N_10
REMARK    8  A    between atoms: C_11  and  C_13
REMARK                            x       y       z     vdW  Elec       q    Type
REMARK                         _______ _______ _______ _____ _____    ______ ____
ROOT
ATOM      1  C   UNL     1      45.495   4.414  12.777  0.00  0.00    +0.000 A 
ATOM      2  N   UNL     1      45.632   5.696  12.380  0.00  0.00    +0.000 NA
ATOM      3  C   UNL     1      46.601   6.412  12.977  0.00  0.00    +0.000 A 
ATOM      4  C   UNL     1      47.436   5.911  13.952  0.00  0.00    +0.000 A 
ATOM      5  C   UNL     1      47.180   4.608  14.320  0.00  0.00    +0.000 A 
ATOM      6  N   UNL     1      46.231   3.836  13.749  0.00  0.00    +0.000 NA
ENDROOT
BRANCH   1   7
ATOM      7  C   UNL     1      44.430   3.568  12.092  0.00  0.00    +0.000 C 
BRANCH   7   8
ATOM      8  N   UNL     1      44.959   2.673  11.042  0.00  0.00    +0.000 NA
ATOM      9  H   UNL     1      44.755   1.710  11.310  0.00  0.00    +0.000 HD
BRANCH   8  11
ATOM     10  C   UNL     1      43.919   4.385   9.542  0.00  0.00    +0.000 C 
ATOM     11  C   UNL     1      44.384   2.931   9.715  0.00  0.00    +0.000 C 
BRANCH  11  12
ATOM     12  C   UNL     1      45.375   2.639   8.591  0.00  0.00    +0.000 A 
ATOM     13  C   UNL     1      45.854   3.701   7.804  0.00  0.00    +0.000 A 
ATOM     14  C   UNL     1      46.894   3.504   6.892  0.00  0.00    +0.000 A 
ATOM     15  C   UNL     1      47.458   2.241   6.741  0.00  0.00    +0.000 A 
ATOM     16  C   UNL     1      46.970   1.169   7.485  0.00  0.00    +0.000 A 
ATOM     17  C   UNL     1      45.938   1.366   8.406  0.00  0.00    +0.000 A 
ENDBRANCH  11  12
ENDBRANCH   8  11
ENDBRANCH   7   8
ENDBRANCH   1   7
BRANCH   4  18
ATOM     18  C   UNL     1      48.516   6.734  14.568  0.00  0.00    +0.000 C 
BRANCH  18  19
ATOM     19  N   UNL     1      48.286   6.956  15.970  0.00  0.00    +0.000 N 
ATOM     20  C   UNL     1      48.972   6.247  16.924  0.00  0.00    +0.000 C 
ATOM     21  O   UNL     1      49.802   5.395  16.617  0.00  0.00    +0.000 OA
ATOM     22  H   UNL     1      47.807   7.811  16.239  0.00  0.00    +0.000 HD
BRANCH  20  23
ATOM     23  C   UNL     1      48.605   6.498  18.324  0.00  0.00    +0.000 A 
ATOM     24  C   UNL     1      48.486   5.437  19.214  0.00  0.00    +0.000 A 
ATOM     25  S   UNL     1      47.799   5.882  20.712  0.00  0.00    +0.000 S 
ATOM     26  C   UNL     1      47.683   7.510  20.234  0.00  0.00    +0.000 A 
ATOM     27  N   UNL     1      47.077   8.440  21.024  0.00  0.00    +0.000 NA
ATOM     28  C   UNL     1      47.087   9.636  20.538  0.00  0.00    +0.000 A 
ATOM     29  N   UNL     1      47.683  10.001  19.362  0.00  0.00    +0.000 N 
ATOM     30  C   UNL     1      48.356   9.107  18.563  0.00  0.00    +0.000 A 
ATOM     31  O   UNL     1      48.995   9.473  17.584  0.00  0.00    +0.000 OA
ATOM     32  C   UNL     1      48.263   7.727  18.999  0.00  0.00    +0.000 A 
ATOM     33  H   UNL     1      47.725  10.968  19.077  0.00  0.00    +0.000 HD
ENDBRANCH  20  23
ENDBRANCH  18  19
ENDBRANCH   4  18
TORSDOF 7
ENDMDL
MODEL 5
REMARK VINA RESULT:    -8.157      1.987      2.934
REMARK INTER + INTRA:         -12.400
REMARK INTER:                 -11.630
REMARK INTRA:                  -0.770
REMARK UNBOUND:                -0.906
REMARK  Name = 
REMARK  8 active torsions:
REMARK  status: ('A' for Active; 'I' for Inactive)
REMARK    1  A    between atoms: C_1  and  C_2
REMARK    2  A    between atoms: C_2  and  N_3
REMARK    3  A    between atoms: C_2  and  C_25
REMARK    4  A    between atoms: N_3  and  C_4
REMARK    5  A    between atoms: C_4  and  C_5
REMARK    6  A    between atoms: C_8  and  C_9
REMARK    7  A    between atoms: C_9  and  N_10
REMARK    8  A    between atoms: C_11  and  C_13
REMARK                            x       y       z     vdW  Elec       q    Type
REMARK                         _______ _______ _______ _____ _____    ______ ____
ROOT
ATOM      1  C   UNL     1      45.321   4.355  12.311  0.00  0.00    +0.000 A 
ATOM      2  N   UNL     1      45.960   3.941  13.425  0.00  0.00    +0.000 NA
ATOM      3  C   UNL     1      46.795   4.823  14.004  0.00  0.00    +0.000 A 
ATOM      4  C   UNL     1      47.024   6.093  13.524  0.00  0.00    +0.000 A 
ATOM      5  C   UNL     1      46.361   6.399  12.355  0.00  0.00    +0.000 A 
ATOM      6  N   UNL     1      45.502   5.562  11.735  0.00  0.00    +0.000 NA
ENDROOT
BRANCH   1   7
ATOM      7  C   UNL     1      44.341   3.392  11.654  0.00  0.00    +0.000 C 
BRANCH   7   8
ATOM      8  N   UNL     1      44.957   2.507  10.645  0.00  0.00    +0.000 NA
ATOM      9  H   UNL     1      44.703   1.544  10.867  0.00  0.00    +0.000 HD
BRANCH   8  11
ATOM     10  C   UNL     1      44.059   4.259   9.101  0.00  0.00    +0.000 C 
ATOM     11  C   UNL     1      44.531   2.807   9.272  0.00  0.00    +0.000 C 
BRANCH  11  12
ATOM     12  C   UNL     1      45.649   2.577   8.258  0.00  0.00    +0.000 A 
ATOM     13  C   UNL     1      46.293   1.328   8.216  0.00  0.00    +0.000 A 
ATOM     14  C   UNL     1      47.188   1.017   7.189  0.00  0.00    +0.000 A 
ATOM     15  C   UNL     1      47.465   1.956   6.199  0.00  0.00    +0.000 A 
ATOM     16  C   UNL     1      46.864   3.212   6.246  0.00  0.00    +0.000 A 
ATOM     17  C   UNL     1      45.961   3.521   7.265  0.00  0.00    +0.000 A 
ENDBRANCH  11  12
ENDBRANCH   8  11
ENDBRANCH   7   8
ENDBRANCH   1   7
BRANCH   4  18
ATOM     18  C   UNL     1      47.938   7.048  14.215  0.00  0.00    +0.000 C 
BRANCH  18  19
ATOM     19  N   UNL     1      48.328   6.570  15.514  0.00  0.00    +0.000 N 
ATOM     20  C   UNL     1      49.643   6.567  15.906  0.00  0.00    +0.000 C 
ATOM     21  O   UNL     1      50.534   6.967  15.162  0.00  0.00    +0.000 OA
ATOM     22  H   UNL     1      47.601   6.479  16.219  0.00  0.00    +0.000 HD
BRANCH  20  23
ATOM     23  C   UNL     1      49.938   5.987  17.223  0.00  0.00    +0.000 A 
ATOM     24  C   UNL     1      50.994   5.096  17.371  0.00  0.00    +0.000 A 
ATOM     25  S   UNL     1      51.023   4.325  18.893  0.00  0.00    +0.000 S 
ATOM     26  C   UNL     1      49.656   5.192  19.416  0.00  0.00    +0.000 A 
ATOM     27  N   UNL     1      49.073   4.938  20.621  0.00  0.00    +0.000 NA
ATOM     28  C   UNL     1      48.059   5.691  20.889  0.00  0.00    +0.000 A 
ATOM     29  N   UNL     1      47.600   6.703  20.090  0.00  0.00    +0.000 N 
ATOM     30  C   UNL     1      48.194   7.032  18.895  0.00  0.00    +0.000 A 
ATOM     31  O   UNL     1      47.854   8.022  18.257  0.00  0.00    +0.000 OA
ATOM     32  C   UNL     1      49.257   6.132  18.487  0.00  0.00    +0.000 A 
ATOM     33  H   UNL     1      46.852   7.308  20.394  0.00  0.00    +0.000 HD
ENDBRANCH  20  23
ENDBRANCH  18  19
ENDBRANCH   4  18
TORSDOF 7
ENDMDL
MODEL 6
REMARK VINA RESULT:    -7.910      1.737      2.416
REMARK INTER + INTRA:         -12.052
REMARK INTER:                 -10.929
REMARK INTRA:                  -1.123
REMARK UNBOUND:                -0.906
REMARK  Name = 
REMARK  8 active torsions:
REMARK  status: ('A' for Active; 'I' for Inactive)
REMARK    1  A    between atoms: C_1  and  C_2
REMARK    2  A    between atoms: C_2  and  N_3
REMARK    3  A    between atoms: C_2  and  C_25
REMARK    4  A    between atoms: N_3  and  C_4
REMARK    5  A    between atoms: C_4  and  C_5
REMARK    6  A    between atoms: C_8  and  C_9
REMARK    7  A    between atoms: C_9  and  N_10
REMARK    8  A    between atoms: C_11  and  C_13
REMARK                            x       y       z     vdW  Elec       q    Type
REMARK                         _______ _______ _______ _____ _____    ______ ____
ROOT
ATOM      1  C   UNL     1      46.950   4.511  14.090  0.00  0.00    +0.000 A 
ATOM      2  N   UNL     1      47.654   5.617  13.774  0.00  0.00    +0.000 NA
ATOM      3  C   UNL     1      48.321   6.214  14.778  0.00  0.00    +0.000 A 
ATOM      4  C   UNL     1      48.316   5.763  16.080  0.00  0.00    +0.000 A 
ATOM      5  C   UNL     1      47.525   4.656  16.305  0.00  0.00    +0.000 A 
ATOM      6  N   UNL     1      46.844   4.007  15.337  0.00  0.00    +0.000 NA
ENDROOT
BRANCH   1   7
ATOM      7  C   UNL     1      46.214   3.792  12.966  0.00  0.00    +0.000 C 
BRANCH   7   8
ATOM      8  N   UNL     1      44.743   3.888  13.056  0.00  0.00    +0.000 NA
ATOM      9  H   UNL     1      44.504   4.323  13.947  0.00  0.00    +0.000 HD
BRANCH   8  11
ATOM     10  C   UNL     1      44.614   6.136  11.964  0.00  0.00    +0.000 C 
ATOM     11  C   UNL     1      44.145   4.673  11.968  0.00  0.00    +0.000 C 
BRANCH  11  12
ATOM     12  C   UNL     1      44.470   4.095  10.593  0.00  0.00    +0.000 A 
ATOM     13  C   UNL     1      45.195   4.872   9.673  0.00  0.00    +0.000 A 
ATOM     14  C   UNL     1      45.669   4.316   8.482  0.00  0.00    +0.000 A 
ATOM     15  C   UNL     1      45.409   2.981   8.185  0.00  0.00    +0.000 A 
ATOM     16  C   UNL     1      44.659   2.206   9.067  0.00  0.00    +0.000 A 
ATOM     17  C   UNL     1      44.194   2.757  10.264  0.00  0.00    +0.000 A 
ENDBRANCH  11  12
ENDBRANCH   8  11
ENDBRANCH   7   8
ENDBRANCH   1   7
BRANCH   4  18
ATOM     18  C   UNL     1      49.093   6.441  17.156  0.00  0.00    +0.000 C 
BRANCH  18  19
ATOM     19  N   UNL     1      49.986   5.534  17.824  0.00  0.00    +0.000 N 
ATOM     20  C   UNL     1      51.310   5.449  17.469  0.00  0.00    +0.000 C 
ATOM     21  O   UNL     1      51.777   6.139  16.568  0.00  0.00    +0.000 OA
ATOM     22  H   UNL     1      49.689   5.152  18.718  0.00  0.00    +0.000 HD
BRANCH  20  23
ATOM     23  C   UNL     1      52.115   4.435  18.163  0.00  0.00    +0.000 A 
ATOM     24  C   UNL     1      53.095   4.824  19.068  0.00  0.00    +0.000 A 
ATOM     25  S   UNL     1      54.101   3.541  19.572  0.00  0.00    +0.000 S 
ATOM     26  C   UNL     1      53.230   2.420  18.633  0.00  0.00    +0.000 A 
ATOM     27  N   UNL     1      53.631   1.123  18.524  0.00  0.00    +0.000 NA
ATOM     28  C   UNL     1      52.857   0.389  17.797  0.00  0.00    +0.000 A 
ATOM     29  N   UNL     1      51.698   0.814  17.207  0.00  0.00    +0.000 N 
ATOM     30  C   UNL     1      51.226   2.098  17.340  0.00  0.00    +0.000 A 
ATOM     31  O   UNL     1      50.124   2.426  16.917  0.00  0.00    +0.000 OA
ATOM     32  C   UNL     1      52.125   2.997  18.038  0.00  0.00    +0.000 A 
ATOM     33  H   UNL     1      51.096   0.169  16.717  0.00  0.00    +0.000 HD
ENDBRANCH  20  23
ENDBRANCH  18  19
ENDBRANCH   4  18
TORSDOF 7
ENDMDL
MODEL 7
REMARK VINA RESULT:    -7.704      3.680      8.792
REMARK INTER + INTRA:         -11.762
REMARK INTER:                 -10.398
REMARK INTRA:                  -1.364
REMARK UNBOUND:                -0.906
REMARK  Name = 
REMARK  8 active torsions:
REMARK  status: ('A' for Active; 'I' for Inactive)
REMARK    1  A    between atoms: C_1  and  C_2
REMARK    2  A    between atoms: C_2  and  N_3
REMARK    3  A    between atoms: C_2  and  C_25
REMARK    4  A    between atoms: N_3  and  C_4
REMARK    5  A    between atoms: C_4  and  C_5
REMARK    6  A    between atoms: C_8  and  C_9
REMARK    7  A    between atoms: C_9  and  N_10
REMARK    8  A    between atoms: C_11  and  C_13
REMARK                            x       y       z     vdW  Elec       q    Type
REMARK                         _______ _______ _______ _____ _____    ______ ____
ROOT
ATOM      1  C   UNL     1      48.738   7.626  15.779  0.00  0.00    +0.000 A 
ATOM      2  N   UNL     1      48.335   8.794  15.237  0.00  0.00    +0.000 NA
ATOM      3  C   UNL     1      47.956   8.761  13.947  0.00  0.00    +0.000 A 
ATOM      4  C   UNL     1      47.962   7.621  13.173  0.00  0.00    +0.000 A 
ATOM      5  C   UNL     1      48.437   6.494  13.808  0.00  0.00    +0.000 A 
ATOM      6  N   UNL     1      48.820   6.462  15.102  0.00  0.00    +0.000 NA
ENDROOT
BRANCH   1   7
ATOM      7  C   UNL     1      49.138   7.625  17.249  0.00  0.00    +0.000 C 
BRANCH   7   8
ATOM      8  N   UNL     1      48.039   7.268  18.169  0.00  0.00    +0.000 NA
ATOM      9  H   UNL     1      47.234   6.985  17.611  0.00  0.00    +0.000 HD
BRANCH   8  11
ATOM     10  C   UNL     1      47.382   6.041  20.248  0.00  0.00    +0.000 C 
ATOM     11  C   UNL     1      48.385   6.180  19.092  0.00  0.00    +0.000 C 
BRANCH  11  12
ATOM     12  C   UNL     1      48.450   4.826  18.390  0.00  0.00    +0.000 A 
ATOM     13  C   UNL     1      47.337   4.375  17.660  0.00  0.00    +0.000 A 
ATOM     14  C   UNL     1      47.420   3.236  16.856  0.00  0.00    +0.000 A 
ATOM     15  C   UNL     1      48.612   2.521  16.784  0.00  0.00    +0.000 A 
ATOM     16  C   UNL     1      49.715   2.931  17.530  0.00  0.00    +0.000 A 
ATOM     17  C   UNL     1      49.637   4.076  18.325  0.00  0.00    +0.000 A 
ENDBRANCH  11  12
ENDBRANCH   8  11
ENDBRANCH   7   8
ENDBRANCH   1   7
BRANCH   4  18
ATOM     18  C   UNL     1      47.506   7.626  11.753  0.00  0.00    +0.000 C 
BRANCH  18  19
ATOM     19  N   UNL     1      46.773   6.434  11.423  0.00  0.00    +0.000 N 
ATOM     20  C   UNL     1      45.401   6.430  11.384  0.00  0.00    +0.000 C 
ATOM     21  O   UNL     1      44.750   7.441  11.633  0.00  0.00    +0.000 OA
ATOM     22  H   UNL     1      47.282   5.677  10.975  0.00  0.00    +0.000 HD
BRANCH  20  23
ATOM     23  C   UNL     1      44.751   5.141  11.111  0.00  0.00    +0.000 A 
ATOM     24  C   UNL     1      43.807   4.636  11.996  0.00  0.00    +0.000 A 
ATOM     25  S   UNL     1      43.359   3.023  11.663  0.00  0.00    +0.000 S 
ATOM     26  C   UNL     1      44.377   2.967  10.301  0.00  0.00    +0.000 A 
ATOM     27  N   UNL     1      44.553   1.816   9.594  0.00  0.00    +0.000 NA
ATOM     28  C   UNL     1      45.335   1.935   8.574  0.00  0.00    +0.000 A 
ATOM     29  N   UNL     1      45.922   3.103   8.166  0.00  0.00    +0.000 N 
ATOM     30  C   UNL     1      45.724   4.298   8.815  0.00  0.00    +0.000 A 
ATOM     31  O   UNL     1      46.148   5.355   8.362  0.00  0.00    +0.000 OA
ATOM     32  C   UNL     1      44.958   4.194  10.043  0.00  0.00    +0.000 A 
ATOM     33  H   UNL     1      46.459   3.145   7.313  0.00  0.00    +0.000 HD
ENDBRANCH  20  23
ENDBRANCH  18  19
ENDBRANCH   4  18
TORSDOF 7
ENDMDL
MODEL 8
REMARK VINA RESULT:    -7.481      3.784      8.554
REMARK INTER + INTRA:         -11.447
REMARK INTER:                 -10.020
REMARK INTRA:                  -1.428
REMARK UNBOUND:                -0.906
REMARK  Name = 
REMARK  8 active torsions:
REMARK  status: ('A' for Active; 'I' for Inactive)
REMARK    1  A    between atoms: C_1  and  C_2
REMARK    2  A    between atoms: C_2  and  N_3
REMARK    3  A    between atoms: C_2  and  C_25
REMARK    4  A    between atoms: N_3  and  C_4
REMARK    5  A    between atoms: C_4  and  C_5
REMARK    6  A    between atoms: C_8  and  C_9
REMARK    7  A    between atoms: C_9  and  N_10
REMARK    8  A    between atoms: C_11  and  C_13
REMARK                            x       y       z     vdW  Elec       q    Type
REMARK                         _______ _______ _______ _____ _____    ______ ____
ROOT
ATOM      1  C   UNL     1      48.893   7.808  16.051  0.00  0.00    +0.000 A 
ATOM      2  N   UNL     1      49.167   6.750  15.260  0.00  0.00    +0.000 NA
ATOM      3  C   UNL     1      48.948   6.909  13.943  0.00  0.00    +0.000 A 
ATOM      4  C   UNL     1      48.466   8.069  13.378  0.00  0.00    +0.000 A 
ATOM      5  C   UNL     1      48.171   9.071  14.278  0.00  0.00    +0.000 A 
ATOM      6  N   UNL     1      48.381   8.975  15.608  0.00  0.00    +0.000 NA
ENDROOT
BRANCH   1   7
ATOM      7  C   UNL     1      49.166   7.671  17.543  0.00  0.00    +0.000 C 
BRANCH   7   8
ATOM      8  N   UNL     1      47.992   7.242  18.330  0.00  0.00    +0.000 NA
ATOM      9  H   UNL     1      47.247   6.990  17.681  0.00  0.00    +0.000 HD
BRANCH   8  11
ATOM     10  C   UNL     1      47.198   5.912  20.295  0.00  0.00    +0.000 C 
ATOM     11  C   UNL     1      48.268   6.097  19.208  0.00  0.00    +0.000 C 
BRANCH  11  12
ATOM     12  C   UNL     1      48.352   4.784  18.434  0.00  0.00    +0.000 A 
ATOM     13  C   UNL     1      47.270   4.390  17.628  0.00  0.00    +0.000 A 
ATOM     14  C   UNL     1      47.380   3.296  16.765  0.00  0.00    +0.000 A 
ATOM     15  C   UNL     1      48.566   2.570  16.709  0.00  0.00    +0.000 A 
ATOM     16  C   UNL     1      49.636   2.924  17.529  0.00  0.00    +0.000 A 
ATOM     17  C   UNL     1      49.532   4.024  18.383  0.00  0.00    +0.000 A 
ENDBRANCH  11  12
ENDBRANCH   8  11
ENDBRANCH   7   8
ENDBRANCH   1   7
BRANCH   4  18
ATOM     18  C   UNL     1      48.264   8.210  11.908  0.00  0.00    +0.000 C 
BRANCH  18  19
ATOM     19  N   UNL     1      47.636   7.047  11.340  0.00  0.00    +0.000 N 
ATOM     20  C   UNL     1      46.269   6.933  11.283  0.00  0.00    +0.000 C 
ATOM     21  O   UNL     1      45.534   7.816  11.717  0.00  0.00    +0.000 OA
ATOM     22  H   UNL     1      48.207   6.439  10.759  0.00  0.00    +0.000 HD
BRANCH  20  23
ATOM     23  C   UNL     1      45.733   5.672  10.754  0.00  0.00    +0.000 A 
ATOM     24  C   UNL     1      45.797   5.404   9.393  0.00  0.00    +0.000 A 
ATOM     25  S   UNL     1      44.897   4.030   8.928  0.00  0.00    +0.000 S 
ATOM     26  C   UNL     1      44.434   3.726  10.537  0.00  0.00    +0.000 A 
ATOM     27  N   UNL     1      43.557   2.731  10.846  0.00  0.00    +0.000 NA
ATOM     28  C   UNL     1      43.320   2.606  12.109  0.00  0.00    +0.000 A 
ATOM     29  N   UNL     1      43.911   3.349  13.095  0.00  0.00    +0.000 N 
ATOM     30  C   UNL     1      44.845   4.322  12.832  0.00  0.00    +0.000 A 
ATOM     31  O   UNL     1      45.459   4.885  13.731  0.00  0.00    +0.000 OA
ATOM     32  C   UNL     1      45.049   4.590  11.421  0.00  0.00    +0.000 A 
ATOM     33  H   UNL     1      43.743   3.147  14.070  0.00  0.00    +0.000 HD
ENDBRANCH  20  23
ENDBRANCH  18  19
ENDBRANCH   4  18
TORSDOF 7
ENDMDL
MODEL 9
REMARK VINA RESULT:    -7.184      3.418      9.135
REMARK INTER + INTRA:         -11.030
REMARK INTER:                 -10.028
REMARK INTRA:                  -1.002
REMARK UNBOUND:                -0.906
REMARK  Name = 
REMARK  8 active torsions:
REMARK  status: ('A' for Active; 'I' for Inactive)
REMARK    1  A    between atoms: C_1  and  C_2
REMARK    2  A    between atoms: C_2  and  N_3
REMARK    3  A    between atoms: C_2  and  C_25
REMARK    4  A    between atoms: N_3  and  C_4
REMARK    5  A    between atoms: C_4  and  C_5
REMARK    6  A    between atoms: C_8  and  C_9
REMARK    7  A    between atoms: C_9  and  N_10
REMARK    8  A    between atoms: C_11  and  C_13
REMARK                            x       y       z     vdW  Elec       q    Type
REMARK                         _______ _______ _______ _____ _____    ______ ____
ROOT
ATOM      1  C   UNL     1      49.336   7.093  15.636  0.00  0.00    +0.000 A 
ATOM      2  N   UNL     1      48.617   6.057  15.157  0.00  0.00    +0.000 NA
ATOM      3  C   UNL     1      48.029   6.233  13.960  0.00  0.00    +0.000 A 
ATOM      4  C   UNL     1      48.122   7.393  13.222  0.00  0.00    +0.000 A 
ATOM      5  C   UNL     1      48.838   8.406  13.823  0.00  0.00    +0.000 A 
ATOM      6  N   UNL     1      49.460   8.284  15.015  0.00  0.00    +0.000 NA
ENDROOT
BRANCH   1   7
ATOM      7  C   UNL     1      50.044   6.909  16.972  0.00  0.00    +0.000 C 
BRANCH   7   8
ATOM      8  N   UNL     1      51.314   6.162  16.880  0.00  0.00    +0.000 NA
ATOM      9  H   UNL     1      52.069   6.832  16.732  0.00  0.00    +0.000 HD
BRANCH   8  11
ATOM     10  C   UNL     1      50.550   5.536  19.179  0.00  0.00    +0.000 C 
ATOM     11  C   UNL     1      51.610   5.368  18.079  0.00  0.00    +0.000 C 
BRANCH  11  12
ATOM     12  C   UNL     1      51.707   3.875  17.773  0.00  0.00    +0.000 A 
ATOM     13  C   UNL     1      52.897   3.188  18.068  0.00  0.00    +0.000 A 
ATOM     14  C   UNL     1      52.962   1.795  17.975  0.00  0.00    +0.000 A 
ATOM     15  C   UNL     1      51.844   1.072  17.570  0.00  0.00    +0.000 A 
ATOM     16  C   UNL     1      50.667   1.739  17.238  0.00  0.00    +0.000 A 
ATOM     17  C   UNL     1      50.597   3.130  17.341  0.00  0.00    +0.000 A 
ENDBRANCH  11  12
ENDBRANCH   8  11
ENDBRANCH   7   8
ENDBRANCH   1   7
BRANCH   4  18
ATOM     18  C   UNL     1      47.476   7.534  11.885  0.00  0.00    +0.000 C 
BRANCH  18  19
ATOM     19  N   UNL     1      46.736   6.356  11.521  0.00  0.00    +0.000 N 
ATOM     20  C   UNL     1      45.364   6.344  11.541  0.00  0.00    +0.000 C 
ATOM     21  O   UNL     1      44.719   7.334  11.873  0.00  0.00    +0.000 OA
ATOM     22  H   UNL     1      47.230   5.629  11.011  0.00  0.00    +0.000 HD
BRANCH  20  23
ATOM     23  C   UNL     1      44.711   5.066  11.226  0.00  0.00    +0.000 A 
ATOM     24  C   UNL     1      43.794   4.515  12.112  0.00  0.00    +0.000 A 
ATOM     25  S   UNL     1      43.341   2.918  11.716  0.00  0.00    +0.000 S 
ATOM     26  C   UNL     1      44.320   2.931  10.324  0.00  0.00    +0.000 A 
ATOM     27  N   UNL     1      44.479   1.816   9.558  0.00  0.00    +0.000 NA
ATOM     28  C   UNL     1      45.231   1.987   8.523  0.00  0.00    +0.000 A 
ATOM     29  N   UNL     1      45.802   3.175   8.155  0.00  0.00    +0.000 N 
ATOM     30  C   UNL     1      45.620   4.338   8.865  0.00  0.00    +0.000 A 
ATOM     31  O   UNL     1      46.027   5.416   8.451  0.00  0.00    +0.000 OA
ATOM     32  C   UNL     1      44.889   4.171  10.108  0.00  0.00    +0.000 A 
ATOM     33  H   UNL     1      46.315   3.261   7.289  0.00  0.00    +0.000 HD
ENDBRANCH  20  23
ENDBRANCH  18  19
ENDBRANCH   4  18
TORSDOF 7
ENDMDL
