MODEL 1
REMARK VINA RESULT:    -7.497      0.000      0.000
REMARK INTER + INTRA:          -9.385
REMARK INTER:                  -9.031
REMARK INTRA:                  -0.354
REMARK UNBOUND:                -0.354
REMARK  Name = 
REMARK  4 active torsions:
REMARK  status: ('A' for Active; 'I' for Inactive)
REMARK    1  A    between atoms: N_1  and  C_2
REMARK    2  A    between atoms: C_2  and  C_3
REMARK    3  A    between atoms: N_7  and  C_8
REMARK    4  A    between atoms: C_8  and  C_9
REMARK                            x       y       z     vdW  Elec       q    Type
REMARK                         _______ _______ _______ _____ _____    ______ ____
ROOT
ATOM      1  C   UNL     1      46.191   4.643  13.104  0.00  0.00    +0.000 A 
ATOM      2  C   UNL     1      46.487   5.766  12.333  0.00  0.00    +0.000 A 
ATOM      3  C   UNL     1      46.048   5.832  11.012  0.00  0.00    +0.000 A 
ATOM      4  C   UNL     1      45.353   4.756  10.463  0.00  0.00    +0.000 A 
ATOM      5  N   UNL     1      45.030   4.825   9.104  0.00  0.00    +0.000 N 
ATOM      6  N   UNL     1      45.047   3.666  11.194  0.00  0.00    +0.000 NA
ATOM      7  C   UNL     1      45.458   3.638  12.486  0.00  0.00    +0.000 A 
ATOM      8  H   UNL     1      44.399   5.602   8.939  0.00  0.00    +0.000 HD
ENDROOT
BRANCH   1   9
ATOM      9  C   UNL     1      46.693   4.500  14.511  0.00  0.00    +0.000 C 
BRANCH   9  10
ATOM     10  N   UNL     1      47.387   3.235  14.718  0.00  0.00    +0.000 NA
ATOM     11  H   UNL     1      47.516   2.773  13.820  0.00  0.00    +0.000 HD
ATOM     12  H   UNL     1      46.798   2.619  15.276  0.00  0.00    +0.000 HD
ENDBRANCH   9  10
ENDBRANCH   1   9
BRANCH   5  13
ATOM     13  C   UNL     1      44.574   3.587   8.500  0.00  0.00    +0.000 C 
BRANCH  13  14
ATOM     14  C   UNL     1      45.779   2.875   7.929  0.00  0.00    +0.000 A 
ATOM     15  C   UNL     1      46.661   3.547   7.080  0.00  0.00    +0.000 A 
ATOM     16  C   UNL     1      47.741   2.859   6.553  0.00  0.00    +0.000 A 
ATOM     17  N   UNL     1      47.993   1.554   6.805  0.00  0.00    +0.000 NA
ATOM     18  C   UNL     1      47.118   0.918   7.614  0.00  0.00    +0.000 A 
ATOM     19  C   UNL     1      46.012   1.523   8.191  0.00  0.00    +0.000 A 
ENDBRANCH  13  14
ENDBRANCH   5  13
TORSDOF 4
ENDMDL
MODEL 2
REMARK VINA RESULT:    -7.074      1.236      5.846
REMARK INTER + INTRA:          -8.874
REMARK INTER:                  -8.546
REMARK INTRA:                  -0.328
REMARK UNBOUND:                -0.354
REMARK  Name = 
REMARK  4 active torsions:
REMARK  status: ('A' for Active; 'I' for Inactive)
REMARK    1  A    between atoms: N_1  and  C_2
REMARK    2  A    between atoms: C_2  and  C_3
REMARK    3  A    between atoms: N_7  and  C_8
REMARK    4  A    between atoms: C_8  and  C_9
REMARK                            x       y       z     vdW  Elec       q    Type
REMARK                         _______ _______ _______ _____ _____    ______ ____
ROOT
ATOM      1  C   UNL     1      46.541   2.607   6.802  0.00  0.00    +0.000 A 
ATOM      2  C   UNL     1      46.460   1.451   7.576  0.00  0.00    +0.000 A 
ATOM      3  C   UNL     1      45.669   1.443   8.723  0.00  0.00    +0.000 A 
ATOM      4  C   UNL     1      45.000   2.603   9.106  0.00  0.00    +0.000 A 
ATOM      5  N   UNL     1      44.307   2.575  10.321  0.00  0.00    +0.000 N 
ATOM      6  N   UNL     1      45.055   3.727   8.366  0.00  0.00    +0.000 NA
ATOM      7  C   UNL     1      45.807   3.703   7.238  0.00  0.00    +0.000 A 
ATOM      8  H   UNL     1      43.558   1.893  10.274  0.00  0.00    +0.000 HD
ENDROOT
BRANCH   1   9
ATOM      9  C   UNL     1      47.427   2.684   5.592  0.00  0.00    +0.000 C 
BRANCH   9  10
ATOM     10  N   UNL     1      48.570   1.784   5.693  0.00  0.00    +0.000 NA
ATOM     11  H   UNL     1      49.421   2.296   5.467  0.00  0.00    +0.000 HD
ATOM     12  H   UNL     1      48.481   1.051   4.992  0.00  0.00    +0.000 HD
ENDBRANCH   9  10
ENDBRANCH   1   9
BRANCH   5  13
ATOM     13  C   UNL     1      43.872   3.862  10.829  0.00  0.00    +0.000 C 
BRANCH  13  14
ATOM     14  C   UNL     1      44.989   4.433  11.672  0.00  0.00    +0.000 A 
ATOM     15  C   UNL     1      45.523   5.690  11.379  0.00  0.00    +0.000 A 
ATOM     16  C   UNL     1      46.563   6.175  12.154  0.00  0.00    +0.000 A 
ATOM     17  N   UNL     1      47.108   5.492  13.187  0.00  0.00    +0.000 NA
ATOM     18  C   UNL     1      46.590   4.271  13.441  0.00  0.00    +0.000 A 
ATOM     19  C   UNL     1      45.547   3.704  12.724  0.00  0.00    +0.000 A 
ENDBRANCH  13  14
ENDBRANCH   5  13
TORSDOF 4
ENDMDL
MODEL 3
REMARK VINA RESULT:    -6.606      1.687      2.484
REMARK INTER + INTRA:          -8.312
REMARK INTER:                  -8.001
REMARK INTRA:                  -0.311
REMARK UNBOUND:                -0.354
REMARK  Name = 
REMARK  4 active torsions:
REMARK  status: ('A' for Active; 'I' for Inactive)
REMARK    1  A    between atoms: N_1  and  C_2
REMARK    2  A    between atoms: C_2  and  C_3
REMARK    3  A    between atoms: N_7  and  C_8
REMARK    4  A    between atoms: C_8  and  C_9
REMARK                            x       y       z     vdW  Elec       q    Type
REMARK                         _______ _______ _______ _____ _____    ______ ____
ROOT
ATOM      1  C   UNL     1      45.740   6.265  12.262  0.00  0.00    +0.000 A 
ATOM      2  C   UNL     1      45.058   5.140  12.723  0.00  0.00    +0.000 A 
ATOM      3  C   UNL     1      44.715   4.128  11.830  0.00  0.00    +0.000 A 
ATOM      4  C   UNL     1      45.019   4.270  10.478  0.00  0.00    +0.000 A 
ATOM      5  N   UNL     1      44.557   3.278   9.606  0.00  0.00    +0.000 N 
ATOM      6  N   UNL     1      45.687   5.344  10.013  0.00  0.00    +0.000 NA
ATOM      7  C   UNL     1      46.038   6.302  10.906  0.00  0.00    +0.000 A 
ATOM      8  H   UNL     1      44.989   2.389   9.837  0.00  0.00    +0.000 HD
ENDROOT
BRANCH   1   9
ATOM      9  C   UNL     1      46.078   7.409  13.174  0.00  0.00    +0.000 C 
BRANCH   9  10
ATOM     10  N   UNL     1      45.222   8.566  12.941  0.00  0.00    +0.000 NA
ATOM     11  H   UNL     1      44.359   8.457  13.471  0.00  0.00    +0.000 HD
ATOM     12  H   UNL     1      44.954   8.591  11.959  0.00  0.00    +0.000 HD
ENDBRANCH   9  10
ENDBRANCH   1   9
BRANCH   5  13
ATOM     13  C   UNL     1      44.633   3.594   8.193  0.00  0.00    +0.000 C 
BRANCH  13  14
ATOM     14  C   UNL     1      45.770   2.797   7.596  0.00  0.00    +0.000 A 
ATOM     15  C   UNL     1      46.094   1.537   8.106  0.00  0.00    +0.000 A 
ATOM     16  C   UNL     1      47.157   0.842   7.554  0.00  0.00    +0.000 A 
ATOM     17  N   UNL     1      47.920   1.320   6.544  0.00  0.00    +0.000 NA
ATOM     18  C   UNL     1      47.602   2.547   6.079  0.00  0.00    +0.000 A 
ATOM     19  C   UNL     1      46.555   3.315   6.563  0.00  0.00    +0.000 A 
ENDBRANCH  13  14
ENDBRANCH   5  13
TORSDOF 4
ENDMDL
MODEL 4
REMARK VINA RESULT:    -6.300      1.534      2.080
REMARK INTER + INTRA:          -7.943
REMARK INTER:                  -7.670
REMARK INTRA:                  -0.273
REMARK UNBOUND:                -0.354
REMARK  Name = 
REMARK  4 active torsions:
REMARK  status: ('A' for Active; 'I' for Inactive)
REMARK    1  A    between atoms: N_1  and  C_2
REMARK    2  A    between atoms: C_2  and  C_3
REMARK    3  A    between atoms: N_7  and  C_8
REMARK    4  A    between atoms: C_8  and  C_9
REMARK                            x       y       z     vdW  Elec       q    Type
REMARK                         _______ _______ _______ _____ _____    ______ ____
ROOT
ATOM      1  C   UNL     1      46.875   6.352  13.013  0.00  0.00    +0.000 A 
ATOM      2  C   UNL     1      46.366   7.232  12.058  0.00  0.00    +0.000 A 
ATOM      3  C   UNL     1      45.451   6.771  11.114  0.00  0.00    +0.000 A 
ATOM      4  C   UNL     1      45.086   5.427  11.108  0.00  0.00    +0.000 A 
ATOM      5  N   UNL     1      44.250   4.992  10.074  0.00  0.00    +0.000 N 
ATOM      6  N   UNL     1      45.557   4.563  12.028  0.00  0.00    +0.000 NA
ATOM      7  C   UNL     1      46.423   5.040  12.955  0.00  0.00    +0.000 A 
ATOM      8  H   UNL     1      43.354   5.464  10.135  0.00  0.00    +0.000 HD
ENDROOT
BRANCH   1   9
ATOM      9  C   UNL     1      47.908   6.787  14.012  0.00  0.00    +0.000 C 
BRANCH   9  10
ATOM     10  N   UNL     1      49.265   6.579  13.521  0.00  0.00    +0.000 NA
ATOM     11  H   UNL     1      49.588   5.657  13.807  0.00  0.00    +0.000 HD
ATOM     12  H   UNL     1      49.887   7.252  13.966  0.00  0.00    +0.000 HD
ENDBRANCH   9  10
ENDBRANCH   1   9
BRANCH   5  13
ATOM     13  C   UNL     1      44.125   3.555   9.926  0.00  0.00    +0.000 C 
BRANCH  13  14
ATOM     14  C   UNL     1      45.124   3.104   8.885  0.00  0.00    +0.000 A 
ATOM     15  C   UNL     1      45.520   1.766   8.819  0.00  0.00    +0.000 A 
ATOM     16  C   UNL     1      46.457   1.389   7.870  0.00  0.00    +0.000 A 
ATOM     17  N   UNL     1      47.028   2.252   6.998  0.00  0.00    +0.000 NA
ATOM     18  C   UNL     1      46.645   3.543   7.092  0.00  0.00    +0.000 A 
ATOM     19  C   UNL     1      45.713   4.014   8.004  0.00  0.00    +0.000 A 
ENDBRANCH  13  14
ENDBRANCH   5  13
TORSDOF 4
ENDMDL
MODEL 5
REMARK VINA RESULT:    -5.999      1.531      6.090
REMARK INTER + INTRA:          -7.580
REMARK INTER:                  -7.237
REMARK INTRA:                  -0.343
REMARK UNBOUND:                -0.354
REMARK  Name = 
REMARK  4 active torsions:
REMARK  status: ('A' for Active; 'I' for Inactive)
REMARK    1  A    between atoms: N_1  and  C_2
REMARK    2  A    between atoms: C_2  and  C_3
REMARK    3  A    between atoms: N_7  and  C_8
REMARK    4  A    between atoms: C_8  and  C_9
REMARK                            x       y       z     vdW  Elec       q    Type
REMARK                         _______ _______ _______ _____ _____    ______ ____
ROOT
ATOM      1  C   UNL     1      45.616   3.248   8.186  0.00  0.00    +0.000 A 
ATOM      2  C   UNL     1      44.981   2.342   9.033  0.00  0.00    +0.000 A 
ATOM      3  C   UNL     1      44.422   2.790  10.228  0.00  0.00    +0.000 A 
ATOM      4  C   UNL     1      44.540   4.132  10.583  0.00  0.00    +0.000 A 
ATOM      5  N   UNL     1      44.058   4.509  11.841  0.00  0.00    +0.000 N 
ATOM      6  N   UNL     1      45.140   5.026   9.774  0.00  0.00    +0.000 NA
ATOM      7  C   UNL     1      45.651   4.573   8.602  0.00  0.00    +0.000 A 
ATOM      8  H   UNL     1      43.056   4.357  11.885  0.00  0.00    +0.000 HD
ENDROOT
BRANCH   1   9
ATOM      9  C   UNL     1      46.286   2.804   6.918  0.00  0.00    +0.000 C 
BRANCH   9  10
ATOM     10  N   UNL     1      46.963   3.904   6.242  0.00  0.00    +0.000 NA
ATOM     11  H   UNL     1      47.952   3.680   6.145  0.00  0.00    +0.000 HD
ATOM     12  H   UNL     1      46.913   4.736   6.827  0.00  0.00    +0.000 HD
ENDBRANCH   9  10
ENDBRANCH   1   9
BRANCH   5  13
ATOM     13  C   UNL     1      44.452   5.829  12.297  0.00  0.00    +0.000 C 
BRANCH  13  14
ATOM     14  C   UNL     1      45.738   5.688  13.080  0.00  0.00    +0.000 A 
ATOM     15  C   UNL     1      45.897   4.646  13.996  0.00  0.00    +0.000 A 
ATOM     16  C   UNL     1      47.078   4.560  14.715  0.00  0.00    +0.000 A 
ATOM     17  N   UNL     1      48.096   5.441  14.592  0.00  0.00    +0.000 NA
ATOM     18  C   UNL     1      47.913   6.452  13.715  0.00  0.00    +0.000 A 
ATOM     19  C   UNL     1      46.771   6.619  12.948  0.00  0.00    +0.000 A 
ENDBRANCH  13  14
ENDBRANCH   5  13
TORSDOF 4
ENDMDL
MODEL 6
REMARK VINA RESULT:    -5.698      3.141      7.281
REMARK INTER + INTRA:          -7.217
REMARK INTER:                  -6.942
REMARK INTRA:                  -0.275
REMARK UNBOUND:                -0.354
REMARK  Name = 
REMARK  4 active torsions:
REMARK  status: ('A' for Active; 'I' for Inactive)
REMARK    1  A    between atoms: N_1  and  C_2
REMARK    2  A    between atoms: C_2  and  C_3
REMARK    3  A    between atoms: N_7  and  C_8
REMARK    4  A    between atoms: C_8  and  C_9
REMARK                            x       y       z     vdW  Elec       q    Type
REMARK                         _______ _______ _______ _____ _____    ______ ____
ROOT
ATOM      1  C   UNL     1      45.321   4.465  11.616  0.00  0.00    +0.000 A 
ATOM      2  C   UNL     1      45.840   5.718  11.940  0.00  0.00    +0.000 A 
ATOM      3  C   UNL     1      46.523   5.891  13.142  0.00  0.00    +0.000 A 
ATOM      4  C   UNL     1      46.643   4.822  14.026  0.00  0.00    +0.000 A 
ATOM      5  N   UNL     1      47.241   5.075  15.265  0.00  0.00    +0.000 N 
ATOM      6  N   UNL     1      46.159   3.600  13.727  0.00  0.00    +0.000 NA
ATOM      7  C   UNL     1      45.524   3.448  12.539  0.00  0.00    +0.000 A 
ATOM      8  H   UNL     1      48.206   5.359  15.130  0.00  0.00    +0.000 HD
ENDROOT
BRANCH   1   9
ATOM      9  C   UNL     1      44.526   4.244  10.362  0.00  0.00    +0.000 C 
BRANCH   9  10
ATOM     10  N   UNL     1      43.418   5.184  10.243  0.00  0.00    +0.000 NA
ATOM     11  H   UNL     1      42.788   5.061  11.034  0.00  0.00    +0.000 HD
ATOM     12  H   UNL     1      42.878   4.960   9.409  0.00  0.00    +0.000 HD
ENDBRANCH   9  10
ENDBRANCH   1   9
BRANCH   5  13
ATOM     13  C   UNL     1      47.092   4.033  16.263  0.00  0.00    +0.000 C 
BRANCH  13  14
ATOM     14  C   UNL     1      48.469   3.672  16.771  0.00  0.00    +0.000 A 
ATOM     15  C   UNL     1      49.304   4.654  17.308  0.00  0.00    +0.000 A 
ATOM     16  C   UNL     1      50.570   4.295  17.740  0.00  0.00    +0.000 A 
ATOM     17  N   UNL     1      51.058   3.036  17.665  0.00  0.00    +0.000 NA
ATOM     18  C   UNL     1      50.242   2.106  17.126  0.00  0.00    +0.000 A 
ATOM     19  C   UNL     1      48.959   2.367  16.669  0.00  0.00    +0.000 A 
ENDBRANCH  13  14
ENDBRANCH   5  13
TORSDOF 4
ENDMDL
MODEL 7
REMARK VINA RESULT:    -5.429      1.821      2.500
REMARK INTER + INTRA:          -6.893
REMARK INTER:                  -6.668
REMARK INTRA:                  -0.225
REMARK UNBOUND:                -0.354
REMARK  Name = 
REMARK  4 active torsions:
REMARK  status: ('A' for Active; 'I' for Inactive)
REMARK    1  A    between atoms: N_1  and  C_2
REMARK    2  A    between atoms: C_2  and  C_3
REMARK    3  A    between atoms: N_7  and  C_8
REMARK    4  A    between atoms: C_8  and  C_9
REMARK                            x       y       z     vdW  Elec       q    Type
REMARK                         _______ _______ _______ _____ _____    ______ ____
ROOT
ATOM      1  C   UNL     1      47.389   5.981  13.779  0.00  0.00    +0.000 A 
ATOM      2  C   UNL     1      46.837   4.863  14.402  0.00  0.00    +0.000 A 
ATOM      3  C   UNL     1      45.992   4.020  13.684  0.00  0.00    +0.000 A 
ATOM      4  C   UNL     1      45.674   4.326  12.363  0.00  0.00    +0.000 A 
ATOM      5  N   UNL     1      44.736   3.510  11.721  0.00  0.00    +0.000 N 
ATOM      6  N   UNL     1      46.205   5.395  11.739  0.00  0.00    +0.000 NA
ATOM      7  C   UNL     1      47.048   6.185  12.448  0.00  0.00    +0.000 A 
ATOM      8  H   UNL     1      45.097   2.564  11.648  0.00  0.00    +0.000 HD
ENDROOT
BRANCH   1   9
ATOM      9  C   UNL     1      48.256   6.952  14.527  0.00  0.00    +0.000 C 
BRANCH   9  10
ATOM     10  N   UNL     1      47.631   8.264  14.647  0.00  0.00    +0.000 NA
ATOM     11  H   UNL     1      47.493   8.655  13.717  0.00  0.00    +0.000 HD
ATOM     12  H   UNL     1      48.268   8.894  15.132  0.00  0.00    +0.000 HD
ENDBRANCH   9  10
ENDBRANCH   1   9
BRANCH   5  13
ATOM     13  C   UNL     1      44.213   4.016  10.467  0.00  0.00    +0.000 C 
BRANCH  13  14
ATOM     14  C   UNL     1      45.047   3.438   9.346  0.00  0.00    +0.000 A 
ATOM     15  C   UNL     1      45.530   4.263   8.327  0.00  0.00    +0.000 A 
ATOM     16  C   UNL     1      46.269   3.699   7.301  0.00  0.00    +0.000 A 
ATOM     17  N   UNL     1      46.548   2.378   7.217  0.00  0.00    +0.000 NA
ATOM     18  C   UNL     1      46.056   1.596   8.202  0.00  0.00    +0.000 A 
ATOM     19  C   UNL     1      45.310   2.068   9.271  0.00  0.00    +0.000 A 
ENDBRANCH  13  14
ENDBRANCH   5  13
TORSDOF 4
ENDMDL
MODEL 8
REMARK VINA RESULT:    -5.088      3.519      6.022
REMARK INTER + INTRA:          -6.483
REMARK INTER:                  -6.219
REMARK INTRA:                  -0.264
REMARK UNBOUND:                -0.354
REMARK  Name = 
REMARK  4 active torsions:
REMARK  status: ('A' for Active; 'I' for Inactive)
REMARK    1  A    between atoms: N_1  and  C_2
REMARK    2  A    between atoms: C_2  and  C_3
REMARK    3  A    between atoms: N_7  and  C_8
REMARK    4  A    between atoms: C_8  and  C_9
REMARK                            x       y       z     vdW  Elec       q    Type
REMARK                         _______ _______ _______ _____ _____    ______ ____
ROOT
ATOM      1  C   UNL     1      44.557   4.087  11.509  0.00  0.00    +0.000 A 
ATOM      2  C   UNL     1      45.304   3.884  12.668  0.00  0.00    +0.000 A 
ATOM      3  C   UNL     1      45.907   4.970  13.299  0.00  0.00    +0.000 A 
ATOM      4  C   UNL     1      45.791   6.242  12.742  0.00  0.00    +0.000 A 
ATOM      5  N   UNL     1      46.504   7.279  13.352  0.00  0.00    +0.000 N 
ATOM      6  N   UNL     1      45.064   6.461  11.629  0.00  0.00    +0.000 NA
ATOM      7  C   UNL     1      44.461   5.394  11.049  0.00  0.00    +0.000 A 
ATOM      8  H   UNL     1      46.164   7.421  14.297  0.00  0.00    +0.000 HD
ENDROOT
BRANCH   1   9
ATOM      9  C   UNL     1      43.939   2.941  10.761  0.00  0.00    +0.000 C 
BRANCH   9  10
ATOM     10  N   UNL     1      43.026   2.171  11.596  0.00  0.00    +0.000 NA
ATOM     11  H   UNL     1      42.534   1.492  11.017  0.00  0.00    +0.000 HD
ATOM     12  H   UNL     1      42.314   2.794  11.974  0.00  0.00    +0.000 HD
ENDBRANCH   9  10
ENDBRANCH   1   9
BRANCH   5  13
ATOM     13  C   UNL     1      46.598   8.512  12.593  0.00  0.00    +0.000 C 
BRANCH  13  14
ATOM     14  C   UNL     1      48.033   8.677  12.146  0.00  0.00    +0.000 A 
ATOM     15  C   UNL     1      48.518   9.935  11.780  0.00  0.00    +0.000 A 
ATOM     16  C   UNL     1      49.831  10.048  11.351  0.00  0.00    +0.000 A 
ATOM     17  N   UNL     1      50.680   9.000  11.254  0.00  0.00    +0.000 NA
ATOM     18  C   UNL     1      50.185   7.791  11.594  0.00  0.00    +0.000 A 
ATOM     19  C   UNL     1      48.888   7.578  12.038  0.00  0.00    +0.000 A 
ENDBRANCH  13  14
ENDBRANCH   5  13
TORSDOF 4
ENDMDL
MODEL 9
REMARK VINA RESULT:    -4.828      2.887      4.046
REMARK INTER + INTRA:          -6.169
REMARK INTER:                  -5.872
REMARK INTRA:                  -0.297
REMARK UNBOUND:                -0.354
REMARK  Name = 
REMARK  4 active torsions:
REMARK  status: ('A' for Active; 'I' for Inactive)
REMARK    1  A    between atoms: N_1  and  C_2
REMARK    2  A    between atoms: C_2  and  C_3
REMARK    3  A    between atoms: N_7  and  C_8
REMARK    4  A    between atoms: C_8  and  C_9
REMARK                            x       y       z     vdW  Elec       q    Type
REMARK                         _______ _______ _______ _____ _____    ______ ____
ROOT
ATOM      1  C   UNL     1      49.338   7.550  13.370  0.00  0.00    +0.000 A 
ATOM      2  C   UNL     1      48.658   6.739  14.278  0.00  0.00    +0.000 A 
ATOM      3  C   UNL     1      47.523   6.044  13.867  0.00  0.00    +0.000 A 
ATOM      4  C   UNL     1      47.055   6.198  12.564  0.00  0.00    +0.000 A 
ATOM      5  N   UNL     1      45.852   5.565  12.233  0.00  0.00    +0.000 N 
ATOM      6  N   UNL     1      47.703   6.967  11.667  0.00  0.00    +0.000 NA
ATOM      7  C   UNL     1      48.822   7.611  12.081  0.00  0.00    +0.000 A 
ATOM      8  H   UNL     1      45.961   4.559  12.311  0.00  0.00    +0.000 HD
ENDROOT
BRANCH   1   9
ATOM      9  C   UNL     1      50.529   8.366  13.781  0.00  0.00    +0.000 C 
BRANCH   9  10
ATOM     10  N   UNL     1      51.405   7.636  14.689  0.00  0.00    +0.000 NA
ATOM     11  H   UNL     1      51.588   6.710  14.306  0.00  0.00    +0.000 HD
ATOM     12  H   UNL     1      50.922   7.490  15.574  0.00  0.00    +0.000 HD
ENDBRANCH   9  10
ENDBRANCH   1   9
BRANCH   5  13
ATOM     13  C   UNL     1      45.248   5.975  10.979  0.00  0.00    +0.000 C 
BRANCH  13  14
ATOM     14  C   UNL     1      45.133   4.754  10.095  0.00  0.00    +0.000 A 
ATOM     15  C   UNL     1      44.509   3.596  10.567  0.00  0.00    +0.000 A 
ATOM     16  C   UNL     1      44.443   2.486   9.741  0.00  0.00    +0.000 A 
ATOM     17  N   UNL     1      44.961   2.450   8.492  0.00  0.00    +0.000 NA
ATOM     18  C   UNL     1      45.576   3.573   8.063  0.00  0.00    +0.000 A 
ATOM     19  C   UNL     1      45.689   4.733   8.814  0.00  0.00    +0.000 A 
ENDBRANCH  13  14
ENDBRANCH   5  13
TORSDOF 4
ENDMDL
