MODEL 1
REMARK VINA RESULT:    -7.330      0.000      0.000
REMARK INTER + INTRA:         -10.645
REMARK INTER:                  -9.473
REMARK INTRA:                  -1.172
REMARK UNBOUND:                -1.172
REMARK  Name = 
REMARK  5 active torsions:
REMARK  status: ('A' for Active; 'I' for Inactive)
REMARK    1  A    between atoms: C_2  and  C_4
REMARK    2  A    between atoms: C_10  and  N_11
REMARK    3  A    between atoms: N_11  and  C_12
REMARK    4  A    between atoms: C_12  and  C_13
REMARK    5  A    between atoms: C_17  and  N_18
REMARK                            x       y       z     vdW  Elec       q    Type
REMARK                         _______ _______ _______ _____ _____    ______ ____
ROOT
ATOM      1  N   UNL     1      44.896   6.749  13.092  0.00  0.00    +0.000 N 
ATOM      2  H   UNL     1      44.539   7.538  13.630  0.00  0.00    +0.000 HD
ENDROOT
BRANCH   1   9
ATOM      3  C   UNL     1      47.231   6.006  13.432  0.00  0.00    +0.000 A 
ATOM      4  C   UNL     1      48.602   6.248  13.237  0.00  0.00    +0.000 A 
ATOM      5  C   UNL     1      49.011   7.347  12.497  0.00  0.00    +0.000 A 
ATOM      6  C   UNL     1      48.032   8.166  11.982  0.00  0.00    +0.000 A 
ATOM      7  F   UNL     1      48.405   9.222  11.245  0.00  0.00    +0.000 F 
ATOM      8  N   UNL     1      46.708   7.979  12.170  0.00  0.00    +0.000 NA
ATOM      9  C   UNL     1      46.295   6.919  12.908  0.00  0.00    +0.000 A 
BRANCH   3  11
ATOM     10  N   UNL     1      47.084   4.767  15.522  0.00  0.00    +0.000 N 
ATOM     11  C   UNL     1      46.892   4.765  14.172  0.00  0.00    +0.000 C 
ATOM     12  O   UNL     1      46.406   3.796  13.604  0.00  0.00    +0.000 OA
ATOM     13  H   UNL     1      46.750   3.975  16.054  0.00  0.00    +0.000 HD
ATOM     14  H   UNL     1      47.409   5.592  16.016  0.00  0.00    +0.000 HD
ENDBRANCH   3  11
ENDBRANCH   1   9
BRANCH   1  15
ATOM     15  C   UNL     1      44.172   6.594  11.825  0.00  0.00    +0.000 C 
BRANCH  15  16
ATOM     16  C   UNL     1      43.994   5.145  11.448  0.00  0.00    +0.000 A 
ATOM     17  C   UNL     1      43.447   4.233  12.338  0.00  0.00    +0.000 A 
ATOM     18  N   UNL     1      43.346   2.909  12.091  0.00  0.00    +0.000 NA
ATOM     19  C   UNL     1      43.823   2.481  10.895  0.00  0.00    +0.000 A 
ATOM     20  C   UNL     1      44.381   3.286   9.899  0.00  0.00    +0.000 A 
ATOM     21  C   UNL     1      44.445   4.651  10.212  0.00  0.00    +0.000 A 
BRANCH  20  22
ATOM     22  N   UNL     1      44.845   2.781   8.704  0.00  0.00    +0.000 N 
ATOM     23  C   UNL     1      45.148   1.360   8.476  0.00  0.00    +0.000 C 
ATOM     24  C   UNL     1      46.605   1.193   8.021  0.00  0.00    +0.000 C 
ATOM     25  O   UNL     1      46.908   2.024   6.887  0.00  0.00    +0.000 OA
ATOM     26  C   UNL     1      46.687   3.408   7.209  0.00  0.00    +0.000 C 
ATOM     27  C   UNL     1      45.221   3.671   7.594  0.00  0.00    +0.000 C 
ENDBRANCH  20  22
ENDBRANCH  15  16
ENDBRANCH   1  15
TORSDOF 5
ENDMDL
MODEL 2
REMARK VINA RESULT:    -7.221      2.873      6.864
REMARK INTER + INTRA:         -10.504
REMARK INTER:                  -9.776
REMARK INTRA:                  -0.728
REMARK UNBOUND:                -1.172
REMARK  Name = 
REMARK  5 active torsions:
REMARK  status: ('A' for Active; 'I' for Inactive)
REMARK    1  A    between atoms: C_2  and  C_4
REMARK    2  A    between atoms: C_10  and  N_11
REMARK    3  A    between atoms: N_11  and  C_12
REMARK    4  A    between atoms: C_12  and  C_13
REMARK    5  A    between atoms: C_17  and  N_18
REMARK                            x       y       z     vdW  Elec       q    Type
REMARK                         _______ _______ _______ _____ _____    ______ ____
ROOT
ATOM      1  N   UNL     1      45.059   5.892  10.753  0.00  0.00    +0.000 N 
ATOM      2  H   UNL     1      44.459   5.634  11.536  0.00  0.00    +0.000 HD
ENDROOT
BRANCH   1   9
ATOM      3  C   UNL     1      44.380   3.617  10.054  0.00  0.00    +0.000 A 
ATOM      4  C   UNL     1      44.503   2.565   9.131  0.00  0.00    +0.000 A 
ATOM      5  C   UNL     1      45.304   2.720   8.010  0.00  0.00    +0.000 A 
ATOM      6  C   UNL     1      45.956   3.923   7.856  0.00  0.00    +0.000 A 
ATOM      7  F   UNL     1      46.718   4.102   6.767  0.00  0.00    +0.000 F 
ATOM      8  N   UNL     1      45.882   4.946   8.735  0.00  0.00    +0.000 NA
ATOM      9  C   UNL     1      45.117   4.800   9.844  0.00  0.00    +0.000 A 
BRANCH   3  11
ATOM     10  N   UNL     1      43.489   2.169  11.796  0.00  0.00    +0.000 N 
ATOM     11  C   UNL     1      43.442   3.384  11.181  0.00  0.00    +0.000 C 
ATOM     12  O   UNL     1      42.694   4.266  11.580  0.00  0.00    +0.000 OA
ATOM     13  H   UNL     1      42.941   2.035  12.634  0.00  0.00    +0.000 HD
ATOM     14  H   UNL     1      44.162   1.458  11.526  0.00  0.00    +0.000 HD
ENDBRANCH   3  11
ENDBRANCH   1   9
BRANCH   1  15
ATOM     15  C   UNL     1      46.385   6.317  11.214  0.00  0.00    +0.000 C 
BRANCH  15  16
ATOM     16  C   UNL     1      46.726   5.746  12.566  0.00  0.00    +0.000 A 
ATOM     17  C   UNL     1      46.083   4.616  13.051  0.00  0.00    +0.000 A 
ATOM     18  N   UNL     1      46.280   4.112  14.289  0.00  0.00    +0.000 NA
ATOM     19  C   UNL     1      47.159   4.778  15.078  0.00  0.00    +0.000 A 
ATOM     20  C   UNL     1      47.889   5.913  14.716  0.00  0.00    +0.000 A 
ATOM     21  C   UNL     1      47.649   6.378  13.416  0.00  0.00    +0.000 A 
BRANCH  20  22
ATOM     22  N   UNL     1      48.769   6.539  15.572  0.00  0.00    +0.000 N 
ATOM     23  C   UNL     1      49.611   7.684  15.191  0.00  0.00    +0.000 C 
ATOM     24  C   UNL     1      51.092   7.358  15.432  0.00  0.00    +0.000 C 
ATOM     25  O   UNL     1      51.326   6.908  16.778  0.00  0.00    +0.000 OA
ATOM     26  C   UNL     1      50.549   5.730  17.053  0.00  0.00    +0.000 C 
ATOM     27  C   UNL     1      49.041   6.002  16.914  0.00  0.00    +0.000 C 
ENDBRANCH  20  22
ENDBRANCH  15  16
ENDBRANCH   1  15
TORSDOF 5
ENDMDL
MODEL 3
REMARK VINA RESULT:    -6.880      3.265      5.188
REMARK INTER + INTRA:         -10.063
REMARK INTER:                  -9.031
REMARK INTRA:                  -1.032
REMARK UNBOUND:                -1.172
REMARK  Name = 
REMARK  5 active torsions:
REMARK  status: ('A' for Active; 'I' for Inactive)
REMARK    1  A    between atoms: C_2  and  C_4
REMARK    2  A    between atoms: C_10  and  N_11
REMARK    3  A    between atoms: N_11  and  C_12
REMARK    4  A    between atoms: C_12  and  C_13
REMARK    5  A    between atoms: C_17  and  N_18
REMARK                            x       y       z     vdW  Elec       q    Type
REMARK                         _______ _______ _______ _____ _____    ______ ____
ROOT
ATOM      1  N   UNL     1      48.309   6.347  16.146  0.00  0.00    +0.000 N 
ATOM      2  H   UNL     1      48.182   7.078  16.846  0.00  0.00    +0.000 HD
ENDROOT
BRANCH   1   9
ATOM      3  C   UNL     1      48.762   4.059  16.971  0.00  0.00    +0.000 A 
ATOM      4  C   UNL     1      49.682   3.144  17.511  0.00  0.00    +0.000 A 
ATOM      5  C   UNL     1      51.004   3.520  17.692  0.00  0.00    +0.000 A 
ATOM      6  C   UNL     1      51.356   4.802  17.330  0.00  0.00    +0.000 A 
ATOM      7  F   UNL     1      52.634   5.179  17.477  0.00  0.00    +0.000 F 
ATOM      8  N   UNL     1      50.494   5.714  16.833  0.00  0.00    +0.000 NA
ATOM      9  C   UNL     1      49.194   5.365  16.668  0.00  0.00    +0.000 A 
BRANCH   3  11
ATOM     10  N   UNL     1      46.823   2.805  17.743  0.00  0.00    +0.000 N 
ATOM     11  C   UNL     1      47.390   3.539  16.744  0.00  0.00    +0.000 C 
ATOM     12  O   UNL     1      46.768   3.805  15.723  0.00  0.00    +0.000 OA
ATOM     13  H   UNL     1      45.851   2.544  17.653  0.00  0.00    +0.000 HD
ATOM     14  H   UNL     1      47.297   2.648  18.627  0.00  0.00    +0.000 HD
ENDBRANCH   3  11
ENDBRANCH   1   9
BRANCH   1  15
ATOM     15  C   UNL     1      48.770   6.904  14.869  0.00  0.00    +0.000 C 
BRANCH  15  16
ATOM     16  C   UNL     1      47.652   7.014  13.863  0.00  0.00    +0.000 A 
ATOM     17  C   UNL     1      47.016   8.224  13.626  0.00  0.00    +0.000 A 
ATOM     18  N   UNL     1      45.953   8.367  12.806  0.00  0.00    +0.000 NA
ATOM     19  C   UNL     1      45.503   7.239  12.200  0.00  0.00    +0.000 A 
ATOM     20  C   UNL     1      46.055   5.962  12.332  0.00  0.00    +0.000 A 
ATOM     21  C   UNL     1      47.163   5.885  13.186  0.00  0.00    +0.000 A 
BRANCH  20  22
ATOM     22  N   UNL     1      45.545   4.858  11.684  0.00  0.00    +0.000 N 
ATOM     23  C   UNL     1      45.155   4.847  10.265  0.00  0.00    +0.000 C 
ATOM     24  C   UNL     1      43.684   4.427  10.122  0.00  0.00    +0.000 C 
ATOM     25  O   UNL     1      43.418   3.183  10.792  0.00  0.00    +0.000 OA
ATOM     26  C   UNL     1      43.726   3.293  12.192  0.00  0.00    +0.000 C 
ATOM     27  C   UNL     1      45.210   3.629  12.419  0.00  0.00    +0.000 C 
ENDBRANCH  20  22
ENDBRANCH  15  16
ENDBRANCH   1  15
TORSDOF 5
ENDMDL
MODEL 4
REMARK VINA RESULT:    -6.802      3.124      6.796
REMARK INTER + INTRA:          -9.963
REMARK INTER:                  -9.271
REMARK INTRA:                  -0.692
REMARK UNBOUND:                -1.172
REMARK  Name = 
REMARK  5 active torsions:
REMARK  status: ('A' for Active; 'I' for Inactive)
REMARK    1  A    between atoms: C_2  and  C_4
REMARK    2  A    between atoms: C_10  and  N_11
REMARK    3  A    between atoms: N_11  and  C_12
REMARK    4  A    between atoms: C_12  and  C_13
REMARK    5  A    between atoms: C_17  and  N_18
REMARK                            x       y       z     vdW  Elec       q    Type
REMARK                         _______ _______ _______ _____ _____    ______ ____
ROOT
ATOM      1  N   UNL     1      45.073   5.870  10.361  0.00  0.00    +0.000 N 
ATOM      2  H   UNL     1      44.090   5.966  10.618  0.00  0.00    +0.000 HD
ENDROOT
BRANCH   1   9
ATOM      3  C   UNL     1      44.703   3.445  10.037  0.00  0.00    +0.000 A 
ATOM      4  C   UNL     1      44.917   2.299   9.253  0.00  0.00    +0.000 A 
ATOM      5  C   UNL     1      45.598   2.402   8.049  0.00  0.00    +0.000 A 
ATOM      6  C   UNL     1      46.043   3.651   7.676  0.00  0.00    +0.000 A 
ATOM      7  F   UNL     1      46.684   3.777   6.506  0.00  0.00    +0.000 F 
ATOM      8  N   UNL     1      45.877   4.769   8.416  0.00  0.00    +0.000 NA
ATOM      9  C   UNL     1      45.230   4.678   9.603  0.00  0.00    +0.000 A 
BRANCH   3  11
ATOM     10  N   UNL     1      44.469   2.533  12.282  0.00  0.00    +0.000 N 
ATOM     11  C   UNL     1      43.899   3.246  11.268  0.00  0.00    +0.000 C 
ATOM     12  O   UNL     1      42.790   3.748  11.395  0.00  0.00    +0.000 OA
ATOM     13  H   UNL     1      43.983   2.488  13.167  0.00  0.00    +0.000 HD
ATOM     14  H   UNL     1      45.419   2.181  12.220  0.00  0.00    +0.000 HD
ENDBRANCH   3  11
ENDBRANCH   1   9
BRANCH   1  15
ATOM     15  C   UNL     1      45.941   5.910  11.542  0.00  0.00    +0.000 C 
BRANCH  15  16
ATOM     16  C   UNL     1      46.429   7.305  11.841  0.00  0.00    +0.000 A 
ATOM     17  C   UNL     1      45.539   8.355  12.017  0.00  0.00    +0.000 A 
ATOM     18  N   UNL     1      45.916   9.639  12.196  0.00  0.00    +0.000 NA
ATOM     19  C   UNL     1      47.251   9.881  12.192  0.00  0.00    +0.000 A 
ATOM     20  C   UNL     1      48.257   8.923  12.046  0.00  0.00    +0.000 A 
ATOM     21  C   UNL     1      47.800   7.609  11.876  0.00  0.00    +0.000 A 
BRANCH  20  22
ATOM     22  N   UNL     1      49.598   9.241  12.053  0.00  0.00    +0.000 N 
ATOM     23  C   UNL     1      50.120  10.597  11.823  0.00  0.00    +0.000 C 
ATOM     24  C   UNL     1      51.101  10.596  10.641  0.00  0.00    +0.000 C 
ATOM     25  O   UNL     1      52.136   9.612  10.809  0.00  0.00    +0.000 OA
ATOM     26  C   UNL     1      51.563   8.299  10.927  0.00  0.00    +0.000 C 
ATOM     27  C   UNL     1      50.630   8.197  12.146  0.00  0.00    +0.000 C 
ENDBRANCH  20  22
ENDBRANCH  15  16
ENDBRANCH   1  15
TORSDOF 5
ENDMDL
MODEL 5
REMARK VINA RESULT:    -6.793      2.847      6.473
REMARK INTER + INTRA:          -9.951
REMARK INTER:                  -9.305
REMARK INTRA:                  -0.645
REMARK UNBOUND:                -1.172
REMARK  Name = 
REMARK  5 active torsions:
REMARK  status: ('A' for Active; 'I' for Inactive)
REMARK    1  A    between atoms: C_2  and  C_4
REMARK    2  A    between atoms: C_10  and  N_11
REMARK    3  A    between atoms: N_11  and  C_12
REMARK    4  A    between atoms: C_12  and  C_13
REMARK    5  A    between atoms: C_17  and  N_18
REMARK                            x       y       z     vdW  Elec       q    Type
REMARK                         _______ _______ _______ _____ _____    ______ ____
ROOT
ATOM      1  N   UNL     1      44.257   2.067   9.973  0.00  0.00    +0.000 N 
ATOM      2  H   UNL     1      43.659   1.242   9.917  0.00  0.00    +0.000 HD
ENDROOT
BRANCH   1   9
ATOM      3  C   UNL     1      45.701   3.151   8.282  0.00  0.00    +0.000 A 
ATOM      4  C   UNL     1      46.641   3.010   7.246  0.00  0.00    +0.000 A 
ATOM      5  C   UNL     1      47.119   1.751   6.914  0.00  0.00    +0.000 A 
ATOM      6  C   UNL     1      46.636   0.679   7.631  0.00  0.00    +0.000 A 
ATOM      7  F   UNL     1      47.102  -0.544   7.341  0.00  0.00    +0.000 F 
ATOM      8  N   UNL     1      45.716   0.774   8.614  0.00  0.00    +0.000 NA
ATOM      9  C   UNL     1      45.226   1.997   8.935  0.00  0.00    +0.000 A 
BRANCH   3  11
ATOM     10  N   UNL     1      43.978   4.797   8.781  0.00  0.00    +0.000 N 
ATOM     11  C   UNL     1      45.308   4.543   8.613  0.00  0.00    +0.000 C 
ATOM     12  O   UNL     1      46.145   5.420   8.784  0.00  0.00    +0.000 OA
ATOM     13  H   UNL     1      43.704   5.708   9.119  0.00  0.00    +0.000 HD
ATOM     14  H   UNL     1      43.281   4.060   8.722  0.00  0.00    +0.000 HD
ENDBRANCH   3  11
ENDBRANCH   1   9
BRANCH   1  15
ATOM     15  C   UNL     1      44.859   2.203  11.304  0.00  0.00    +0.000 C 
BRANCH  15  16
ATOM     16  C   UNL     1      44.526   3.527  11.943  0.00  0.00    +0.000 A 
ATOM     17  C   UNL     1      43.212   3.945  12.089  0.00  0.00    +0.000 A 
ATOM     18  N   UNL     1      42.856   5.156  12.570  0.00  0.00    +0.000 NA
ATOM     19  C   UNL     1      43.870   5.988  12.915  0.00  0.00    +0.000 A 
ATOM     20  C   UNL     1      45.234   5.695  12.840  0.00  0.00    +0.000 A 
ATOM     21  C   UNL     1      45.535   4.419  12.344  0.00  0.00    +0.000 A 
BRANCH  20  22
ATOM     22  N   UNL     1      46.212   6.592  13.209  0.00  0.00    +0.000 N 
ATOM     23  C   UNL     1      46.131   8.041  12.967  0.00  0.00    +0.000 C 
ATOM     24  C   UNL     1      47.342   8.512  12.150  0.00  0.00    +0.000 C 
ATOM     25  O   UNL     1      48.583   8.109  12.755  0.00  0.00    +0.000 OA
ATOM     26  C   UNL     1      48.640   6.677  12.871  0.00  0.00    +0.000 C 
ATOM     27  C   UNL     1      47.501   6.135  13.752  0.00  0.00    +0.000 C 
ENDBRANCH  20  22
ENDBRANCH  15  16
ENDBRANCH   1  15
TORSDOF 5
ENDMDL
MODEL 6
REMARK VINA RESULT:    -6.684      2.607      6.769
REMARK INTER + INTRA:          -9.810
REMARK INTER:                  -8.811
REMARK INTRA:                  -0.999
REMARK UNBOUND:                -1.172
REMARK  Name = 
REMARK  5 active torsions:
REMARK  status: ('A' for Active; 'I' for Inactive)
REMARK    1  A    between atoms: C_2  and  C_4
REMARK    2  A    between atoms: C_10  and  N_11
REMARK    3  A    between atoms: N_11  and  C_12
REMARK    4  A    between atoms: C_12  and  C_13
REMARK    5  A    between atoms: C_17  and  N_18
REMARK                            x       y       z     vdW  Elec       q    Type
REMARK                         _______ _______ _______ _____ _____    ______ ____
ROOT
ATOM      1  N   UNL     1      45.516   6.013  11.454  0.00  0.00    +0.000 N 
ATOM      2  H   UNL     1      45.490   5.644  12.405  0.00  0.00    +0.000 HD
ENDROOT
BRANCH   1   9
ATOM      3  C   UNL     1      44.427   3.858  10.914  0.00  0.00    +0.000 A 
ATOM      4  C   UNL     1      44.207   2.833   9.978  0.00  0.00    +0.000 A 
ATOM      5  C   UNL     1      44.739   2.937   8.701  0.00  0.00    +0.000 A 
ATOM      6  C   UNL     1      45.476   4.063   8.410  0.00  0.00    +0.000 A 
ATOM      7  F   UNL     1      45.981   4.193   7.175  0.00  0.00    +0.000 F 
ATOM      8  N   UNL     1      45.730   5.054   9.291  0.00  0.00    +0.000 NA
ATOM      9  C   UNL     1      45.231   4.956  10.548  0.00  0.00    +0.000 A 
BRANCH   3  11
ATOM     10  N   UNL     1      43.710   2.436  12.755  0.00  0.00    +0.000 N 
ATOM     11  C   UNL     1      43.755   3.692  12.226  0.00  0.00    +0.000 C 
ATOM     12  O   UNL     1      43.306   4.652  12.839  0.00  0.00    +0.000 OA
ATOM     13  H   UNL     1      43.361   2.325  13.697  0.00  0.00    +0.000 HD
ATOM     14  H   UNL     1      44.151   1.645  12.294  0.00  0.00    +0.000 HD
ENDBRANCH   3  11
ENDBRANCH   1   9
BRANCH   1  15
ATOM     15  C   UNL     1      46.795   6.673  11.172  0.00  0.00    +0.000 C 
BRANCH  15  16
ATOM     16  C   UNL     1      47.626   6.855  12.416  0.00  0.00    +0.000 A 
ATOM     17  C   UNL     1      48.715   7.714  12.434  0.00  0.00    +0.000 A 
ATOM     18  N   UNL     1      49.549   7.850  13.488  0.00  0.00    +0.000 NA
ATOM     19  C   UNL     1      49.279   7.082  14.573  0.00  0.00    +0.000 A 
ATOM     20  C   UNL     1      48.211   6.190  14.701  0.00  0.00    +0.000 A 
ATOM     21  C   UNL     1      47.377   6.105  13.578  0.00  0.00    +0.000 A 
BRANCH  20  22
ATOM     22  N   UNL     1      47.997   5.440  15.837  0.00  0.00    +0.000 N 
ATOM     23  C   UNL     1      48.658   5.695  17.126  0.00  0.00    +0.000 C 
ATOM     24  C   UNL     1      49.417   4.444  17.592  0.00  0.00    +0.000 C 
ATOM     25  O   UNL     1      48.568   3.284  17.613  0.00  0.00    +0.000 OA
ATOM     26  C   UNL     1      48.035   3.031  16.301  0.00  0.00    +0.000 C 
ATOM     27  C   UNL     1      47.186   4.213  15.799  0.00  0.00    +0.000 C 
ENDBRANCH  20  22
ENDBRANCH  15  16
ENDBRANCH   1  15
TORSDOF 5
ENDMDL
MODEL 7
REMARK VINA RESULT:    -6.510      3.230      7.240
REMARK INTER + INTRA:          -9.585
REMARK INTER:                  -8.835
REMARK INTRA:                  -0.751
REMARK UNBOUND:                -1.172
REMARK  Name = 
REMARK  5 active torsions:
REMARK  status: ('A' for Active; 'I' for Inactive)
REMARK    1  A    between atoms: C_2  and  C_4
REMARK    2  A    between atoms: C_10  and  N_11
REMARK    3  A    between atoms: N_11  and  C_12
REMARK    4  A    between atoms: C_12  and  C_13
REMARK    5  A    between atoms: C_17  and  N_18
REMARK                            x       y       z     vdW  Elec       q    Type
REMARK                         _______ _______ _______ _____ _____    ______ ____
ROOT
ATOM      1  N   UNL     1      45.784   6.794  11.921  0.00  0.00    +0.000 N 
ATOM      2  H   UNL     1      45.180   6.738  12.741  0.00  0.00    +0.000 HD
ENDROOT
BRANCH   1   9
ATOM      3  C   UNL     1      44.054   5.252  11.054  0.00  0.00    +0.000 A 
ATOM      4  C   UNL     1      43.663   4.328  10.069  0.00  0.00    +0.000 A 
ATOM      5  C   UNL     1      44.496   4.075   8.990  0.00  0.00    +0.000 A 
ATOM      6  C   UNL     1      45.693   4.754   8.937  0.00  0.00    +0.000 A 
ATOM      7  F   UNL     1      46.502   4.541   7.890  0.00  0.00    +0.000 F 
ATOM      8  N   UNL     1      46.112   5.629   9.877  0.00  0.00    +0.000 NA
ATOM      9  C   UNL     1      45.315   5.871  10.947  0.00  0.00    +0.000 A 
BRANCH   3  11
ATOM     10  N   UNL     1      41.904   6.135  11.776  0.00  0.00    +0.000 N 
ATOM     11  C   UNL     1      43.064   5.511  12.128  0.00  0.00    +0.000 C 
ATOM     12  O   UNL     1      43.255   5.133  13.276  0.00  0.00    +0.000 OA
ATOM     13  H   UNL     1      41.173   6.214  12.470  0.00  0.00    +0.000 HD
ATOM     14  H   UNL     1      41.700   6.380  10.812  0.00  0.00    +0.000 HD
ENDBRANCH   3  11
ENDBRANCH   1   9
BRANCH   1  15
ATOM     15  C   UNL     1      47.191   6.579  12.277  0.00  0.00    +0.000 C 
BRANCH  15  16
ATOM     16  C   UNL     1      47.339   5.708  13.499  0.00  0.00    +0.000 A 
ATOM     17  C   UNL     1      46.733   4.463  13.572  0.00  0.00    +0.000 A 
ATOM     18  N   UNL     1      46.755   3.679  14.671  0.00  0.00    +0.000 NA
ATOM     19  C   UNL     1      47.413   4.173  15.750  0.00  0.00    +0.000 A 
ATOM     20  C   UNL     1      48.082   5.398  15.813  0.00  0.00    +0.000 A 
ATOM     21  C   UNL     1      48.032   6.157  14.636  0.00  0.00    +0.000 A 
BRANCH  20  22
ATOM     22  N   UNL     1      48.732   5.836  16.946  0.00  0.00    +0.000 N 
ATOM     23  C   UNL     1      49.349   4.941  17.936  0.00  0.00    +0.000 C 
ATOM     24  C   UNL     1      48.755   5.199  19.329  0.00  0.00    +0.000 C 
ATOM     25  O   UNL     1      48.838   6.588  19.694  0.00  0.00    +0.000 OA
ATOM     26  C   UNL     1      48.130   7.398  18.739  0.00  0.00    +0.000 C 
ATOM     27  C   UNL     1      48.725   7.257  17.327  0.00  0.00    +0.000 C 
ENDBRANCH  20  22
ENDBRANCH  15  16
ENDBRANCH   1  15
TORSDOF 5
ENDMDL
MODEL 8
REMARK VINA RESULT:    -6.239      3.586      7.786
REMARK INTER + INTRA:          -9.235
REMARK INTER:                  -8.439
REMARK INTRA:                  -0.796
REMARK UNBOUND:                -1.172
REMARK  Name = 
REMARK  5 active torsions:
REMARK  status: ('A' for Active; 'I' for Inactive)
REMARK    1  A    between atoms: C_2  and  C_4
REMARK    2  A    between atoms: C_10  and  N_11
REMARK    3  A    between atoms: N_11  and  C_12
REMARK    4  A    between atoms: C_12  and  C_13
REMARK    5  A    between atoms: C_17  and  N_18
REMARK                            x       y       z     vdW  Elec       q    Type
REMARK                         _______ _______ _______ _____ _____    ______ ____
ROOT
ATOM      1  N   UNL     1      44.968   3.791  12.744  0.00  0.00    +0.000 N 
ATOM      2  H   UNL     1      44.205   3.268  13.174  0.00  0.00    +0.000 HD
ENDROOT
BRANCH   1   9
ATOM      3  C   UNL     1      44.518   4.864  10.561  0.00  0.00    +0.000 A 
ATOM      4  C   UNL     1      44.365   4.724   9.170  0.00  0.00    +0.000 A 
ATOM      5  C   UNL     1      44.561   3.488   8.574  0.00  0.00    +0.000 A 
ATOM      6  C   UNL     1      44.901   2.434   9.394  0.00  0.00    +0.000 A 
ATOM      7  F   UNL     1      45.117   1.235   8.835  0.00  0.00    +0.000 F 
ATOM      8  N   UNL     1      45.033   2.526  10.734  0.00  0.00    +0.000 NA
ATOM      9  C   UNL     1      44.825   3.725  11.332  0.00  0.00    +0.000 A 
BRANCH   3  11
ATOM     10  N   UNL     1      43.094   6.724  11.222  0.00  0.00    +0.000 N 
ATOM     11  C   UNL     1      44.362   6.240  11.095  0.00  0.00    +0.000 C 
ATOM     12  O   UNL     1      45.329   6.896  11.459  0.00  0.00    +0.000 OA
ATOM     13  H   UNL     1      42.965   7.610  11.690  0.00  0.00    +0.000 HD
ATOM     14  H   UNL     1      42.281   6.158  10.999  0.00  0.00    +0.000 HD
ENDBRANCH   3  11
ENDBRANCH   1   9
BRANCH   1  15
ATOM     15  C   UNL     1      46.274   3.308  13.206  0.00  0.00    +0.000 C 
BRANCH  15  16
ATOM     16  C   UNL     1      46.969   4.313  14.089  0.00  0.00    +0.000 A 
ATOM     17  C   UNL     1      47.533   5.465  13.562  0.00  0.00    +0.000 A 
ATOM     18  N   UNL     1      48.245   6.354  14.287  0.00  0.00    +0.000 NA
ATOM     19  C   UNL     1      48.403   6.069  15.603  0.00  0.00    +0.000 A 
ATOM     20  C   UNL     1      47.878   4.959  16.271  0.00  0.00    +0.000 A 
ATOM     21  C   UNL     1      47.139   4.082  15.465  0.00  0.00    +0.000 A 
BRANCH  20  22
ATOM     22  N   UNL     1      48.079   4.732  17.615  0.00  0.00    +0.000 N 
ATOM     23  C   UNL     1      47.410   5.490  18.684  0.00  0.00    +0.000 C 
ATOM     24  C   UNL     1      48.451   6.137  19.609  0.00  0.00    +0.000 C 
ATOM     25  O   UNL     1      49.394   5.172  20.106  0.00  0.00    +0.000 OA
ATOM     26  C   UNL     1      50.085   4.541  19.014  0.00  0.00    +0.000 C 
ATOM     27  C   UNL     1      49.110   3.795  18.085  0.00  0.00    +0.000 C 
ENDBRANCH  20  22
ENDBRANCH  15  16
ENDBRANCH   1  15
TORSDOF 5
ENDMDL
MODEL 9
REMARK VINA RESULT:    -6.120      3.750      5.724
REMARK INTER + INTRA:          -9.081
REMARK INTER:                  -8.173
REMARK INTRA:                  -0.908
REMARK UNBOUND:                -1.172
REMARK  Name = 
REMARK  5 active torsions:
REMARK  status: ('A' for Active; 'I' for Inactive)
REMARK    1  A    between atoms: C_2  and  C_4
REMARK    2  A    between atoms: C_10  and  N_11
REMARK    3  A    between atoms: N_11  and  C_12
REMARK    4  A    between atoms: C_12  and  C_13
REMARK    5  A    between atoms: C_17  and  N_18
REMARK                            x       y       z     vdW  Elec       q    Type
REMARK                         _______ _______ _______ _____ _____    ______ ____
ROOT
ATOM      1  N   UNL     1      48.694   6.894  16.263  0.00  0.00    +0.000 N 
ATOM      2  H   UNL     1      49.399   7.517  16.656  0.00  0.00    +0.000 HD
ENDROOT
BRANCH   1   9
ATOM      3  C   UNL     1      48.514   5.719  18.433  0.00  0.00    +0.000 A 
ATOM      4  C   UNL     1      48.520   4.503  19.137  0.00  0.00    +0.000 A 
ATOM      5  C   UNL     1      48.623   3.305  18.445  0.00  0.00    +0.000 A 
ATOM      6  C   UNL     1      48.722   3.370  17.073  0.00  0.00    +0.000 A 
ATOM      7  F   UNL     1      48.801   2.223  16.384  0.00  0.00    +0.000 F 
ATOM      8  N   UNL     1      48.746   4.521  16.367  0.00  0.00    +0.000 NA
ATOM      9  C   UNL     1      48.664   5.699  17.033  0.00  0.00    +0.000 A 
BRANCH   3  11
ATOM     10  N   UNL     1      47.447   6.866  20.296  0.00  0.00    +0.000 N 
ATOM     11  C   UNL     1      48.323   6.941  19.254  0.00  0.00    +0.000 C 
ATOM     12  O   UNL     1      48.966   7.960  19.040  0.00  0.00    +0.000 OA
ATOM     13  H   UNL     1      47.392   7.650  20.932  0.00  0.00    +0.000 HD
ATOM     14  H   UNL     1      46.968   6.002  20.533  0.00  0.00    +0.000 HD
ENDBRANCH   3  11
ENDBRANCH   1   9
BRANCH   1  15
ATOM     15  C   UNL     1      48.934   6.645  14.837  0.00  0.00    +0.000 C 
BRANCH  15  16
ATOM     16  C   UNL     1      47.684   6.820  14.013  0.00  0.00    +0.000 A 
ATOM     17  C   UNL     1      47.282   8.073  13.575  0.00  0.00    +0.000 A 
ATOM     18  N   UNL     1      46.128   8.303  12.913  0.00  0.00    +0.000 NA
ATOM     19  C   UNL     1      45.338   7.224  12.684  0.00  0.00    +0.000 A 
ATOM     20  C   UNL     1      45.625   5.907  13.050  0.00  0.00    +0.000 A 
ATOM     21  C   UNL     1      46.842   5.733  13.723  0.00  0.00    +0.000 A 
BRANCH  20  22
ATOM     22  N   UNL     1      44.773   4.856  12.784  0.00  0.00    +0.000 N 
ATOM     23  C   UNL     1      45.217   3.550  12.274  0.00  0.00    +0.000 C 
ATOM     24  C   UNL     1      44.499   3.222  10.956  0.00  0.00    +0.000 C 
ATOM     25  O   UNL     1      43.070   3.321  11.089  0.00  0.00    +0.000 OA
ATOM     26  C   UNL     1      42.698   4.650  11.493  0.00  0.00    +0.000 C 
ATOM     27  C   UNL     1      43.313   5.021  12.853  0.00  0.00    +0.000 C 
ENDBRANCH  20  22
ENDBRANCH  15  16
ENDBRANCH   1  15
TORSDOF 5
ENDMDL
