MODEL 1
REMARK VINA RESULT:    -7.893      0.000      0.000
REMARK INTER + INTRA:         -11.556
REMARK INTER:                 -10.892
REMARK INTRA:                  -0.664
REMARK UNBOUND:                -0.664
REMARK  Name = 
REMARK  8 active torsions:
REMARK  status: ('A' for Active; 'I' for Inactive)
REMARK    1  A    between atoms: C_1  and  C_2
REMARK    2  A    between atoms: C_2  and  C_3
REMARK    3  A    between atoms: C_2  and  C_14
REMARK    4  A    between atoms: C_3  and  O_4
REMARK    5  A    between atoms: O_4  and  C_5
REMARK    6  A    between atoms: C_8  and  C_9
REMARK    7  A    between atoms: C_9  and  O_11
REMARK    8  A    between atoms: C_18  and  C_19
REMARK                            x       y       z     vdW  Elec       q    Type
REMARK                         _______ _______ _______ _____ _____    ______ ____
ROOT
ATOM      1  C   UNL     1      43.367   4.458  10.765  0.00  0.00    +0.000 C 
ENDROOT
BRANCH   1   3
ATOM      2  C   UNL     1      43.003   6.936  11.313  0.00  0.00    +0.000 C 
ATOM      3  C   UNL     1      43.789   5.679  11.534  0.00  0.00    +0.000 C 
BRANCH   3   4
ATOM      4  C   UNL     1      45.145   5.765  12.098  0.00  0.00    +0.000 A 
ATOM      5  C   UNL     1      46.076   6.679  11.589  0.00  0.00    +0.000 A 
ATOM      6  C   UNL     1      47.370   6.750  12.111  0.00  0.00    +0.000 A 
ATOM      7  C   UNL     1      47.752   5.904  13.151  0.00  0.00    +0.000 A 
ATOM      8  C   UNL     1      46.835   4.992  13.675  0.00  0.00    +0.000 A 
ATOM      9  C   UNL     1      45.539   4.929  13.153  0.00  0.00    +0.000 A 
BRANCH   8  10
ATOM     10  C   UNL     1      47.218   4.115  14.740  0.00  0.00    +0.000 C 
ATOM     11  N   UNL     1      47.527   3.403  15.605  0.00  0.00    +0.000 NA
ENDBRANCH   8  10
ENDBRANCH   3   4
ENDBRANCH   1   3
BRANCH   1  12
ATOM     12  O   UNL     1      43.664   4.693   9.393  0.00  0.00    +0.000 OA
BRANCH  12  13
ATOM     13  C   UNL     1      44.550   3.770   8.893  0.00  0.00    +0.000 A 
ATOM     14  N   UNL     1      45.421   4.250   7.993  0.00  0.00    +0.000 NA
ATOM     15  C   UNL     1      46.299   3.363   7.483  0.00  0.00    +0.000 A 
ATOM     16  C   UNL     1      46.317   2.030   7.828  0.00  0.00    +0.000 A 
ATOM     17  C   UNL     1      45.414   1.657   8.799  0.00  0.00    +0.000 A 
ATOM     18  N   UNL     1      44.511   2.503   9.340  0.00  0.00    +0.000 NA
BRANCH  16  19
ATOM     19  C   UNL     1      47.236   1.037   7.265  0.00  0.00    +0.000 C 
ATOM     20  O   UNL     1      48.125   1.346   6.491  0.00  0.00    +0.000 OA
BRANCH  19  21
ATOM     21  O   UNL     1      47.051  -0.221   7.712  0.00  0.00    +0.000 OA
ATOM     22  H   UNL     1      47.653  -0.913   7.381  0.00  0.00    +0.000 HD
ENDBRANCH  19  21
ENDBRANCH  16  19
ENDBRANCH  12  13
ENDBRANCH   1  12
TORSDOF 7
ENDMDL
MODEL 2
REMARK VINA RESULT:    -7.454      2.018      2.975
REMARK INTER + INTRA:         -10.951
REMARK INTER:                 -10.583
REMARK INTRA:                  -0.368
REMARK UNBOUND:                -0.664
REMARK  Name = 
REMARK  8 active torsions:
REMARK  status: ('A' for Active; 'I' for Inactive)
REMARK    1  A    between atoms: C_1  and  C_2
REMARK    2  A    between atoms: C_2  and  C_3
REMARK    3  A    between atoms: C_2  and  C_14
REMARK    4  A    between atoms: C_3  and  O_4
REMARK    5  A    between atoms: O_4  and  C_5
REMARK    6  A    between atoms: C_8  and  C_9
REMARK    7  A    between atoms: C_9  and  O_11
REMARK    8  A    between atoms: C_18  and  C_19
REMARK                            x       y       z     vdW  Elec       q    Type
REMARK                         _______ _______ _______ _____ _____    ______ ____
ROOT
ATOM      1  C   UNL     1      43.573   4.676  10.898  0.00  0.00    +0.000 C 
ENDROOT
BRANCH   1   3
ATOM      2  C   UNL     1      45.321   3.708  12.505  0.00  0.00    +0.000 C 
ATOM      3  C   UNL     1      44.899   4.819  11.591  0.00  0.00    +0.000 C 
BRANCH   3   4
ATOM      4  C   UNL     1      45.518   6.146  11.734  0.00  0.00    +0.000 A 
ATOM      5  C   UNL     1      46.905   6.278  11.884  0.00  0.00    +0.000 A 
ATOM      6  C   UNL     1      47.493   7.536  12.038  0.00  0.00    +0.000 A 
ATOM      7  C   UNL     1      46.700   8.682  12.046  0.00  0.00    +0.000 A 
ATOM      8  C   UNL     1      45.317   8.571  11.891  0.00  0.00    +0.000 A 
ATOM      9  C   UNL     1      44.734   7.310  11.731  0.00  0.00    +0.000 A 
BRANCH   8  10
ATOM     10  C   UNL     1      44.493   9.741  11.902  0.00  0.00    +0.000 C 
ATOM     11  N   UNL     1      43.823  10.691  11.911  0.00  0.00    +0.000 NA
ENDBRANCH   8  10
ENDBRANCH   3   4
ENDBRANCH   1   3
BRANCH   1  12
ATOM     12  O   UNL     1      43.797   4.866   9.504  0.00  0.00    +0.000 OA
BRANCH  12  13
ATOM     13  C   UNL     1      44.627   3.905   8.982  0.00  0.00    +0.000 A 
ATOM     14  N   UNL     1      45.573   4.365   8.149  0.00  0.00    +0.000 NA
ATOM     15  C   UNL     1      46.398   3.441   7.618  0.00  0.00    +0.000 A 
ATOM     16  C   UNL     1      46.293   2.093   7.876  0.00  0.00    +0.000 A 
ATOM     17  C   UNL     1      45.321   1.737   8.784  0.00  0.00    +0.000 A 
ATOM     18  N   UNL     1      44.466   2.621   9.342  0.00  0.00    +0.000 NA
BRANCH  16  19
ATOM     19  C   UNL     1      47.153   1.063   7.286  0.00  0.00    +0.000 C 
ATOM     20  O   UNL     1      48.039   1.337   6.495  0.00  0.00    +0.000 OA
BRANCH  19  21
ATOM     21  O   UNL     1      46.920  -0.189   7.727  0.00  0.00    +0.000 OA
ATOM     22  H   UNL     1      46.813  -0.320   8.688  0.00  0.00    +0.000 HD
ENDBRANCH  19  21
ENDBRANCH  16  19
ENDBRANCH  12  13
ENDBRANCH   1  12
TORSDOF 7
ENDMDL
MODEL 3
REMARK VINA RESULT:    -7.328      1.797      2.660
REMARK INTER + INTRA:         -10.777
REMARK INTER:                 -10.237
REMARK INTRA:                  -0.540
REMARK UNBOUND:                -0.664
REMARK  Name = 
REMARK  8 active torsions:
REMARK  status: ('A' for Active; 'I' for Inactive)
REMARK    1  A    between atoms: C_1  and  C_2
REMARK    2  A    between atoms: C_2  and  C_3
REMARK    3  A    between atoms: C_2  and  C_14
REMARK    4  A    between atoms: C_3  and  O_4
REMARK    5  A    between atoms: O_4  and  C_5
REMARK    6  A    between atoms: C_8  and  C_9
REMARK    7  A    between atoms: C_9  and  O_11
REMARK    8  A    between atoms: C_18  and  C_19
REMARK                            x       y       z     vdW  Elec       q    Type
REMARK                         _______ _______ _______ _____ _____    ______ ____
ROOT
ATOM      1  C   UNL     1      43.723   4.493  11.063  0.00  0.00    +0.000 C 
ENDROOT
BRANCH   1   3
ATOM      2  C   UNL     1      45.483   3.599  12.699  0.00  0.00    +0.000 C 
ATOM      3  C   UNL     1      45.026   4.695  11.784  0.00  0.00    +0.000 C 
BRANCH   3   4
ATOM      4  C   UNL     1      45.578   6.049  11.947  0.00  0.00    +0.000 A 
ATOM      5  C   UNL     1      44.743   7.132  12.252  0.00  0.00    +0.000 A 
ATOM      6  C   UNL     1      45.261   8.422  12.389  0.00  0.00    +0.000 A 
ATOM      7  C   UNL     1      46.627   8.647  12.221  0.00  0.00    +0.000 A 
ATOM      8  C   UNL     1      47.475   7.579  11.923  0.00  0.00    +0.000 A 
ATOM      9  C   UNL     1      46.951   6.289  11.793  0.00  0.00    +0.000 A 
BRANCH   8  10
ATOM     10  C   UNL     1      48.879   7.800  11.744  0.00  0.00    +0.000 C 
ATOM     11  N   UNL     1      50.017   7.980  11.598  0.00  0.00    +0.000 NA
ENDBRANCH   8  10
ENDBRANCH   3   4
ENDBRANCH   1   3
BRANCH   1  12
ATOM     12  O   UNL     1      43.936   4.822   9.693  0.00  0.00    +0.000 OA
BRANCH  12  13
ATOM     13  C   UNL     1      44.737   3.902   9.064  0.00  0.00    +0.000 A 
ATOM     14  N   UNL     1      44.497   2.623   9.388  0.00  0.00    +0.000 NA
ATOM     15  C   UNL     1      45.274   1.700   8.788  0.00  0.00    +0.000 A 
ATOM     16  C   UNL     1      46.280   2.016   7.902  0.00  0.00    +0.000 A 
ATOM     17  C   UNL     1      46.406   3.354   7.601  0.00  0.00    +0.000 A 
ATOM     18  N   UNL     1      45.656   4.319   8.176  0.00  0.00    +0.000 NA
BRANCH  16  19
ATOM     19  C   UNL     1      47.162   1.037   7.261  0.00  0.00    +0.000 C 
ATOM     20  O   UNL     1      47.999   1.364   6.438  0.00  0.00    +0.000 OA
BRANCH  19  21
ATOM     21  O   UNL     1      47.007  -0.231   7.692  0.00  0.00    +0.000 OA
ATOM     22  H   UNL     1      46.727  -0.901   7.041  0.00  0.00    +0.000 HD
ENDBRANCH  19  21
ENDBRANCH  16  19
ENDBRANCH  12  13
ENDBRANCH   1  12
TORSDOF 7
ENDMDL
MODEL 4
REMARK VINA RESULT:    -7.323      3.141      6.048
REMARK INTER + INTRA:         -10.770
REMARK INTER:                 -10.078
REMARK INTRA:                  -0.692
REMARK UNBOUND:                -0.664
REMARK  Name = 
REMARK  8 active torsions:
REMARK  status: ('A' for Active; 'I' for Inactive)
REMARK    1  A    between atoms: C_1  and  C_2
REMARK    2  A    between atoms: C_2  and  C_3
REMARK    3  A    between atoms: C_2  and  C_14
REMARK    4  A    between atoms: C_3  and  O_4
REMARK    5  A    between atoms: O_4  and  C_5
REMARK    6  A    between atoms: C_8  and  C_9
REMARK    7  A    between atoms: C_9  and  O_11
REMARK    8  A    between atoms: C_18  and  C_19
REMARK                            x       y       z     vdW  Elec       q    Type
REMARK                         _______ _______ _______ _____ _____    ______ ____
ROOT
ATOM      1  C   UNL     1      43.277   4.981  11.308  0.00  0.00    +0.000 C 
ENDROOT
BRANCH   1   3
ATOM      2  C   UNL     1      43.378   2.456  11.740  0.00  0.00    +0.000 C 
ATOM      3  C   UNL     1      43.651   3.609  10.823  0.00  0.00    +0.000 C 
BRANCH   3   4
ATOM      4  C   UNL     1      44.633   3.452   9.739  0.00  0.00    +0.000 A 
ATOM      5  C   UNL     1      45.133   4.568   9.056  0.00  0.00    +0.000 A 
ATOM      6  C   UNL     1      46.052   4.421   8.014  0.00  0.00    +0.000 A 
ATOM      7  C   UNL     1      46.484   3.150   7.638  0.00  0.00    +0.000 A 
ATOM      8  C   UNL     1      46.002   2.026   8.311  0.00  0.00    +0.000 A 
ATOM      9  C   UNL     1      45.087   2.180   9.358  0.00  0.00    +0.000 A 
BRANCH   8  10
ATOM     10  C   UNL     1      46.435   0.715   7.930  0.00  0.00    +0.000 C 
ATOM     11  N   UNL     1      46.785  -0.349   7.621  0.00  0.00    +0.000 NA
ENDBRANCH   8  10
ENDBRANCH   3   4
ENDBRANCH   1   3
BRANCH   1  12
ATOM     12  O   UNL     1      43.550   5.029  12.705  0.00  0.00    +0.000 OA
BRANCH  12  13
ATOM     13  C   UNL     1      44.849   5.393  12.963  0.00  0.00    +0.000 A 
ATOM     14  N   UNL     1      45.216   6.581  12.458  0.00  0.00    +0.000 NA
ATOM     15  C   UNL     1      46.488   6.959  12.692  0.00  0.00    +0.000 A 
ATOM     16  C   UNL     1      47.392   6.189  13.388  0.00  0.00    +0.000 A 
ATOM     17  C   UNL     1      46.895   5.013  13.906  0.00  0.00    +0.000 A 
ATOM     18  N   UNL     1      45.631   4.585  13.698  0.00  0.00    +0.000 NA
BRANCH  16  19
ATOM     19  C   UNL     1      48.790   6.559  13.628  0.00  0.00    +0.000 C 
ATOM     20  O   UNL     1      49.278   6.547  14.744  0.00  0.00    +0.000 OA
BRANCH  19  21
ATOM     21  O   UNL     1      49.494   6.858  12.518  0.00  0.00    +0.000 OA
ATOM     22  H   UNL     1      49.142   6.554  11.661  0.00  0.00    +0.000 HD
ENDBRANCH  19  21
ENDBRANCH  16  19
ENDBRANCH  12  13
ENDBRANCH   1  12
TORSDOF 7
ENDMDL
MODEL 5
REMARK VINA RESULT:    -7.001      1.807      2.389
REMARK INTER + INTRA:         -10.325
REMARK INTER:                  -9.690
REMARK INTRA:                  -0.635
REMARK UNBOUND:                -0.664
REMARK  Name = 
REMARK  8 active torsions:
REMARK  status: ('A' for Active; 'I' for Inactive)
REMARK    1  A    between atoms: C_1  and  C_2
REMARK    2  A    between atoms: C_2  and  C_3
REMARK    3  A    between atoms: C_2  and  C_14
REMARK    4  A    between atoms: C_3  and  O_4
REMARK    5  A    between atoms: O_4  and  C_5
REMARK    6  A    between atoms: C_8  and  C_9
REMARK    7  A    between atoms: C_9  and  O_11
REMARK    8  A    between atoms: C_18  and  C_19
REMARK                            x       y       z     vdW  Elec       q    Type
REMARK                         _______ _______ _______ _____ _____    ______ ____
ROOT
ATOM      1  C   UNL     1      43.632   4.243  10.211  0.00  0.00    +0.000 C 
ENDROOT
BRANCH   1   3
ATOM      2  C   UNL     1      42.468   5.829  11.856  0.00  0.00    +0.000 C 
ATOM      3  C   UNL     1      43.653   4.973  11.525  0.00  0.00    +0.000 C 
BRANCH   3   4
ATOM      4  C   UNL     1      44.929   5.205  12.219  0.00  0.00    +0.000 A 
ATOM      5  C   UNL     1      45.278   4.454  13.349  0.00  0.00    +0.000 A 
ATOM      6  C   UNL     1      46.480   4.686  14.022  0.00  0.00    +0.000 A 
ATOM      7  C   UNL     1      47.352   5.676  13.573  0.00  0.00    +0.000 A 
ATOM      8  C   UNL     1      47.025   6.430  12.444  0.00  0.00    +0.000 A 
ATOM      9  C   UNL     1      45.822   6.190  11.772  0.00  0.00    +0.000 A 
BRANCH   8  10
ATOM     10  C   UNL     1      47.911   7.453  11.977  0.00  0.00    +0.000 C 
ATOM     11  N   UNL     1      48.630   8.283  11.598  0.00  0.00    +0.000 NA
ENDBRANCH   8  10
ENDBRANCH   3   4
ENDBRANCH   1   3
BRANCH   1  12
ATOM     12  O   UNL     1      44.480   3.107  10.339  0.00  0.00    +0.000 OA
BRANCH  12  13
ATOM     13  C   UNL     1      45.242   2.905   9.214  0.00  0.00    +0.000 A 
ATOM     14  N   UNL     1      45.528   4.015   8.516  0.00  0.00    +0.000 NA
ATOM     15  C   UNL     1      46.269   3.843   7.403  0.00  0.00    +0.000 A 
ATOM     16  C   UNL     1      46.709   2.614   6.967  0.00  0.00    +0.000 A 
ATOM     17  C   UNL     1      46.402   1.550   7.786  0.00  0.00    +0.000 A 
ATOM     18  N   UNL     1      45.659   1.665   8.908  0.00  0.00    +0.000 NA
BRANCH  16  19
ATOM     19  C   UNL     1      47.486   2.394   5.745  0.00  0.00    +0.000 C 
ATOM     20  O   UNL     1      47.164   2.885   4.678  0.00  0.00    +0.000 OA
BRANCH  19  21
ATOM     21  O   UNL     1      48.602   1.655   5.910  0.00  0.00    +0.000 OA
ATOM     22  H   UNL     1      48.959   1.191   5.130  0.00  0.00    +0.000 HD
ENDBRANCH  19  21
ENDBRANCH  16  19
ENDBRANCH  12  13
ENDBRANCH   1  12
TORSDOF 7
ENDMDL
MODEL 6
REMARK VINA RESULT:    -6.458      2.626      4.373
REMARK INTER + INTRA:          -9.576
REMARK INTER:                  -9.139
REMARK INTRA:                  -0.437
REMARK UNBOUND:                -0.664
REMARK  Name = 
REMARK  8 active torsions:
REMARK  status: ('A' for Active; 'I' for Inactive)
REMARK    1  A    between atoms: C_1  and  C_2
REMARK    2  A    between atoms: C_2  and  C_3
REMARK    3  A    between atoms: C_2  and  C_14
REMARK    4  A    between atoms: C_3  and  O_4
REMARK    5  A    between atoms: O_4  and  C_5
REMARK    6  A    between atoms: C_8  and  C_9
REMARK    7  A    between atoms: C_9  and  O_11
REMARK    8  A    between atoms: C_18  and  C_19
REMARK                            x       y       z     vdW  Elec       q    Type
REMARK                         _______ _______ _______ _____ _____    ______ ____
ROOT
ATOM      1  C   UNL     1      45.646   5.886  10.588  0.00  0.00    +0.000 C 
ENDROOT
BRANCH   1   3
ATOM      2  C   UNL     1      43.953   5.822  12.513  0.00  0.00    +0.000 C 
ATOM      3  C   UNL     1      44.885   6.622  11.655  0.00  0.00    +0.000 C 
BRANCH   3   4
ATOM      4  C   UNL     1      44.709   8.080  11.563  0.00  0.00    +0.000 A 
ATOM      5  C   UNL     1      45.688   8.953  12.055  0.00  0.00    +0.000 A 
ATOM      6  C   UNL     1      45.515  10.338  11.986  0.00  0.00    +0.000 A 
ATOM      7  C   UNL     1      44.357  10.870  11.423  0.00  0.00    +0.000 A 
ATOM      8  C   UNL     1      43.373  10.016  10.921  0.00  0.00    +0.000 A 
ATOM      9  C   UNL     1      43.554   8.630  10.987  0.00  0.00    +0.000 A 
BRANCH   8  10
ATOM     10  C   UNL     1      42.177  10.551  10.345  0.00  0.00    +0.000 C 
ATOM     11  N   UNL     1      41.205  10.985   9.877  0.00  0.00    +0.000 NA
ENDBRANCH   8  10
ENDBRANCH   3   4
ENDBRANCH   1   3
BRANCH   1  12
ATOM     12  O   UNL     1      44.720   5.046   9.905  0.00  0.00    +0.000 OA
BRANCH  12  13
ATOM     13  C   UNL     1      45.354   4.137   9.094  0.00  0.00    +0.000 A 
ATOM     14  N   UNL     1      45.128   2.851   9.400  0.00  0.00    +0.000 NA
ATOM     15  C   UNL     1      45.743   1.937   8.622  0.00  0.00    +0.000 A 
ATOM     16  C   UNL     1      46.577   2.269   7.578  0.00  0.00    +0.000 A 
ATOM     17  C   UNL     1      46.696   3.616   7.320  0.00  0.00    +0.000 A 
ATOM     18  N   UNL     1      46.106   4.572   8.070  0.00  0.00    +0.000 NA
BRANCH  16  19
ATOM     19  C   UNL     1      47.285   1.299   6.739  0.00  0.00    +0.000 C 
ATOM     20  O   UNL     1      46.960   0.125   6.695  0.00  0.00    +0.000 OA
BRANCH  19  21
ATOM     21  O   UNL     1      48.277   1.818   5.989  0.00  0.00    +0.000 OA
ATOM     22  H   UNL     1      48.482   2.765   6.100  0.00  0.00    +0.000 HD
ENDBRANCH  19  21
ENDBRANCH  16  19
ENDBRANCH  12  13
ENDBRANCH   1  12
TORSDOF 7
ENDMDL
MODEL 7
REMARK VINA RESULT:    -6.380      1.699      2.522
REMARK INTER + INTRA:          -9.468
REMARK INTER:                  -8.905
REMARK INTRA:                  -0.563
REMARK UNBOUND:                -0.664
REMARK  Name = 
REMARK  8 active torsions:
REMARK  status: ('A' for Active; 'I' for Inactive)
REMARK    1  A    between atoms: C_1  and  C_2
REMARK    2  A    between atoms: C_2  and  C_3
REMARK    3  A    between atoms: C_2  and  C_14
REMARK    4  A    between atoms: C_3  and  O_4
REMARK    5  A    between atoms: O_4  and  C_5
REMARK    6  A    between atoms: C_8  and  C_9
REMARK    7  A    between atoms: C_9  and  O_11
REMARK    8  A    between atoms: C_18  and  C_19
REMARK                            x       y       z     vdW  Elec       q    Type
REMARK                         _______ _______ _______ _____ _____    ______ ____
ROOT
ATOM      1  C   UNL     1      45.265   6.055  10.911  0.00  0.00    +0.000 C 
ENDROOT
BRANCH   1   3
ATOM      2  C   UNL     1      45.283   4.920  13.210  0.00  0.00    +0.000 C 
ATOM      3  C   UNL     1      46.020   5.694  12.159  0.00  0.00    +0.000 C 
BRANCH   3   4
ATOM      4  C   UNL     1      47.233   6.440  12.530  0.00  0.00    +0.000 A 
ATOM      5  C   UNL     1      47.892   7.247  11.594  0.00  0.00    +0.000 A 
ATOM      6  C   UNL     1      49.055   7.941  11.938  0.00  0.00    +0.000 A 
ATOM      7  C   UNL     1      49.576   7.836  13.227  0.00  0.00    +0.000 A 
ATOM      8  C   UNL     1      48.928   7.042  14.175  0.00  0.00    +0.000 A 
ATOM      9  C   UNL     1      47.762   6.354  13.827  0.00  0.00    +0.000 A 
BRANCH   8  10
ATOM     10  C   UNL     1      49.457   6.923  15.500  0.00  0.00    +0.000 C 
ATOM     11  N   UNL     1      49.887   6.826  16.576  0.00  0.00    +0.000 NA
ENDBRANCH   8  10
ENDBRANCH   3   4
ENDBRANCH   1   3
BRANCH   1  12
ATOM     12  O   UNL     1      44.592   4.882  10.464  0.00  0.00    +0.000 OA
BRANCH  12  13
ATOM     13  C   UNL     1      45.252   4.276   9.424  0.00  0.00    +0.000 A 
ATOM     14  N   UNL     1      45.148   2.939   9.388  0.00  0.00    +0.000 NA
ATOM     15  C   UNL     1      45.792   2.318   8.380  0.00  0.00    +0.000 A 
ATOM     16  C   UNL     1      46.540   2.984   7.435  0.00  0.00    +0.000 A 
ATOM     17  C   UNL     1      46.537   4.357   7.535  0.00  0.00    +0.000 A 
ATOM     18  N   UNL     1      45.912   5.029   8.527  0.00  0.00    +0.000 NA
BRANCH  16  19
ATOM     19  C   UNL     1      47.278   2.333   6.349  0.00  0.00    +0.000 C 
ATOM     20  O   UNL     1      47.090   2.618   5.179  0.00  0.00    +0.000 OA
BRANCH  19  21
ATOM     21  O   UNL     1      48.208   1.443   6.751  0.00  0.00    +0.000 OA
ATOM     22  H   UNL     1      49.143   1.715   6.714  0.00  0.00    +0.000 HD
ENDBRANCH  19  21
ENDBRANCH  16  19
ENDBRANCH  12  13
ENDBRANCH   1  12
TORSDOF 7
ENDMDL
MODEL 8
REMARK VINA RESULT:    -6.373      3.943      6.650
REMARK INTER + INTRA:          -9.458
REMARK INTER:                  -9.020
REMARK INTRA:                  -0.438
REMARK UNBOUND:                -0.664
REMARK  Name = 
REMARK  8 active torsions:
REMARK  status: ('A' for Active; 'I' for Inactive)
REMARK    1  A    between atoms: C_1  and  C_2
REMARK    2  A    between atoms: C_2  and  C_3
REMARK    3  A    between atoms: C_2  and  C_14
REMARK    4  A    between atoms: C_3  and  O_4
REMARK    5  A    between atoms: O_4  and  C_5
REMARK    6  A    between atoms: C_8  and  C_9
REMARK    7  A    between atoms: C_9  and  O_11
REMARK    8  A    between atoms: C_18  and  C_19
REMARK                            x       y       z     vdW  Elec       q    Type
REMARK                         _______ _______ _______ _____ _____    ______ ____
ROOT
ATOM      1  C   UNL     1      47.631   4.222  15.525  0.00  0.00    +0.000 C 
ENDROOT
BRANCH   1   3
ATOM      2  C   UNL     1      47.114   2.823  17.611  0.00  0.00    +0.000 C 
ATOM      3  C   UNL     1      48.134   3.385  16.667  0.00  0.00    +0.000 C 
BRANCH   3   4
ATOM      4  C   UNL     1      49.536   3.494  17.100  0.00  0.00    +0.000 A 
ATOM      5  C   UNL     1      50.128   4.747  17.304  0.00  0.00    +0.000 A 
ATOM      6  C   UNL     1      51.464   4.855  17.697  0.00  0.00    +0.000 A 
ATOM      7  C   UNL     1      52.229   3.706  17.892  0.00  0.00    +0.000 A 
ATOM      8  C   UNL     1      51.655   2.448  17.701  0.00  0.00    +0.000 A 
ATOM      9  C   UNL     1      50.315   2.347  17.313  0.00  0.00    +0.000 A 
BRANCH   8  10
ATOM     10  C   UNL     1      52.432   1.262  17.894  0.00  0.00    +0.000 C 
ATOM     11  N   UNL     1      53.064   0.299  18.051  0.00  0.00    +0.000 NA
ENDBRANCH   8  10
ENDBRANCH   3   4
ENDBRANCH   1   3
BRANCH   1  12
ATOM     12  O   UNL     1      47.387   3.346  14.428  0.00  0.00    +0.000 OA
BRANCH  12  13
ATOM     13  C   UNL     1      46.349   3.784  13.642  0.00  0.00    +0.000 A 
ATOM     14  N   UNL     1      46.026   5.077  13.799  0.00  0.00    +0.000 NA
ATOM     15  C   UNL     1      45.006   5.531  13.042  0.00  0.00    +0.000 A 
ATOM     16  C   UNL     1      44.302   4.737  12.164  0.00  0.00    +0.000 A 
ATOM     17  C   UNL     1      44.752   3.441  12.045  0.00  0.00    +0.000 A 
ATOM     18  N   UNL     1      45.765   2.935  12.781  0.00  0.00    +0.000 NA
BRANCH  16  19
ATOM     19  C   UNL     1      43.169   5.195  11.356  0.00  0.00    +0.000 C 
ATOM     20  O   UNL     1      42.129   5.578  11.861  0.00  0.00    +0.000 OA
BRANCH  19  21
ATOM     21  O   UNL     1      43.390   5.204  10.026  0.00  0.00    +0.000 OA
ATOM     22  H   UNL     1      44.130   4.668   9.685  0.00  0.00    +0.000 HD
ENDBRANCH  19  21
ENDBRANCH  16  19
ENDBRANCH  12  13
ENDBRANCH   1  12
TORSDOF 7
ENDMDL
MODEL 9
REMARK VINA RESULT:    -6.164      3.975      7.441
REMARK INTER + INTRA:          -9.171
REMARK INTER:                  -8.695
REMARK INTRA:                  -0.476
REMARK UNBOUND:                -0.664
REMARK  Name = 
REMARK  8 active torsions:
REMARK  status: ('A' for Active; 'I' for Inactive)
REMARK    1  A    between atoms: C_1  and  C_2
REMARK    2  A    between atoms: C_2  and  C_3
REMARK    3  A    between atoms: C_2  and  C_14
REMARK    4  A    between atoms: C_3  and  O_4
REMARK    5  A    between atoms: O_4  and  C_5
REMARK    6  A    between atoms: C_8  and  C_9
REMARK    7  A    between atoms: C_9  and  O_11
REMARK    8  A    between atoms: C_18  and  C_19
REMARK                            x       y       z     vdW  Elec       q    Type
REMARK                         _______ _______ _______ _____ _____    ______ ____
ROOT
ATOM      1  C   UNL     1      45.696   5.877  13.259  0.00  0.00    +0.000 C 
ENDROOT
BRANCH   1   3
ATOM      2  C   UNL     1      44.909   7.460  11.402  0.00  0.00    +0.000 C 
ATOM      3  C   UNL     1      45.381   6.096  11.806  0.00  0.00    +0.000 C 
BRANCH   3   4
ATOM      4  C   UNL     1      45.105   4.947  10.929  0.00  0.00    +0.000 A 
ATOM      5  C   UNL     1      44.316   3.878  11.374  0.00  0.00    +0.000 A 
ATOM      6  C   UNL     1      44.068   2.778  10.550  0.00  0.00    +0.000 A 
ATOM      7  C   UNL     1      44.608   2.731   9.266  0.00  0.00    +0.000 A 
ATOM      8  C   UNL     1      45.391   3.790   8.802  0.00  0.00    +0.000 A 
ATOM      9  C   UNL     1      45.631   4.891   9.629  0.00  0.00    +0.000 A 
BRANCH   8  10
ATOM     10  C   UNL     1      45.955   3.749   7.487  0.00  0.00    +0.000 C 
ATOM     11  N   UNL     1      46.413   3.716   6.419  0.00  0.00    +0.000 NA
ENDBRANCH   8  10
ENDBRANCH   3   4
ENDBRANCH   1   3
BRANCH   1  12
ATOM     12  O   UNL     1      46.994   5.298  13.333  0.00  0.00    +0.000 OA
BRANCH  12  13
ATOM     13  C   UNL     1      47.366   5.035  14.629  0.00  0.00    +0.000 A 
ATOM     14  N   UNL     1      48.277   5.878  15.139  0.00  0.00    +0.000 NA
ATOM     15  C   UNL     1      48.663   5.638  16.409  0.00  0.00    +0.000 A 
ATOM     16  C   UNL     1      48.187   4.588  17.160  0.00  0.00    +0.000 A 
ATOM     17  C   UNL     1      47.219   3.817  16.556  0.00  0.00    +0.000 A 
ATOM     18  N   UNL     1      46.799   4.010  15.287  0.00  0.00    +0.000 NA
BRANCH  16  19
ATOM     19  C   UNL     1      48.615   4.283  18.529  0.00  0.00    +0.000 C 
ATOM     20  O   UNL     1      49.181   5.106  19.226  0.00  0.00    +0.000 OA
BRANCH  19  21
ATOM     21  O   UNL     1      48.285   3.050  18.963  0.00  0.00    +0.000 OA
ATOM     22  H   UNL     1      48.716   2.724  19.774  0.00  0.00    +0.000 HD
ENDBRANCH  19  21
ENDBRANCH  16  19
ENDBRANCH  12  13
ENDBRANCH   1  12
TORSDOF 7
ENDMDL
