MODEL 1
REMARK VINA RESULT:    -7.516      0.000      0.000
REMARK INTER + INTRA:          -8.706
REMARK INTER:                  -8.395
REMARK INTRA:                  -0.311
REMARK UNBOUND:                -0.311
REMARK  Name = 
REMARK  2 active torsions:
REMARK  status: ('A' for Active; 'I' for Inactive)
REMARK    1  A    between atoms: C_4  and  C_5
REMARK    2  A    between atoms: C_5  and  N_6
REMARK                            x       y       z     vdW  Elec       q    Type
REMARK                         _______ _______ _______ _____ _____    ______ ____
ROOT
ATOM      1  N   UNL     1      44.392   4.102  10.740  0.00  0.00    +0.000 N 
ATOM      2  C   UNL     1      43.877   3.210  11.643  0.00  0.00    +0.000 A 
ATOM      3  N   UNL     1      44.389   3.380  12.840  0.00  0.00    +0.000 NA
ATOM      4  C   UNL     1      45.268   4.425  12.712  0.00  0.00    +0.000 A 
ATOM      5  C   UNL     1      46.107   5.012  13.671  0.00  0.00    +0.000 A 
ATOM      6  C   UNL     1      46.923   6.084  13.293  0.00  0.00    +0.000 A 
ATOM      7  C   UNL     1      46.902   6.569  11.985  0.00  0.00    +0.000 A 
ATOM      8  C   UNL     1      46.081   5.992  11.010  0.00  0.00    +0.000 A 
ATOM      9  C   UNL     1      45.280   4.915  11.405  0.00  0.00    +0.000 A 
ENDROOT
BRANCH   1  10
ATOM     10  C   UNL     1      44.142   4.076   9.311  0.00  0.00    +0.000 C 
BRANCH  10  14
ATOM     11  C   UNL     1      47.190   2.157   7.041  0.00  0.00    +0.000 A 
ATOM     12  C   UNL     1      46.463   1.397   7.947  0.00  0.00    +0.000 A 
ATOM     13  C   UNL     1      45.466   2.005   8.706  0.00  0.00    +0.000 A 
ATOM     14  C   UNL     1      45.228   3.369   8.544  0.00  0.00    +0.000 A 
ATOM     15  N   UNL     1      45.927   4.120   7.654  0.00  0.00    +0.000 NA
ATOM     16  C   UNL     1      46.886   3.502   6.929  0.00  0.00    +0.000 A 
ENDBRANCH  10  14
ENDBRANCH   1  10
TORSDOF 2
ENDMDL
MODEL 2
REMARK VINA RESULT:    -7.399      0.744      1.211
REMARK INTER + INTRA:          -8.575
REMARK INTER:                  -8.239
REMARK INTRA:                  -0.336
REMARK UNBOUND:                -0.311
REMARK  Name = 
REMARK  2 active torsions:
REMARK  status: ('A' for Active; 'I' for Inactive)
REMARK    1  A    between atoms: C_4  and  C_5
REMARK    2  A    between atoms: C_5  and  N_6
REMARK                            x       y       z     vdW  Elec       q    Type
REMARK                         _______ _______ _______ _____ _____    ______ ____
ROOT
ATOM      1  N   UNL     1      44.429   3.987  10.678  0.00  0.00    +0.000 N 
ATOM      2  C   UNL     1      43.965   3.087  11.600  0.00  0.00    +0.000 A 
ATOM      3  N   UNL     1      44.476   3.303  12.790  0.00  0.00    +0.000 NA
ATOM      4  C   UNL     1      45.300   4.388  12.637  0.00  0.00    +0.000 A 
ATOM      5  C   UNL     1      46.114   5.033  13.581  0.00  0.00    +0.000 A 
ATOM      6  C   UNL     1      46.874   6.138  13.178  0.00  0.00    +0.000 A 
ATOM      7  C   UNL     1      46.820   6.598  11.862  0.00  0.00    +0.000 A 
ATOM      8  C   UNL     1      46.024   5.965  10.903  0.00  0.00    +0.000 A 
ATOM      9  C   UNL     1      45.279   4.856  11.323  0.00  0.00    +0.000 A 
ENDROOT
BRANCH   1  10
ATOM     10  C   UNL     1      44.171   3.924   9.251  0.00  0.00    +0.000 C 
BRANCH  10  14
ATOM     11  C   UNL     1      47.223   1.752   7.227  0.00  0.00    +0.000 A 
ATOM     12  C   UNL     1      47.128   3.119   7.007  0.00  0.00    +0.000 A 
ATOM     13  C   UNL     1      46.133   3.849   7.652  0.00  0.00    +0.000 A 
ATOM     14  C   UNL     1      45.247   3.185   8.499  0.00  0.00    +0.000 A 
ATOM     15  N   UNL     1      45.336   1.849   8.729  0.00  0.00    +0.000 NA
ATOM     16  C   UNL     1      46.314   1.168   8.092  0.00  0.00    +0.000 A 
ENDBRANCH  10  14
ENDBRANCH   1  10
TORSDOF 2
ENDMDL
MODEL 3
REMARK VINA RESULT:    -7.119      1.600      5.637
REMARK INTER + INTRA:          -8.262
REMARK INTER:                  -8.120
REMARK INTRA:                  -0.143
REMARK UNBOUND:                -0.311
REMARK  Name = 
REMARK  2 active torsions:
REMARK  status: ('A' for Active; 'I' for Inactive)
REMARK    1  A    between atoms: C_4  and  C_5
REMARK    2  A    between atoms: C_5  and  N_6
REMARK                            x       y       z     vdW  Elec       q    Type
REMARK                         _______ _______ _______ _____ _____    ______ ____
ROOT
ATOM      1  N   UNL     1      44.971   3.086   9.046  0.00  0.00    +0.000 N 
ATOM      2  C   UNL     1      45.116   4.408   8.719  0.00  0.00    +0.000 A 
ATOM      3  N   UNL     1      46.039   4.583   7.802  0.00  0.00    +0.000 NA
ATOM      4  C   UNL     1      46.509   3.327   7.517  0.00  0.00    +0.000 A 
ATOM      5  C   UNL     1      47.517   2.929   6.626  0.00  0.00    +0.000 A 
ATOM      6  C   UNL     1      47.818   1.567   6.508  0.00  0.00    +0.000 A 
ATOM      7  C   UNL     1      47.125   0.616   7.257  0.00  0.00    +0.000 A 
ATOM      8  C   UNL     1      46.123   0.991   8.158  0.00  0.00    +0.000 A 
ATOM      9  C   UNL     1      45.843   2.358   8.270  0.00  0.00    +0.000 A 
ENDROOT
BRANCH   1  10
ATOM     10  C   UNL     1      44.144   2.582  10.126  0.00  0.00    +0.000 C 
BRANCH  10  14
ATOM     11  C   UNL     1      43.581   5.483  13.192  0.00  0.00    +0.000 A 
ATOM     12  C   UNL     1      44.782   4.787  13.153  0.00  0.00    +0.000 A 
ATOM     13  C   UNL     1      44.985   3.827  12.164  0.00  0.00    +0.000 A 
ATOM     14  C   UNL     1      43.970   3.582  11.239  0.00  0.00    +0.000 A 
ATOM     15  N   UNL     1      42.796   4.264  11.263  0.00  0.00    +0.000 NA
ATOM     16  C   UNL     1      42.629   5.191  12.232  0.00  0.00    +0.000 A 
ENDBRANCH  10  14
ENDBRANCH   1  10
TORSDOF 2
ENDMDL
MODEL 4
REMARK VINA RESULT:    -6.897      1.452      2.051
REMARK INTER + INTRA:          -8.014
REMARK INTER:                  -7.812
REMARK INTRA:                  -0.202
REMARK UNBOUND:                -0.311
REMARK  Name = 
REMARK  2 active torsions:
REMARK  status: ('A' for Active; 'I' for Inactive)
REMARK    1  A    between atoms: C_4  and  C_5
REMARK    2  A    between atoms: C_5  and  N_6
REMARK                            x       y       z     vdW  Elec       q    Type
REMARK                         _______ _______ _______ _____ _____    ______ ____
ROOT
ATOM      1  N   UNL     1      44.384   3.687  10.484  0.00  0.00    +0.000 N 
ATOM      2  C   UNL     1      43.604   4.783  10.224  0.00  0.00    +0.000 A 
ATOM      3  N   UNL     1      43.753   5.713  11.138  0.00  0.00    +0.000 NA
ATOM      4  C   UNL     1      44.670   5.206  12.024  0.00  0.00    +0.000 A 
ATOM      5  C   UNL     1      45.181   5.769  13.203  0.00  0.00    +0.000 A 
ATOM      6  C   UNL     1      46.122   5.047  13.945  0.00  0.00    +0.000 A 
ATOM      7  C   UNL     1      46.553   3.789  13.521  0.00  0.00    +0.000 A 
ATOM      8  C   UNL     1      46.049   3.205  12.354  0.00  0.00    +0.000 A 
ATOM      9  C   UNL     1      45.102   3.938  11.630  0.00  0.00    +0.000 A 
ENDROOT
BRANCH   1  10
ATOM     10  C   UNL     1      44.333   2.437   9.749  0.00  0.00    +0.000 C 
BRANCH  10  14
ATOM     11  C   UNL     1      47.354   2.121   6.765  0.00  0.00    +0.000 A 
ATOM     12  C   UNL     1      46.747   3.354   6.963  0.00  0.00    +0.000 A 
ATOM     13  C   UNL     1      45.751   3.479   7.928  0.00  0.00    +0.000 A 
ATOM     14  C   UNL     1      45.379   2.357   8.668  0.00  0.00    +0.000 A 
ATOM     15  N   UNL     1      45.973   1.149   8.489  0.00  0.00    +0.000 NA
ATOM     16  C   UNL     1      46.939   1.058   7.547  0.00  0.00    +0.000 A 
ENDBRANCH  10  14
ENDBRANCH   1  10
TORSDOF 2
ENDMDL
MODEL 5
REMARK VINA RESULT:    -6.721      1.369      5.280
REMARK INTER + INTRA:          -7.818
REMARK INTER:                  -7.445
REMARK INTRA:                  -0.374
REMARK UNBOUND:                -0.311
REMARK  Name = 
REMARK  2 active torsions:
REMARK  status: ('A' for Active; 'I' for Inactive)
REMARK    1  A    between atoms: C_4  and  C_5
REMARK    2  A    between atoms: C_5  and  N_6
REMARK                            x       y       z     vdW  Elec       q    Type
REMARK                         _______ _______ _______ _____ _____    ______ ____
ROOT
ATOM      1  N   UNL     1      44.870   3.218   8.973  0.00  0.00    +0.000 N 
ATOM      2  C   UNL     1      44.491   1.986   9.437  0.00  0.00    +0.000 A 
ATOM      3  N   UNL     1      45.208   1.024   8.904  0.00  0.00    +0.000 NA
ATOM      4  C   UNL     1      46.091   1.654   8.065  0.00  0.00    +0.000 A 
ATOM      5  C   UNL     1      47.075   1.108   7.227  0.00  0.00    +0.000 A 
ATOM      6  C   UNL     1      47.864   1.970   6.457  0.00  0.00    +0.000 A 
ATOM      7  C   UNL     1      47.684   3.352   6.524  0.00  0.00    +0.000 A 
ATOM      8  C   UNL     1      46.703   3.917   7.345  0.00  0.00    +0.000 A 
ATOM      9  C   UNL     1      45.918   3.039   8.100  0.00  0.00    +0.000 A 
ENDROOT
BRANCH   1  10
ATOM     10  C   UNL     1      44.177   4.461   9.254  0.00  0.00    +0.000 C 
BRANCH  10  14
ATOM     11  C   UNL     1      45.363   6.312  12.900  0.00  0.00    +0.000 A 
ATOM     12  C   UNL     1      46.189   6.444  11.793  0.00  0.00    +0.000 A 
ATOM     13  C   UNL     1      45.826   5.841  10.591  0.00  0.00    +0.000 A 
ATOM     14  C   UNL     1      44.641   5.108  10.532  0.00  0.00    +0.000 A 
ATOM     15  N   UNL     1      43.820   4.981  11.607  0.00  0.00    +0.000 NA
ATOM     16  C   UNL     1      44.198   5.580  12.758  0.00  0.00    +0.000 A 
ENDBRANCH  10  14
ENDBRANCH   1  10
TORSDOF 2
ENDMDL
MODEL 6
REMARK VINA RESULT:    -6.418      1.833      5.155
REMARK INTER + INTRA:          -7.480
REMARK INTER:                  -7.137
REMARK INTRA:                  -0.343
REMARK UNBOUND:                -0.311
REMARK  Name = 
REMARK  2 active torsions:
REMARK  status: ('A' for Active; 'I' for Inactive)
REMARK    1  A    between atoms: C_4  and  C_5
REMARK    2  A    between atoms: C_5  and  N_6
REMARK                            x       y       z     vdW  Elec       q    Type
REMARK                         _______ _______ _______ _____ _____    ______ ____
ROOT
ATOM      1  N   UNL     1      44.145   4.639  11.638  0.00  0.00    +0.000 N 
ATOM      2  C   UNL     1      43.393   3.564  12.032  0.00  0.00    +0.000 A 
ATOM      3  N   UNL     1      43.395   2.612  11.128  0.00  0.00    +0.000 NA
ATOM      4  C   UNL     1      44.183   3.084  10.109  0.00  0.00    +0.000 A 
ATOM      5  C   UNL     1      44.511   2.487   8.882  0.00  0.00    +0.000 A 
ATOM      6  C   UNL     1      45.347   3.176   7.996  0.00  0.00    +0.000 A 
ATOM      7  C   UNL     1      45.854   4.433   8.326  0.00  0.00    +0.000 A 
ATOM      8  C   UNL     1      45.532   5.051   9.538  0.00  0.00    +0.000 A 
ATOM      9  C   UNL     1      44.687   4.351  10.407  0.00  0.00    +0.000 A 
ENDROOT
BRANCH   1  10
ATOM     10  C   UNL     1      44.221   5.905  12.344  0.00  0.00    +0.000 C 
BRANCH  10  14
ATOM     11  C   UNL     1      48.091   6.647  13.955  0.00  0.00    +0.000 A 
ATOM     12  C   UNL     1      47.515   7.617  13.146  0.00  0.00    +0.000 A 
ATOM     13  C   UNL     1      46.253   7.392  12.601  0.00  0.00    +0.000 A 
ATOM     14  C   UNL     1      45.601   6.191  12.876  0.00  0.00    +0.000 A 
ATOM     15  N   UNL     1      46.151   5.240  13.674  0.00  0.00    +0.000 NA
ATOM     16  C   UNL     1      47.375   5.487  14.191  0.00  0.00    +0.000 A 
ENDBRANCH  10  14
ENDBRANCH   1  10
TORSDOF 2
ENDMDL
MODEL 7
REMARK VINA RESULT:    -6.346      1.433      2.297
REMARK INTER + INTRA:          -7.400
REMARK INTER:                  -7.051
REMARK INTRA:                  -0.349
REMARK UNBOUND:                -0.311
REMARK  Name = 
REMARK  2 active torsions:
REMARK  status: ('A' for Active; 'I' for Inactive)
REMARK    1  A    between atoms: C_4  and  C_5
REMARK    2  A    between atoms: C_5  and  N_6
REMARK                            x       y       z     vdW  Elec       q    Type
REMARK                         _______ _______ _______ _____ _____    ______ ____
ROOT
ATOM      1  N   UNL     1      44.843   5.074  11.092  0.00  0.00    +0.000 N 
ATOM      2  C   UNL     1      44.790   6.443  11.088  0.00  0.00    +0.000 A 
ATOM      3  N   UNL     1      45.451   6.957  12.098  0.00  0.00    +0.000 NA
ATOM      4  C   UNL     1      45.958   5.883  12.784  0.00  0.00    +0.000 A 
ATOM      5  C   UNL     1      46.725   5.851  13.958  0.00  0.00    +0.000 A 
ATOM      6  C   UNL     1      47.130   4.613  14.470  0.00  0.00    +0.000 A 
ATOM      7  C   UNL     1      46.785   3.427  13.822  0.00  0.00    +0.000 A 
ATOM      8  C   UNL     1      46.013   3.434  12.656  0.00  0.00    +0.000 A 
ATOM      9  C   UNL     1      45.609   4.681  12.165  0.00  0.00    +0.000 A 
ENDROOT
BRANCH   1  10
ATOM     10  C   UNL     1      44.093   4.210  10.199  0.00  0.00    +0.000 C 
BRANCH  10  14
ATOM     11  C   UNL     1      46.598   2.202   7.404  0.00  0.00    +0.000 A 
ATOM     12  C   UNL     1      46.472   3.581   7.306  0.00  0.00    +0.000 A 
ATOM     13  C   UNL     1      45.651   4.259   8.205  0.00  0.00    +0.000 A 
ATOM     14  C   UNL     1      44.968   3.531   9.178  0.00  0.00    +0.000 A 
ATOM     15  N   UNL     1      45.092   2.183   9.289  0.00  0.00    +0.000 NA
ATOM     16  C   UNL     1      45.897   1.554   8.404  0.00  0.00    +0.000 A 
ENDBRANCH  10  14
ENDBRANCH   1  10
TORSDOF 2
ENDMDL
MODEL 8
REMARK VINA RESULT:    -6.017      1.705      2.562
REMARK INTER + INTRA:          -7.032
REMARK INTER:                  -6.707
REMARK INTRA:                  -0.324
REMARK UNBOUND:                -0.311
REMARK  Name = 
REMARK  2 active torsions:
REMARK  status: ('A' for Active; 'I' for Inactive)
REMARK    1  A    between atoms: C_4  and  C_5
REMARK    2  A    between atoms: C_5  and  N_6
REMARK                            x       y       z     vdW  Elec       q    Type
REMARK                         _______ _______ _______ _____ _____    ______ ____
ROOT
ATOM      1  N   UNL     1      45.510   4.946  12.773  0.00  0.00    +0.000 N 
ATOM      2  C   UNL     1      46.445   4.072  13.261  0.00  0.00    +0.000 A 
ATOM      3  N   UNL     1      47.479   4.701  13.769  0.00  0.00    +0.000 NA
ATOM      4  C   UNL     1      47.204   6.035  13.611  0.00  0.00    +0.000 A 
ATOM      5  C   UNL     1      47.977   7.155  13.956  0.00  0.00    +0.000 A 
ATOM      6  C   UNL     1      47.472   8.433  13.692  0.00  0.00    +0.000 A 
ATOM      7  C   UNL     1      46.219   8.597  13.101  0.00  0.00    +0.000 A 
ATOM      8  C   UNL     1      45.437   7.495  12.741  0.00  0.00    +0.000 A 
ATOM      9  C   UNL     1      45.962   6.225  13.004  0.00  0.00    +0.000 A 
ENDROOT
BRANCH   1  10
ATOM     10  C   UNL     1      44.331   4.567  12.018  0.00  0.00    +0.000 C 
BRANCH  10  14
ATOM     11  C   UNL     1      45.255   3.193   8.095  0.00  0.00    +0.000 A 
ATOM     12  C   UNL     1      44.611   2.324   8.965  0.00  0.00    +0.000 A 
ATOM     13  C   UNL     1      44.306   2.748  10.256  0.00  0.00    +0.000 A 
ATOM     14  C   UNL     1      44.664   4.038  10.647  0.00  0.00    +0.000 A 
ATOM     15  N   UNL     1      45.285   4.900   9.801  0.00  0.00    +0.000 NA
ATOM     16  C   UNL     1      45.565   4.461   8.554  0.00  0.00    +0.000 A 
ENDBRANCH  10  14
ENDBRANCH   1  10
TORSDOF 2
ENDMDL
MODEL 9
REMARK VINA RESULT:    -5.836      1.923      5.159
REMARK INTER + INTRA:          -6.829
REMARK INTER:                  -6.440
REMARK INTRA:                  -0.390
REMARK UNBOUND:                -0.311
REMARK  Name = 
REMARK  2 active torsions:
REMARK  status: ('A' for Active; 'I' for Inactive)
REMARK    1  A    between atoms: C_4  and  C_5
REMARK    2  A    between atoms: C_5  and  N_6
REMARK                            x       y       z     vdW  Elec       q    Type
REMARK                         _______ _______ _______ _____ _____    ______ ____
ROOT
ATOM      1  N   UNL     1      45.245   5.283  12.009  0.00  0.00    +0.000 N 
ATOM      2  C   UNL     1      44.838   4.379  12.954  0.00  0.00    +0.000 A 
ATOM      3  N   UNL     1      44.503   3.230  12.415  0.00  0.00    +0.000 NA
ATOM      4  C   UNL     1      44.705   3.391  11.068  0.00  0.00    +0.000 A 
ATOM      5  C   UNL     1      44.487   2.488  10.016  0.00  0.00    +0.000 A 
ATOM      6  C   UNL     1      44.776   2.890   8.707  0.00  0.00    +0.000 A 
ATOM      7  C   UNL     1      45.279   4.165   8.447  0.00  0.00    +0.000 A 
ATOM      8  C   UNL     1      45.495   5.084   9.479  0.00  0.00    +0.000 A 
ATOM      9  C   UNL     1      45.191   4.667  10.780  0.00  0.00    +0.000 A 
ENDROOT
BRANCH   1  10
ATOM     10  C   UNL     1      45.535   6.681  12.267  0.00  0.00    +0.000 C 
BRANCH  10  14
ATOM     11  C   UNL     1      49.667   7.462  12.930  0.00  0.00    +0.000 A 
ATOM     12  C   UNL     1      49.156   7.651  11.653  0.00  0.00    +0.000 A 
ATOM     13  C   UNL     1      47.809   7.394  11.411  0.00  0.00    +0.000 A 
ATOM     14  C   UNL     1      47.006   6.943  12.458  0.00  0.00    +0.000 A 
ATOM     15  N   UNL     1      47.494   6.765  13.713  0.00  0.00    +0.000 NA
ATOM     16  C   UNL     1      48.804   7.025  13.919  0.00  0.00    +0.000 A 
ENDBRANCH  10  14
ENDBRANCH   1  10
TORSDOF 2
ENDMDL
