MODEL 1
REMARK VINA RESULT:    -6.937      0.000      0.000
REMARK INTER + INTRA:          -9.549
REMARK INTER:                  -9.168
REMARK INTRA:                  -0.381
REMARK UNBOUND:                -0.381
REMARK  Name = 
REMARK  6 active torsions:
REMARK  status: ('A' for Active; 'I' for Inactive)
REMARK    1  A    between atoms: N_1  and  C_2
REMARK    2  A    between atoms: C_2  and  C_3
REMARK    3  A    between atoms: C_3  and  O_4
REMARK    4  A    between atoms: O_4  and  C_5
REMARK    5  A    between atoms: C_8  and  C_9
REMARK    6  A    between atoms: C_9  and  C_10
REMARK                            x       y       z     vdW  Elec       q    Type
REMARK                         _______ _______ _______ _____ _____    ______ ____
ROOT
ATOM      1  C   UNL     1      46.354   5.291  13.198  0.00  0.00    +0.000 A 
ATOM      2  C   UNL     1      46.624   6.093  12.091  0.00  0.00    +0.000 A 
ATOM      3  C   UNL     1      45.934   5.883  10.895  0.00  0.00    +0.000 A 
ATOM      4  C   UNL     1      44.988   4.858  10.819  0.00  0.00    +0.000 A 
ATOM      5  N   UNL     1      44.702   4.072  11.890  0.00  0.00    +0.000 NA
ATOM      6  C   UNL     1      45.378   4.313  13.036  0.00  0.00    +0.000 A 
ENDROOT
BRANCH   1   7
ATOM      7  O   UNL     1      46.959   5.370  14.422  0.00  0.00    +0.000 OA
BRANCH   7   8
ATOM      8  C   UNL     1      47.128   4.128  15.113  0.00  0.00    +0.000 C 
BRANCH   8   9
ATOM      9  C   UNL     1      47.251   4.387  16.619  0.00  0.00    +0.000 C 
BRANCH   9  10
ATOM     10  N   UNL     1      46.696   3.280  17.399  0.00  0.00    +0.000 NA
ATOM     11  H   UNL     1      47.331   3.053  18.164  0.00  0.00    +0.000 HD
ATOM     12  H   UNL     1      46.646   2.441  16.819  0.00  0.00    +0.000 HD
ENDBRANCH   9  10
ENDBRANCH   8   9
ENDBRANCH   7   8
ENDBRANCH   1   7
BRANCH   4  13
ATOM     13  C   UNL     1      44.314   4.531   9.506  0.00  0.00    +0.000 C 
BRANCH  13  14
ATOM     14  C   UNL     1      44.895   3.248   9.015  0.00  0.00    +0.000 A 
ATOM     15  C   UNL     1      44.521   1.962   9.384  0.00  0.00    +0.000 A 
ATOM     16  N   UNL     1      45.308   1.065   8.703  0.00  0.00    +0.000 N 
ATOM     17  C   UNL     1      46.183   1.742   7.901  0.00  0.00    +0.000 A 
ATOM     18  N   UNL     1      47.084   1.181   7.067  0.00  0.00    +0.000 NA
ATOM     19  C   UNL     1      47.786   2.133   6.408  0.00  0.00    +0.000 A 
ATOM     20  C   UNL     1      47.614   3.499   6.597  0.00  0.00    +0.000 A 
ATOM     21  N   UNL     1      46.709   4.044   7.445  0.00  0.00    +0.000 NA
ATOM     22  C   UNL     1      45.970   3.104   8.096  0.00  0.00    +0.000 A 
ATOM     23  H   UNL     1      45.251   0.058   8.752  0.00  0.00    +0.000 HD
ENDBRANCH  13  14
ENDBRANCH   4  13
TORSDOF 6
ENDMDL
MODEL 2
REMARK VINA RESULT:    -6.899      2.741      6.885
REMARK INTER + INTRA:          -9.498
REMARK INTER:                  -9.061
REMARK INTRA:                  -0.437
REMARK UNBOUND:                -0.381
REMARK  Name = 
REMARK  6 active torsions:
REMARK  status: ('A' for Active; 'I' for Inactive)
REMARK    1  A    between atoms: N_1  and  C_2
REMARK    2  A    between atoms: C_2  and  C_3
REMARK    3  A    between atoms: C_3  and  O_4
REMARK    4  A    between atoms: O_4  and  C_5
REMARK    5  A    between atoms: C_8  and  C_9
REMARK    6  A    between atoms: C_9  and  C_10
REMARK                            x       y       z     vdW  Elec       q    Type
REMARK                         _______ _______ _______ _____ _____    ______ ____
ROOT
ATOM      1  C   UNL     1      45.184   3.436   8.331  0.00  0.00    +0.000 A 
ATOM      2  C   UNL     1      44.499   2.519   9.126  0.00  0.00    +0.000 A 
ATOM      3  C   UNL     1      44.135   2.864  10.429  0.00  0.00    +0.000 A 
ATOM      4  C   UNL     1      44.473   4.125  10.924  0.00  0.00    +0.000 A 
ATOM      5  N   UNL     1      45.130   5.039  10.162  0.00  0.00    +0.000 NA
ATOM      6  C   UNL     1      45.455   4.675   8.900  0.00  0.00    +0.000 A 
ENDROOT
BRANCH   1   7
ATOM      7  O   UNL     1      45.617   3.232   7.050  0.00  0.00    +0.000 OA
BRANCH   7   8
ATOM      8  C   UNL     1      47.029   3.345   6.845  0.00  0.00    +0.000 C 
BRANCH   8   9
ATOM      9  C   UNL     1      47.667   1.952   6.851  0.00  0.00    +0.000 C 
BRANCH   9  10
ATOM     10  N   UNL     1      48.556   1.766   5.703  0.00  0.00    +0.000 NA
ATOM     11  H   UNL     1      48.004   1.759   4.846  0.00  0.00    +0.000 HD
ATOM     12  H   UNL     1      49.001   0.849   5.757  0.00  0.00    +0.000 HD
ENDBRANCH   9  10
ENDBRANCH   8   9
ENDBRANCH   7   8
ENDBRANCH   1   7
BRANCH   4  13
ATOM     13  C   UNL     1      44.197   4.483  12.368  0.00  0.00    +0.000 C 
BRANCH  13  14
ATOM     14  C   UNL     1      45.467   5.006  12.947  0.00  0.00    +0.000 A 
ATOM     15  C   UNL     1      46.506   4.267  13.498  0.00  0.00    +0.000 A 
ATOM     16  N   UNL     1      47.486   5.134  13.918  0.00  0.00    +0.000 N 
ATOM     17  C   UNL     1      47.105   6.419  13.650  0.00  0.00    +0.000 A 
ATOM     18  N   UNL     1      47.836   7.525  13.899  0.00  0.00    +0.000 NA
ATOM     19  C   UNL     1      47.172   8.637  13.501  0.00  0.00    +0.000 A 
ATOM     20  C   UNL     1      45.899   8.628  12.943  0.00  0.00    +0.000 A 
ATOM     21  N   UNL     1      45.177   7.506  12.708  0.00  0.00    +0.000 NA
ATOM     22  C   UNL     1      45.839   6.373  13.072  0.00  0.00    +0.000 A 
ATOM     23  H   UNL     1      48.369   4.884  14.339  0.00  0.00    +0.000 HD
ENDBRANCH  13  14
ENDBRANCH   4  13
TORSDOF 6
ENDMDL
MODEL 3
REMARK VINA RESULT:    -6.499      1.693      1.967
REMARK INTER + INTRA:          -8.970
REMARK INTER:                  -8.400
REMARK INTRA:                  -0.570
REMARK UNBOUND:                -0.381
REMARK  Name = 
REMARK  6 active torsions:
REMARK  status: ('A' for Active; 'I' for Inactive)
REMARK    1  A    between atoms: N_1  and  C_2
REMARK    2  A    between atoms: C_2  and  C_3
REMARK    3  A    between atoms: C_3  and  O_4
REMARK    4  A    between atoms: O_4  and  C_5
REMARK    5  A    between atoms: C_8  and  C_9
REMARK    6  A    between atoms: C_9  and  C_10
REMARK                            x       y       z     vdW  Elec       q    Type
REMARK                         _______ _______ _______ _____ _____    ______ ____
ROOT
ATOM      1  C   UNL     1      47.901   6.246  13.425  0.00  0.00    +0.000 A 
ATOM      2  C   UNL     1      47.822   6.898  12.196  0.00  0.00    +0.000 A 
ATOM      3  C   UNL     1      46.673   6.766  11.412  0.00  0.00    +0.000 A 
ATOM      4  C   UNL     1      45.620   5.970  11.866  0.00  0.00    +0.000 A 
ATOM      5  N   UNL     1      45.672   5.335  13.067  0.00  0.00    +0.000 NA
ATOM      6  C   UNL     1      46.794   5.496  13.806  0.00  0.00    +0.000 A 
ENDROOT
BRANCH   1   7
ATOM      7  O   UNL     1      48.963   6.269  14.286  0.00  0.00    +0.000 OA
BRANCH   7   8
ATOM      8  C   UNL     1      48.693   6.788  15.593  0.00  0.00    +0.000 C 
BRANCH   8   9
ATOM      9  C   UNL     1      49.427   5.949  16.645  0.00  0.00    +0.000 C 
BRANCH   9  10
ATOM     10  N   UNL     1      49.020   4.544  16.587  0.00  0.00    +0.000 NA
ATOM     11  H   UNL     1      48.720   4.241  17.514  0.00  0.00    +0.000 HD
ATOM     12  H   UNL     1      49.824   3.962  16.348  0.00  0.00    +0.000 HD
ENDBRANCH   9  10
ENDBRANCH   8   9
ENDBRANCH   7   8
ENDBRANCH   1   7
BRANCH   4  13
ATOM     13  C   UNL     1      44.416   5.714  10.987  0.00  0.00    +0.000 C 
BRANCH  13  14
ATOM     14  C   UNL     1      44.573   4.350  10.405  0.00  0.00    +0.000 A 
ATOM     15  C   UNL     1      44.037   3.164  10.889  0.00  0.00    +0.000 A 
ATOM     16  N   UNL     1      44.423   2.138  10.061  0.00  0.00    +0.000 N 
ATOM     17  C   UNL     1      45.198   2.634   9.050  0.00  0.00    +0.000 A 
ATOM     18  N   UNL     1      45.726   1.916   8.037  0.00  0.00    +0.000 NA
ATOM     19  C   UNL     1      46.430   2.715   7.199  0.00  0.00    +0.000 A 
ATOM     20  C   UNL     1      46.604   4.081   7.387  0.00  0.00    +0.000 A 
ATOM     21  N   UNL     1      46.072   4.783   8.416  0.00  0.00    +0.000 NA
ATOM     22  C   UNL     1      45.333   4.005   9.254  0.00  0.00    +0.000 A 
ATOM     23  H   UNL     1      44.168   1.165  10.150  0.00  0.00    +0.000 HD
ENDBRANCH  13  14
ENDBRANCH   4  13
TORSDOF 6
ENDMDL
MODEL 4
REMARK VINA RESULT:    -6.498      2.628      6.911
REMARK INTER + INTRA:          -8.968
REMARK INTER:                  -8.584
REMARK INTRA:                  -0.384
REMARK UNBOUND:                -0.381
REMARK  Name = 
REMARK  6 active torsions:
REMARK  status: ('A' for Active; 'I' for Inactive)
REMARK    1  A    between atoms: N_1  and  C_2
REMARK    2  A    between atoms: C_2  and  C_3
REMARK    3  A    between atoms: C_3  and  O_4
REMARK    4  A    between atoms: O_4  and  C_5
REMARK    5  A    between atoms: C_8  and  C_9
REMARK    6  A    between atoms: C_9  and  C_10
REMARK                            x       y       z     vdW  Elec       q    Type
REMARK                         _______ _______ _______ _____ _____    ______ ____
ROOT
ATOM      1  C   UNL     1      45.658   2.841   8.293  0.00  0.00    +0.000 A 
ATOM      2  C   UNL     1      44.887   2.122   9.204  0.00  0.00    +0.000 A 
ATOM      3  C   UNL     1      44.158   2.799  10.184  0.00  0.00    +0.000 A 
ATOM      4  C   UNL     1      44.222   4.192  10.247  0.00  0.00    +0.000 A 
ATOM      5  N   UNL     1      44.958   4.913   9.361  0.00  0.00    +0.000 NA
ATOM      6  C   UNL     1      45.640   4.226   8.417  0.00  0.00    +0.000 A 
ENDROOT
BRANCH   1   7
ATOM      7  O   UNL     1      46.433   2.316   7.296  0.00  0.00    +0.000 OA
BRANCH   7   8
ATOM      8  C   UNL     1      46.456   3.056   6.071  0.00  0.00    +0.000 C 
BRANCH   8   9
ATOM      9  C   UNL     1      47.620   2.575   5.197  0.00  0.00    +0.000 C 
BRANCH   9  10
ATOM     10  N   UNL     1      48.550   1.739   5.958  0.00  0.00    +0.000 NA
ATOM     11  H   UNL     1      48.187   1.603   6.901  0.00  0.00    +0.000 HD
ATOM     12  H   UNL     1      49.440   2.226   6.067  0.00  0.00    +0.000 HD
ENDBRANCH   9  10
ENDBRANCH   8   9
ENDBRANCH   7   8
ENDBRANCH   1   7
BRANCH   4  13
ATOM     13  C   UNL     1      43.540   4.942  11.369  0.00  0.00    +0.000 C 
BRANCH  13  14
ATOM     14  C   UNL     1      44.474   6.012  11.822  0.00  0.00    +0.000 A 
ATOM     15  C   UNL     1      44.402   7.368  11.530  0.00  0.00    +0.000 A 
ATOM     16  N   UNL     1      45.457   8.004  12.139  0.00  0.00    +0.000 N 
ATOM     17  C   UNL     1      46.210   7.090  12.820  0.00  0.00    +0.000 A 
ATOM     18  N   UNL     1      47.305   7.364  13.559  0.00  0.00    +0.000 NA
ATOM     19  C   UNL     1      47.808   6.234  14.110  0.00  0.00    +0.000 A 
ATOM     20  C   UNL     1      47.277   4.965  13.909  0.00  0.00    +0.000 A 
ATOM     21  N   UNL     1      46.180   4.708  13.155  0.00  0.00    +0.000 NA
ATOM     22  C   UNL     1      45.640   5.836  12.617  0.00  0.00    +0.000 A 
ATOM     23  H   UNL     1      45.652   8.995  12.122  0.00  0.00    +0.000 HD
ENDBRANCH  13  14
ENDBRANCH   4  13
TORSDOF 6
ENDMDL
MODEL 5
REMARK VINA RESULT:    -6.030      2.360      2.998
REMARK INTER + INTRA:          -8.350
REMARK INTER:                  -7.905
REMARK INTRA:                  -0.445
REMARK UNBOUND:                -0.381
REMARK  Name = 
REMARK  6 active torsions:
REMARK  status: ('A' for Active; 'I' for Inactive)
REMARK    1  A    between atoms: N_1  and  C_2
REMARK    2  A    between atoms: C_2  and  C_3
REMARK    3  A    between atoms: C_3  and  O_4
REMARK    4  A    between atoms: O_4  and  C_5
REMARK    5  A    between atoms: C_8  and  C_9
REMARK    6  A    between atoms: C_9  and  C_10
REMARK                            x       y       z     vdW  Elec       q    Type
REMARK                         _______ _______ _______ _____ _____    ______ ____
ROOT
ATOM      1  C   UNL     1      46.914   7.013  13.139  0.00  0.00    +0.000 A 
ATOM      2  C   UNL     1      46.575   5.674  13.320  0.00  0.00    +0.000 A 
ATOM      3  C   UNL     1      45.602   5.087  12.508  0.00  0.00    +0.000 A 
ATOM      4  C   UNL     1      44.971   5.857  11.528  0.00  0.00    +0.000 A 
ATOM      5  N   UNL     1      45.296   7.161  11.327  0.00  0.00    +0.000 NA
ATOM      6  C   UNL     1      46.252   7.692  12.123  0.00  0.00    +0.000 A 
ENDROOT
BRANCH   1   7
ATOM      7  O   UNL     1      47.830   7.722  13.866  0.00  0.00    +0.000 OA
BRANCH   7   8
ATOM      8  C   UNL     1      48.424   8.840  13.199  0.00  0.00    +0.000 C 
BRANCH   8   9
ATOM      9  C   UNL     1      49.936   8.624  13.070  0.00  0.00    +0.000 C 
BRANCH   9  10
ATOM     10  N   UNL     1      50.240   7.330  12.457  0.00  0.00    +0.000 NA
ATOM     11  H   UNL     1      49.685   7.220  11.608  0.00  0.00    +0.000 HD
ATOM     12  H   UNL     1      49.950   6.576  13.081  0.00  0.00    +0.000 HD
ENDBRANCH   9  10
ENDBRANCH   8   9
ENDBRANCH   7   8
ENDBRANCH   1   7
BRANCH   4  13
ATOM     13  C   UNL     1      43.833   5.282  10.716  0.00  0.00    +0.000 C 
BRANCH  13  14
ATOM     14  C   UNL     1      44.292   3.972  10.171  0.00  0.00    +0.000 A 
ATOM     15  C   UNL     1      43.931   2.706  10.615  0.00  0.00    +0.000 A 
ATOM     16  N   UNL     1      44.580   1.771   9.844  0.00  0.00    +0.000 N 
ATOM     17  C   UNL     1      45.352   2.404   8.911  0.00  0.00    +0.000 A 
ATOM     18  N   UNL     1      46.102   1.798   7.967  0.00  0.00    +0.000 NA
ATOM     19  C   UNL     1      46.733   2.715   7.195  0.00  0.00    +0.000 A 
ATOM     20  C   UNL     1      46.638   4.089   7.380  0.00  0.00    +0.000 A 
ATOM     21  N   UNL     1      45.885   4.679   8.340  0.00  0.00    +0.000 NA
ATOM     22  C   UNL     1      45.216   3.775   9.108  0.00  0.00    +0.000 A 
ATOM     23  H   UNL     1      44.496   0.767   9.920  0.00  0.00    +0.000 HD
ENDBRANCH  13  14
ENDBRANCH   4  13
TORSDOF 6
ENDMDL
MODEL 6
REMARK VINA RESULT:    -5.912      3.247      7.020
REMARK INTER + INTRA:          -8.194
REMARK INTER:                  -7.819
REMARK INTRA:                  -0.375
REMARK UNBOUND:                -0.381
REMARK  Name = 
REMARK  6 active torsions:
REMARK  status: ('A' for Active; 'I' for Inactive)
REMARK    1  A    between atoms: N_1  and  C_2
REMARK    2  A    between atoms: C_2  and  C_3
REMARK    3  A    between atoms: C_3  and  O_4
REMARK    4  A    between atoms: O_4  and  C_5
REMARK    5  A    between atoms: C_8  and  C_9
REMARK    6  A    between atoms: C_9  and  C_10
REMARK                            x       y       z     vdW  Elec       q    Type
REMARK                         _______ _______ _______ _____ _____    ______ ____
ROOT
ATOM      1  C   UNL     1      45.333   3.180   8.100  0.00  0.00    +0.000 A 
ATOM      2  C   UNL     1      44.611   2.558   9.117  0.00  0.00    +0.000 A 
ATOM      3  C   UNL     1      44.413   3.217  10.332  0.00  0.00    +0.000 A 
ATOM      4  C   UNL     1      44.954   4.491  10.518  0.00  0.00    +0.000 A 
ATOM      5  N   UNL     1      45.651   5.120   9.535  0.00  0.00    +0.000 NA
ATOM      6  C   UNL     1      45.812   4.458   8.367  0.00  0.00    +0.000 A 
ENDROOT
BRANCH   1   7
ATOM      7  O   UNL     1      45.619   2.652   6.871  0.00  0.00    +0.000 OA
BRANCH   7   8
ATOM      8  C   UNL     1      46.925   2.937   6.361  0.00  0.00    +0.000 C 
BRANCH   8   9
ATOM      9  C   UNL     1      47.897   1.826   6.774  0.00  0.00    +0.000 C 
BRANCH   9  10
ATOM     10  N   UNL     1      47.184   0.598   7.132  0.00  0.00    +0.000 NA
ATOM     11  H   UNL     1      46.181   0.747   7.026  0.00  0.00    +0.000 HD
ATOM     12  H   UNL     1      47.333   0.389   8.120  0.00  0.00    +0.000 HD
ENDBRANCH   9  10
ENDBRANCH   8   9
ENDBRANCH   7   8
ENDBRANCH   1   7
BRANCH   4  13
ATOM     13  C   UNL     1      44.858   5.178  11.862  0.00  0.00    +0.000 C 
BRANCH  13  14
ATOM     14  C   UNL     1      44.468   6.595  11.610  0.00  0.00    +0.000 A 
ATOM     15  C   UNL     1      43.254   7.056  11.118  0.00  0.00    +0.000 A 
ATOM     16  N   UNL     1      43.308   8.427  11.034  0.00  0.00    +0.000 N 
ATOM     17  C   UNL     1      44.530   8.863  11.463  0.00  0.00    +0.000 A 
ATOM     18  N   UNL     1      44.922  10.152  11.546  0.00  0.00    +0.000 NA
ATOM     19  C   UNL     1      46.187  10.238  12.021  0.00  0.00    +0.000 A 
ATOM     20  C   UNL     1      46.975   9.140  12.345  0.00  0.00    +0.000 A 
ATOM     21  N   UNL     1      46.567   7.852  12.247  0.00  0.00    +0.000 NA
ATOM     22  C   UNL     1      45.285   7.743  11.801  0.00  0.00    +0.000 A 
ATOM     23  H   UNL     1      42.565   9.040  10.730  0.00  0.00    +0.000 HD
ENDBRANCH  13  14
ENDBRANCH   4  13
TORSDOF 6
ENDMDL
MODEL 7
REMARK VINA RESULT:    -5.837      2.204      2.963
REMARK INTER + INTRA:          -8.094
REMARK INTER:                  -7.784
REMARK INTRA:                  -0.311
REMARK UNBOUND:                -0.381
REMARK  Name = 
REMARK  6 active torsions:
REMARK  status: ('A' for Active; 'I' for Inactive)
REMARK    1  A    between atoms: N_1  and  C_2
REMARK    2  A    between atoms: C_2  and  C_3
REMARK    3  A    between atoms: C_3  and  O_4
REMARK    4  A    between atoms: O_4  and  C_5
REMARK    5  A    between atoms: C_8  and  C_9
REMARK    6  A    between atoms: C_9  and  C_10
REMARK                            x       y       z     vdW  Elec       q    Type
REMARK                         _______ _______ _______ _____ _____    ______ ____
ROOT
ATOM      1  C   UNL     1      44.979   6.762  12.464  0.00  0.00    +0.000 A 
ATOM      2  C   UNL     1      43.831   6.745  11.675  0.00  0.00    +0.000 A 
ATOM      3  C   UNL     1      43.552   5.633  10.877  0.00  0.00    +0.000 A 
ATOM      4  C   UNL     1      44.438   4.554  10.871  0.00  0.00    +0.000 A 
ATOM      5  N   UNL     1      45.557   4.545  11.641  0.00  0.00    +0.000 NA
ATOM      6  C   UNL     1      45.788   5.632  12.412  0.00  0.00    +0.000 A 
ENDROOT
BRANCH   1   7
ATOM      7  O   UNL     1      45.387   7.783  13.278  0.00  0.00    +0.000 OA
BRANCH   7   8
ATOM      8  C   UNL     1      46.537   8.510  12.835  0.00  0.00    +0.000 C 
BRANCH   8   9
ATOM      9  C   UNL     1      47.679   8.338  13.842  0.00  0.00    +0.000 C 
BRANCH   9  10
ATOM     10  N   UNL     1      47.454   9.138  15.047  0.00  0.00    +0.000 NA
ATOM     11  H   UNL     1      46.949   8.580  15.735  0.00  0.00    +0.000 HD
ATOM     12  H   UNL     1      46.847   9.928  14.827  0.00  0.00    +0.000 HD
ENDBRANCH   9  10
ENDBRANCH   8   9
ENDBRANCH   7   8
ENDBRANCH   1   7
BRANCH   4  13
ATOM     13  C   UNL     1      44.224   3.391   9.928  0.00  0.00    +0.000 C 
BRANCH  13  14
ATOM     14  C   UNL     1      45.276   3.472   8.875  0.00  0.00    +0.000 A 
ATOM     15  C   UNL     1      45.781   4.621   8.280  0.00  0.00    +0.000 A 
ATOM     16  N   UNL     1      46.733   4.256   7.359  0.00  0.00    +0.000 N 
ATOM     17  C   UNL     1      46.857   2.895   7.345  0.00  0.00    +0.000 A 
ATOM     18  N   UNL     1      47.719   2.189   6.584  0.00  0.00    +0.000 NA
ATOM     19  C   UNL     1      47.593   0.862   6.822  0.00  0.00    +0.000 A 
ATOM     20  C   UNL     1      46.674   0.312   7.708  0.00  0.00    +0.000 A 
ATOM     21  N   UNL     1      45.809   1.037   8.458  0.00  0.00    +0.000 NA
ATOM     22  C   UNL     1      45.941   2.377   8.258  0.00  0.00    +0.000 A 
ATOM     23  H   UNL     1      47.286   4.878   6.788  0.00  0.00    +0.000 HD
ENDBRANCH  13  14
ENDBRANCH   4  13
TORSDOF 6
ENDMDL
MODEL 8
REMARK VINA RESULT:    -5.537      3.388      5.413
REMARK INTER + INTRA:          -7.698
REMARK INTER:                  -7.266
REMARK INTRA:                  -0.432
REMARK UNBOUND:                -0.381
REMARK  Name = 
REMARK  6 active torsions:
REMARK  status: ('A' for Active; 'I' for Inactive)
REMARK    1  A    between atoms: N_1  and  C_2
REMARK    2  A    between atoms: C_2  and  C_3
REMARK    3  A    between atoms: C_3  and  O_4
REMARK    4  A    between atoms: O_4  and  C_5
REMARK    5  A    between atoms: C_8  and  C_9
REMARK    6  A    between atoms: C_9  and  C_10
REMARK                            x       y       z     vdW  Elec       q    Type
REMARK                         _______ _______ _______ _____ _____    ______ ____
ROOT
ATOM      1  C   UNL     1      47.868   4.881  17.033  0.00  0.00    +0.000 A 
ATOM      2  C   UNL     1      47.103   4.143  16.133  0.00  0.00    +0.000 A 
ATOM      3  C   UNL     1      47.120   4.469  14.775  0.00  0.00    +0.000 A 
ATOM      4  C   UNL     1      47.898   5.543  14.337  0.00  0.00    +0.000 A 
ATOM      5  N   UNL     1      48.660   6.268  15.197  0.00  0.00    +0.000 NA
ATOM      6  C   UNL     1      48.630   5.916  16.502  0.00  0.00    +0.000 A 
ENDROOT
BRANCH   1   7
ATOM      7  O   UNL     1      47.937   4.689  18.386  0.00  0.00    +0.000 OA
BRANCH   7   8
ATOM      8  C   UNL     1      48.775   5.601  19.102  0.00  0.00    +0.000 C 
BRANCH   8   9
ATOM      9  C   UNL     1      49.400   4.891  20.309  0.00  0.00    +0.000 C 
BRANCH   9  10
ATOM     10  N   UNL     1      48.459   3.955  20.924  0.00  0.00    +0.000 NA
ATOM     11  H   UNL     1      48.792   3.704  21.856  0.00  0.00    +0.000 HD
ATOM     12  H   UNL     1      48.440   3.085  20.390  0.00  0.00    +0.000 HD
ENDBRANCH   9  10
ENDBRANCH   8   9
ENDBRANCH   7   8
ENDBRANCH   1   7
BRANCH   4  13
ATOM     13  C   UNL     1      47.843   5.993  12.895  0.00  0.00    +0.000 C 
BRANCH  13  14
ATOM     14  C   UNL     1      46.444   6.426  12.617  0.00  0.00    +0.000 A 
ATOM     15  C   UNL     1      45.879   7.666  12.889  0.00  0.00    +0.000 A 
ATOM     16  N   UNL     1      44.568   7.650  12.479  0.00  0.00    +0.000 N 
ATOM     17  C   UNL     1      44.270   6.426  11.947  0.00  0.00    +0.000 A 
ATOM     18  N   UNL     1      43.083   6.065  11.417  0.00  0.00    +0.000 NA
ATOM     19  C   UNL     1      43.128   4.788  10.967  0.00  0.00    +0.000 A 
ATOM     20  C   UNL     1      44.241   3.963  11.072  0.00  0.00    +0.000 A 
ATOM     21  N   UNL     1      45.423   4.342  11.615  0.00  0.00    +0.000 NA
ATOM     22  C   UNL     1      45.411   5.633  12.045  0.00  0.00    +0.000 A 
ATOM     23  H   UNL     1      43.913   8.417  12.530  0.00  0.00    +0.000 HD
ENDBRANCH  13  14
ENDBRANCH   4  13
TORSDOF 6
ENDMDL
MODEL 9
REMARK VINA RESULT:    -5.403      3.243      7.971
REMARK INTER + INTRA:          -7.521
REMARK INTER:                  -6.995
REMARK INTRA:                  -0.526
REMARK UNBOUND:                -0.381
REMARK  Name = 
REMARK  6 active torsions:
REMARK  status: ('A' for Active; 'I' for Inactive)
REMARK    1  A    between atoms: N_1  and  C_2
REMARK    2  A    between atoms: C_2  and  C_3
REMARK    3  A    between atoms: C_3  and  O_4
REMARK    4  A    between atoms: O_4  and  C_5
REMARK    5  A    between atoms: C_8  and  C_9
REMARK    6  A    between atoms: C_9  and  C_10
REMARK                            x       y       z     vdW  Elec       q    Type
REMARK                         _______ _______ _______ _____ _____    ______ ____
ROOT
ATOM      1  C   UNL     1      44.943   4.985  11.748  0.00  0.00    +0.000 A 
ATOM      2  C   UNL     1      45.602   4.492  12.873  0.00  0.00    +0.000 A 
ATOM      3  C   UNL     1      46.784   5.096  13.307  0.00  0.00    +0.000 A 
ATOM      4  C   UNL     1      47.298   6.183  12.599  0.00  0.00    +0.000 A 
ATOM      5  N   UNL     1      46.666   6.687  11.507  0.00  0.00    +0.000 NA
ATOM      6  C   UNL     1      45.517   6.086  11.123  0.00  0.00    +0.000 A 
ENDROOT
BRANCH   1   7
ATOM      7  O   UNL     1      43.793   4.487  11.200  0.00  0.00    +0.000 OA
BRANCH   7   8
ATOM      8  C   UNL     1      43.835   3.112  10.807  0.00  0.00    +0.000 C 
BRANCH   8   9
ATOM      9  C   UNL     1      44.454   2.990   9.410  0.00  0.00    +0.000 C 
BRANCH   9  10
ATOM     10  N   UNL     1      44.950   1.636   9.161  0.00  0.00    +0.000 NA
ATOM     11  H   UNL     1      45.235   1.554   8.185  0.00  0.00    +0.000 HD
ATOM     12  H   UNL     1      44.194   0.963   9.290  0.00  0.00    +0.000 HD
ENDBRANCH   9  10
ENDBRANCH   8   9
ENDBRANCH   7   8
ENDBRANCH   1   7
BRANCH   4  13
ATOM     13  C   UNL     1      48.636   6.781  12.975  0.00  0.00    +0.000 C 
BRANCH  13  14
ATOM     14  C   UNL     1      48.440   7.551  14.236  0.00  0.00    +0.000 A 
ATOM     15  C   UNL     1      47.728   8.733  14.396  0.00  0.00    +0.000 A 
ATOM     16  N   UNL     1      47.797   9.111  15.715  0.00  0.00    +0.000 N 
ATOM     17  C   UNL     1      48.539   8.200  16.413  0.00  0.00    +0.000 A 
ATOM     18  N   UNL     1      48.789   8.238  17.739  0.00  0.00    +0.000 NA
ATOM     19  C   UNL     1      49.545   7.179  18.114  0.00  0.00    +0.000 A 
ATOM     20  C   UNL     1      50.018   6.209  17.238  0.00  0.00    +0.000 A 
ATOM     21  N   UNL     1      49.763   6.192  15.907  0.00  0.00    +0.000 NA
ATOM     22  C   UNL     1      48.977   7.232  15.513  0.00  0.00    +0.000 A 
ATOM     23  H   UNL     1      47.358   9.919  16.132  0.00  0.00    +0.000 HD
ENDBRANCH  13  14
ENDBRANCH   4  13
TORSDOF 6
ENDMDL
