MODEL 1
REMARK VINA RESULT:    -8.649      0.000      0.000
REMARK INTER + INTRA:         -12.752
REMARK INTER:                 -11.936
REMARK INTRA:                  -0.816
REMARK UNBOUND:                -0.816
REMARK  Name = 
REMARK  7 active torsions:
REMARK  status: ('A' for Active; 'I' for Inactive)
REMARK    1  A    between atoms: C_2  and  C_3
REMARK    2  A    between atoms: C_6  and  N_7
REMARK    3  A    between atoms: N_7  and  C_8
REMARK    4  A    between atoms: C_8  and  C_9
REMARK    5  A    between atoms: C_13  and  C_14
REMARK    6  A    between atoms: C_18  and  C_19
REMARK    7  A    between atoms: C_19  and  O_20
REMARK                            x       y       z     vdW  Elec       q    Type
REMARK                         _______ _______ _______ _____ _____    ______ ____
ROOT
ATOM      1  C   UNL     1      45.152   5.635  11.910  0.00  0.00    +0.000 A 
ATOM      2  C   UNL     1      45.359   6.915  11.373  0.00  0.00    +0.000 A 
ATOM      3  C   UNL     1      46.269   7.798  11.949  0.00  0.00    +0.000 A 
ATOM      4  C   UNL     1      47.019   7.401  13.057  0.00  0.00    +0.000 A 
ATOM      5  C   UNL     1      46.904   6.105  13.587  0.00  0.00    +0.000 A 
ATOM      6  C   UNL     1      45.969   5.243  12.983  0.00  0.00    +0.000 A 
ENDROOT
BRANCH   5   7
ATOM      7  C   UNL     1      47.685   5.663  14.760  0.00  0.00    +0.000 A 
ATOM      8  C   UNL     1      48.742   6.406  15.284  0.00  0.00    +0.000 A 
ATOM      9  N   UNL     1      49.475   6.064  16.374  0.00  0.00    +0.000 NA
ATOM     10  C   UNL     1      49.135   4.917  16.996  0.00  0.00    +0.000 A 
ATOM     11  C   UNL     1      48.099   4.090  16.588  0.00  0.00    +0.000 A 
ATOM     12  C   UNL     1      47.385   4.475  15.446  0.00  0.00    +0.000 A 
BRANCH  11  13
ATOM     13  C   UNL     1      47.764   2.828  17.321  0.00  0.00    +0.000 C 
BRANCH  13  14
ATOM     14  O   UNL     1      46.386   2.819  17.675  0.00  0.00    +0.000 OA
ATOM     15  H   UNL     1      45.880   2.689  16.854  0.00  0.00    +0.000 HD
ENDBRANCH  13  14
ENDBRANCH  11  13
ENDBRANCH   5   7
BRANCH   1  16
ATOM     16  C   UNL     1      43.991   4.768  11.437  0.00  0.00    +0.000 C 
ATOM     17  C   UNL     1      43.291   3.867  12.437  0.00  0.00    +0.000 C 
ATOM     18  C   UNL     1      42.645   5.157  12.053  0.00  0.00    +0.000 C 
BRANCH  16  19
ATOM     19  N   UNL     1      43.962   4.498  10.004  0.00  0.00    +0.000 N 
ATOM     20  H   UNL     1      43.377   5.066   9.401  0.00  0.00    +0.000 HD
BRANCH  19  24
ATOM     21  C   UNL     1      46.648   2.621   7.537  0.00  0.00    +0.000 A 
ATOM     22  C   UNL     1      46.474   3.993   7.553  0.00  0.00    +0.000 A 
ATOM     23  N   UNL     1      45.597   4.603   8.393  0.00  0.00    +0.000 NA
ATOM     24  C   UNL     1      44.881   3.814   9.227  0.00  0.00    +0.000 A 
ATOM     25  C   UNL     1      45.073   2.431   9.201  0.00  0.00    +0.000 A 
ATOM     26  N   UNL     1      45.955   1.806   8.364  0.00  0.00    +0.000 NA
BRANCH  21  28
ATOM     27  N   UNL     1      48.309   1.574   5.834  0.00  0.00    +0.000 NA
ATOM     28  C   UNL     1      47.576   2.014   6.618  0.00  0.00    +0.000 C 
ENDBRANCH  21  28
ENDBRANCH  19  24
ENDBRANCH  16  19
ENDBRANCH   1  16
TORSDOF 7
ENDMDL
MODEL 2
REMARK VINA RESULT:    -7.871      2.822      4.028
REMARK INTER + INTRA:         -11.677
REMARK INTER:                 -10.773
REMARK INTRA:                  -0.905
REMARK UNBOUND:                -0.816
REMARK  Name = 
REMARK  7 active torsions:
REMARK  status: ('A' for Active; 'I' for Inactive)
REMARK    1  A    between atoms: C_2  and  C_3
REMARK    2  A    between atoms: C_6  and  N_7
REMARK    3  A    between atoms: N_7  and  C_8
REMARK    4  A    between atoms: C_8  and  C_9
REMARK    5  A    between atoms: C_13  and  C_14
REMARK    6  A    between atoms: C_18  and  C_19
REMARK    7  A    between atoms: C_19  and  O_20
REMARK                            x       y       z     vdW  Elec       q    Type
REMARK                         _______ _______ _______ _____ _____    ______ ____
ROOT
ATOM      1  C   UNL     1      45.034   5.282  12.141  0.00  0.00    +0.000 A 
ATOM      2  C   UNL     1      45.520   4.355  13.075  0.00  0.00    +0.000 A 
ATOM      3  C   UNL     1      46.778   4.508  13.652  0.00  0.00    +0.000 A 
ATOM      4  C   UNL     1      47.563   5.616  13.330  0.00  0.00    +0.000 A 
ATOM      5  C   UNL     1      47.092   6.612  12.458  0.00  0.00    +0.000 A 
ATOM      6  C   UNL     1      45.819   6.420  11.889  0.00  0.00    +0.000 A 
ENDROOT
BRANCH   5   7
ATOM      7  C   UNL     1      47.904   7.792  12.100  0.00  0.00    +0.000 A 
ATOM      8  C   UNL     1      47.400   9.092  12.140  0.00  0.00    +0.000 A 
ATOM      9  N   UNL     1      48.105  10.215  11.850  0.00  0.00    +0.000 NA
ATOM     10  C   UNL     1      49.399  10.046  11.509  0.00  0.00    +0.000 A 
ATOM     11  C   UNL     1      50.029   8.812  11.442  0.00  0.00    +0.000 A 
ATOM     12  C   UNL     1      49.253   7.681  11.730  0.00  0.00    +0.000 A 
BRANCH  11  13
ATOM     13  C   UNL     1      51.472   8.684  11.062  0.00  0.00    +0.000 C 
BRANCH  13  14
ATOM     14  O   UNL     1      51.846   7.313  11.012  0.00  0.00    +0.000 OA
ATOM     15  H   UNL     1      51.604   6.981  10.130  0.00  0.00    +0.000 HD
ENDBRANCH  13  14
ENDBRANCH  11  13
ENDBRANCH   5   7
BRANCH   1  16
ATOM     16  C   UNL     1      43.776   4.990  11.331  0.00  0.00    +0.000 C 
ATOM     17  C   UNL     1      42.588   4.349  12.024  0.00  0.00    +0.000 C 
ATOM     18  C   UNL     1      42.563   5.818  11.762  0.00  0.00    +0.000 C 
BRANCH  16  19
ATOM     19  N   UNL     1      43.976   4.887   9.891  0.00  0.00    +0.000 N 
ATOM     20  H   UNL     1      43.663   5.640   9.288  0.00  0.00    +0.000 HD
BRANCH  19  24
ATOM     21  C   UNL     1      46.586   2.662   7.640  0.00  0.00    +0.000 A 
ATOM     22  C   UNL     1      46.562   4.044   7.616  0.00  0.00    +0.000 A 
ATOM     23  N   UNL     1      45.708   4.769   8.385  0.00  0.00    +0.000 NA
ATOM     24  C   UNL     1      44.861   4.086   9.188  0.00  0.00    +0.000 A 
ATOM     25  C   UNL     1      44.900   2.690   9.203  0.00  0.00    +0.000 A 
ATOM     26  N   UNL     1      45.757   1.950   8.436  0.00  0.00    +0.000 NA
BRANCH  21  28
ATOM     27  N   UNL     1      48.275   1.391   6.128  0.00  0.00    +0.000 NA
ATOM     28  C   UNL     1      47.495   1.933   6.794  0.00  0.00    +0.000 C 
ENDBRANCH  21  28
ENDBRANCH  19  24
ENDBRANCH  16  19
ENDBRANCH   1  16
TORSDOF 7
ENDMDL
MODEL 3
REMARK VINA RESULT:    -7.502      1.530      2.044
REMARK INTER + INTRA:         -11.169
REMARK INTER:                 -10.527
REMARK INTRA:                  -0.642
REMARK UNBOUND:                -0.816
REMARK  Name = 
REMARK  7 active torsions:
REMARK  status: ('A' for Active; 'I' for Inactive)
REMARK    1  A    between atoms: C_2  and  C_3
REMARK    2  A    between atoms: C_6  and  N_7
REMARK    3  A    between atoms: N_7  and  C_8
REMARK    4  A    between atoms: C_8  and  C_9
REMARK    5  A    between atoms: C_13  and  C_14
REMARK    6  A    between atoms: C_18  and  C_19
REMARK    7  A    between atoms: C_19  and  O_20
REMARK                            x       y       z     vdW  Elec       q    Type
REMARK                         _______ _______ _______ _____ _____    ______ ____
ROOT
ATOM      1  C   UNL     1      45.618   5.260  12.469  0.00  0.00    +0.000 A 
ATOM      2  C   UNL     1      46.378   6.308  11.927  0.00  0.00    +0.000 A 
ATOM      3  C   UNL     1      47.448   6.858  12.628  0.00  0.00    +0.000 A 
ATOM      4  C   UNL     1      47.802   6.343  13.875  0.00  0.00    +0.000 A 
ATOM      5  C   UNL     1      47.122   5.246  14.430  0.00  0.00    +0.000 A 
ATOM      6  C   UNL     1      46.041   4.720  13.696  0.00  0.00    +0.000 A 
ENDROOT
BRANCH   5   7
ATOM      7  C   UNL     1      47.476   4.685  15.749  0.00  0.00    +0.000 A 
ATOM      8  C   UNL     1      46.794   3.609  16.317  0.00  0.00    +0.000 A 
ATOM      9  N   UNL     1      47.092   3.035  17.509  0.00  0.00    +0.000 NA
ATOM     10  C   UNL     1      48.142   3.547  18.183  0.00  0.00    +0.000 A 
ATOM     11  C   UNL     1      48.913   4.607  17.728  0.00  0.00    +0.000 A 
ATOM     12  C   UNL     1      48.553   5.180  16.501  0.00  0.00    +0.000 A 
BRANCH  11  13
ATOM     13  C   UNL     1      50.072   5.133  18.517  0.00  0.00    +0.000 C 
BRANCH  13  14
ATOM     14  O   UNL     1      50.258   4.354  19.693  0.00  0.00    +0.000 OA
ATOM     15  H   UNL     1      51.218   4.282  19.840  0.00  0.00    +0.000 HD
ENDBRANCH  13  14
ENDBRANCH  11  13
ENDBRANCH   5   7
BRANCH   1  16
ATOM     16  C   UNL     1      44.309   4.827  11.821  0.00  0.00    +0.000 C 
ATOM     17  C   UNL     1      43.400   3.867  12.567  0.00  0.00    +0.000 C 
ATOM     18  C   UNL     1      43.065   5.321  12.563  0.00  0.00    +0.000 C 
BRANCH  16  19
ATOM     19  N   UNL     1      44.260   4.963  10.370  0.00  0.00    +0.000 N 
ATOM     20  H   UNL     1      43.831   5.786   9.960  0.00  0.00    +0.000 HD
BRANCH  19  24
ATOM     21  C   UNL     1      46.572   2.918   7.669  0.00  0.00    +0.000 A 
ATOM     22  C   UNL     1      45.751   2.287   8.585  0.00  0.00    +0.000 A 
ATOM     23  N   UNL     1      44.972   2.978   9.458  0.00  0.00    +0.000 NA
ATOM     24  C   UNL     1      45.028   4.329   9.408  0.00  0.00    +0.000 A 
ATOM     25  C   UNL     1      45.860   4.950   8.474  0.00  0.00    +0.000 A 
ATOM     26  N   UNL     1      46.645   4.266   7.588  0.00  0.00    +0.000 NA
BRANCH  21  28
ATOM     27  N   UNL     1      48.093   1.504   6.106  0.00  0.00    +0.000 NA
ATOM     28  C   UNL     1      47.395   2.146   6.774  0.00  0.00    +0.000 C 
ENDBRANCH  21  28
ENDBRANCH  19  24
ENDBRANCH  16  19
ENDBRANCH   1  16
TORSDOF 7
ENDMDL
MODEL 4
REMARK VINA RESULT:    -7.281      1.860      2.318
REMARK INTER + INTRA:         -10.863
REMARK INTER:                 -10.129
REMARK INTRA:                  -0.734
REMARK UNBOUND:                -0.816
REMARK  Name = 
REMARK  7 active torsions:
REMARK  status: ('A' for Active; 'I' for Inactive)
REMARK    1  A    between atoms: C_2  and  C_3
REMARK    2  A    between atoms: C_6  and  N_7
REMARK    3  A    between atoms: N_7  and  C_8
REMARK    4  A    between atoms: C_8  and  C_9
REMARK    5  A    between atoms: C_13  and  C_14
REMARK    6  A    between atoms: C_18  and  C_19
REMARK    7  A    between atoms: C_19  and  O_20
REMARK                            x       y       z     vdW  Elec       q    Type
REMARK                         _______ _______ _______ _____ _____    ______ ____
ROOT
ATOM      1  C   UNL     1      45.060   5.683  11.732  0.00  0.00    +0.000 A 
ATOM      2  C   UNL     1      44.349   6.828  11.340  0.00  0.00    +0.000 A 
ATOM      3  C   UNL     1      44.824   8.104  11.630  0.00  0.00    +0.000 A 
ATOM      4  C   UNL     1      46.044   8.260  12.289  0.00  0.00    +0.000 A 
ATOM      5  C   UNL     1      46.831   7.150  12.637  0.00  0.00    +0.000 A 
ATOM      6  C   UNL     1      46.316   5.875  12.334  0.00  0.00    +0.000 A 
ENDROOT
BRANCH   5   7
ATOM      7  C   UNL     1      48.125   7.289  13.336  0.00  0.00    +0.000 A 
ATOM      8  C   UNL     1      49.222   7.936  12.767  0.00  0.00    +0.000 A 
ATOM      9  N   UNL     1      50.423   8.118  13.371  0.00  0.00    +0.000 NA
ATOM     10  C   UNL     1      50.548   7.641  14.627  0.00  0.00    +0.000 A 
ATOM     11  C   UNL     1      49.534   6.989  15.313  0.00  0.00    +0.000 A 
ATOM     12  C   UNL     1      48.319   6.806  14.640  0.00  0.00    +0.000 A 
BRANCH  11  13
ATOM     13  C   UNL     1      49.728   6.483  16.709  0.00  0.00    +0.000 C 
BRANCH  13  14
ATOM     14  O   UNL     1      50.425   5.243  16.689  0.00  0.00    +0.000 OA
ATOM     15  H   UNL     1      49.911   4.617  17.228  0.00  0.00    +0.000 HD
ENDBRANCH  13  14
ENDBRANCH  11  13
ENDBRANCH   5   7
BRANCH   1  16
ATOM     16  C   UNL     1      44.428   4.300  11.636  0.00  0.00    +0.000 C 
ATOM     17  C   UNL     1      44.635   3.316  12.774  0.00  0.00    +0.000 C 
ATOM     18  C   UNL     1      43.339   4.050  12.682  0.00  0.00    +0.000 C 
BRANCH  16  19
ATOM     19  N   UNL     1      44.104   3.858  10.285  0.00  0.00    +0.000 N 
ATOM     20  H   UNL     1      43.194   4.075   9.894  0.00  0.00    +0.000 HD
BRANCH  19  24
ATOM     21  C   UNL     1      46.714   2.595   7.384  0.00  0.00    +0.000 A 
ATOM     22  C   UNL     1      46.089   1.728   8.262  0.00  0.00    +0.000 A 
ATOM     23  N   UNL     1      45.209   2.158   9.203  0.00  0.00    +0.000 NA
ATOM     24  C   UNL     1      44.958   3.487   9.261  0.00  0.00    +0.000 A 
ATOM     25  C   UNL     1      45.594   4.347   8.364  0.00  0.00    +0.000 A 
ATOM     26  N   UNL     1      46.479   3.927   7.410  0.00  0.00    +0.000 NA
BRANCH  21  28
ATOM     27  N   UNL     1      48.399   1.636   5.652  0.00  0.00    +0.000 NA
ATOM     28  C   UNL     1      47.654   2.099   6.413  0.00  0.00    +0.000 C 
ENDBRANCH  21  28
ENDBRANCH  19  24
ENDBRANCH  16  19
ENDBRANCH   1  16
TORSDOF 7
ENDMDL
MODEL 5
REMARK VINA RESULT:    -6.691      2.993      8.067
REMARK INTER + INTRA:         -10.049
REMARK INTER:                  -9.333
REMARK INTRA:                  -0.716
REMARK UNBOUND:                -0.816
REMARK  Name = 
REMARK  7 active torsions:
REMARK  status: ('A' for Active; 'I' for Inactive)
REMARK    1  A    between atoms: C_2  and  C_3
REMARK    2  A    between atoms: C_6  and  N_7
REMARK    3  A    between atoms: N_7  and  C_8
REMARK    4  A    between atoms: C_8  and  C_9
REMARK    5  A    between atoms: C_13  and  C_14
REMARK    6  A    between atoms: C_18  and  C_19
REMARK    7  A    between atoms: C_19  and  O_20
REMARK                            x       y       z     vdW  Elec       q    Type
REMARK                         _______ _______ _______ _____ _____    ______ ____
ROOT
ATOM      1  C   UNL     1      47.179   7.799  12.334  0.00  0.00    +0.000 A 
ATOM      2  C   UNL     1      46.210   8.803  12.478  0.00  0.00    +0.000 A 
ATOM      3  C   UNL     1      44.935   8.655  11.939  0.00  0.00    +0.000 A 
ATOM      4  C   UNL     1      44.592   7.477  11.274  0.00  0.00    +0.000 A 
ATOM      5  C   UNL     1      45.501   6.411  11.167  0.00  0.00    +0.000 A 
ATOM      6  C   UNL     1      46.783   6.600  11.718  0.00  0.00    +0.000 A 
ENDROOT
BRANCH   5   7
ATOM      7  C   UNL     1      45.162   5.156  10.467  0.00  0.00    +0.000 A 
ATOM      8  C   UNL     1      44.302   4.200  11.009  0.00  0.00    +0.000 A 
ATOM      9  N   UNL     1      43.934   3.044  10.400  0.00  0.00    +0.000 NA
ATOM     10  C   UNL     1      44.439   2.820   9.169  0.00  0.00    +0.000 A 
ATOM     11  C   UNL     1      45.293   3.691   8.511  0.00  0.00    +0.000 A 
ATOM     12  C   UNL     1      45.661   4.861   9.188  0.00  0.00    +0.000 A 
BRANCH  11  13
ATOM     13  C   UNL     1      45.820   3.393   7.141  0.00  0.00    +0.000 C 
BRANCH  13  14
ATOM     14  O   UNL     1      46.878   4.287   6.817  0.00  0.00    +0.000 OA
ATOM     15  H   UNL     1      46.949   4.924   7.549  0.00  0.00    +0.000 HD
ENDBRANCH  13  14
ENDBRANCH  11  13
ENDBRANCH   5   7
BRANCH   1  16
ATOM     16  C   UNL     1      48.635   8.059  12.703  0.00  0.00    +0.000 C 
ATOM     17  C   UNL     1      49.729   7.549  11.783  0.00  0.00    +0.000 C 
ATOM     18  C   UNL     1      49.357   8.993  11.728  0.00  0.00    +0.000 C 
BRANCH  16  19
ATOM     19  N   UNL     1      48.879   8.327  14.115  0.00  0.00    +0.000 N 
ATOM     20  H   UNL     1      48.882   9.285  14.447  0.00  0.00    +0.000 HD
BRANCH  19  24
ATOM     21  C   UNL     1      48.661   5.931  17.437  0.00  0.00    +0.000 A 
ATOM     22  C   UNL     1      48.813   7.304  17.509  0.00  0.00    +0.000 A 
ATOM     23  N   UNL     1      48.860   8.087  16.400  0.00  0.00    +0.000 NA
ATOM     24  C   UNL     1      48.756   7.474  15.199  0.00  0.00    +0.000 A 
ATOM     25  C   UNL     1      48.598   6.088  15.144  0.00  0.00    +0.000 A 
ATOM     26  N   UNL     1      48.546   5.289  16.252  0.00  0.00    +0.000 NA
BRANCH  21  28
ATOM     27  N   UNL     1      48.573   4.451  19.572  0.00  0.00    +0.000 NA
ATOM     28  C   UNL     1      48.634   5.136  18.637  0.00  0.00    +0.000 C 
ENDBRANCH  21  28
ENDBRANCH  19  24
ENDBRANCH  16  19
ENDBRANCH   1  16
TORSDOF 7
ENDMDL
MODEL 6
REMARK VINA RESULT:    -6.257      3.423      7.666
REMARK INTER + INTRA:          -9.450
REMARK INTER:                  -8.717
REMARK INTRA:                  -0.732
REMARK UNBOUND:                -0.816
REMARK  Name = 
REMARK  7 active torsions:
REMARK  status: ('A' for Active; 'I' for Inactive)
REMARK    1  A    between atoms: C_2  and  C_3
REMARK    2  A    between atoms: C_6  and  N_7
REMARK    3  A    between atoms: N_7  and  C_8
REMARK    4  A    between atoms: C_8  and  C_9
REMARK    5  A    between atoms: C_13  and  C_14
REMARK    6  A    between atoms: C_18  and  C_19
REMARK    7  A    between atoms: C_19  and  O_20
REMARK                            x       y       z     vdW  Elec       q    Type
REMARK                         _______ _______ _______ _____ _____    ______ ____
ROOT
ATOM      1  C   UNL     1      48.477   7.855  14.549  0.00  0.00    +0.000 A 
ATOM      2  C   UNL     1      49.298   8.424  13.563  0.00  0.00    +0.000 A 
ATOM      3  C   UNL     1      49.202   8.028  12.232  0.00  0.00    +0.000 A 
ATOM      4  C   UNL     1      48.253   7.076  11.854  0.00  0.00    +0.000 A 
ATOM      5  C   UNL     1      47.358   6.531  12.789  0.00  0.00    +0.000 A 
ATOM      6  C   UNL     1      47.489   6.950  14.127  0.00  0.00    +0.000 A 
ENDROOT
BRANCH   5   7
ATOM      7  C   UNL     1      46.347   5.522  12.415  0.00  0.00    +0.000 A 
ATOM      8  C   UNL     1      45.883   4.555  13.307  0.00  0.00    +0.000 A 
ATOM      9  N   UNL     1      44.938   3.622  13.028  0.00  0.00    +0.000 NA
ATOM     10  C   UNL     1      44.404   3.651  11.789  0.00  0.00    +0.000 A 
ATOM     11  C   UNL     1      44.765   4.566  10.811  0.00  0.00    +0.000 A 
ATOM     12  C   UNL     1      45.761   5.496  11.139  0.00  0.00    +0.000 A 
BRANCH  11  13
ATOM     13  C   UNL     1      44.135   4.555   9.452  0.00  0.00    +0.000 C 
BRANCH  13  14
ATOM     14  O   UNL     1      45.119   4.800   8.454  0.00  0.00    +0.000 OA
ATOM     15  H   UNL     1      45.987   4.771   8.893  0.00  0.00    +0.000 HD
ENDBRANCH  13  14
ENDBRANCH  11  13
ENDBRANCH   5   7
BRANCH   1  16
ATOM     16  C   UNL     1      48.747   8.103  16.029  0.00  0.00    +0.000 C 
ATOM     17  C   UNL     1      49.805   9.117  16.424  0.00  0.00    +0.000 C 
ATOM     18  C   UNL     1      48.367   9.511  16.493  0.00  0.00    +0.000 C 
BRANCH  16  19
ATOM     19  N   UNL     1      48.341   7.025  16.922  0.00  0.00    +0.000 N 
ATOM     20  H   UNL     1      47.416   7.042  17.337  0.00  0.00    +0.000 HD
BRANCH  19  24
ATOM     21  C   UNL     1      50.100   3.333  17.234  0.00  0.00    +0.000 A 
ATOM     22  C   UNL     1      50.741   4.503  17.597  0.00  0.00    +0.000 A 
ATOM     23  N   UNL     1      50.137   5.717  17.510  0.00  0.00    +0.000 NA
ATOM     24  C   UNL     1      48.867   5.750  17.046  0.00  0.00    +0.000 A 
ATOM     25  C   UNL     1      48.234   4.558  16.687  0.00  0.00    +0.000 A 
ATOM     26  N   UNL     1      48.829   3.330  16.773  0.00  0.00    +0.000 NA
BRANCH  21  28
ATOM     27  N   UNL     1      51.287   1.023  17.359  0.00  0.00    +0.000 NA
ATOM     28  C   UNL     1      50.784   2.068  17.324  0.00  0.00    +0.000 C 
ENDBRANCH  21  28
ENDBRANCH  19  24
ENDBRANCH  16  19
ENDBRANCH   1  16
TORSDOF 7
ENDMDL
MODEL 7
REMARK VINA RESULT:    -6.236      2.657      7.539
REMARK INTER + INTRA:          -9.422
REMARK INTER:                  -9.436
REMARK INTRA:                   0.014
REMARK UNBOUND:                -0.816
REMARK  Name = 
REMARK  7 active torsions:
REMARK  status: ('A' for Active; 'I' for Inactive)
REMARK    1  A    between atoms: C_2  and  C_3
REMARK    2  A    between atoms: C_6  and  N_7
REMARK    3  A    between atoms: N_7  and  C_8
REMARK    4  A    between atoms: C_8  and  C_9
REMARK    5  A    between atoms: C_13  and  C_14
REMARK    6  A    between atoms: C_18  and  C_19
REMARK    7  A    between atoms: C_19  and  O_20
REMARK                            x       y       z     vdW  Elec       q    Type
REMARK                         _______ _______ _______ _____ _____    ______ ____
ROOT
ATOM      1  C   UNL     1      45.443   6.261  11.655  0.00  0.00    +0.000 A 
ATOM      2  C   UNL     1      44.087   6.156  12.002  0.00  0.00    +0.000 A 
ATOM      3  C   UNL     1      43.219   5.350  11.272  0.00  0.00    +0.000 A 
ATOM      4  C   UNL     1      43.700   4.600  10.198  0.00  0.00    +0.000 A 
ATOM      5  C   UNL     1      45.063   4.611   9.856  0.00  0.00    +0.000 A 
ATOM      6  C   UNL     1      45.910   5.444  10.612  0.00  0.00    +0.000 A 
ENDROOT
BRANCH   5   7
ATOM      7  C   UNL     1      45.596   3.829   8.723  0.00  0.00    +0.000 A 
ATOM      8  C   UNL     1      46.126   4.426   7.579  0.00  0.00    +0.000 A 
ATOM      9  N   UNL     1      46.655   3.760   6.522  0.00  0.00    +0.000 NA
ATOM     10  C   UNL     1      46.673   2.414   6.601  0.00  0.00    +0.000 A 
ATOM     11  C   UNL     1      46.191   1.695   7.684  0.00  0.00    +0.000 A 
ATOM     12  C   UNL     1      45.636   2.426   8.742  0.00  0.00    +0.000 A 
BRANCH  11  13
ATOM     13  C   UNL     1      46.241   0.198   7.720  0.00  0.00    +0.000 C 
BRANCH  13  14
ATOM     14  O   UNL     1      47.578  -0.242   7.926  0.00  0.00    +0.000 OA
ATOM     15  H   UNL     1      47.667  -0.456   8.871  0.00  0.00    +0.000 HD
ENDBRANCH  13  14
ENDBRANCH  11  13
ENDBRANCH   5   7
BRANCH   1  16
ATOM     16  C   UNL     1      46.333   7.322  12.292  0.00  0.00    +0.000 C 
ATOM     17  C   UNL     1      46.290   8.739  11.751  0.00  0.00    +0.000 C 
ATOM     18  C   UNL     1      45.553   8.426  13.010  0.00  0.00    +0.000 C 
BRANCH  16  19
ATOM     19  N   UNL     1      47.490   6.809  13.016  0.00  0.00    +0.000 N 
ATOM     20  H   UNL     1      48.382   7.283  12.932  0.00  0.00    +0.000 HD
BRANCH  19  24
ATOM     21  C   UNL     1      47.818   4.378  16.303  0.00  0.00    +0.000 A 
ATOM     22  C   UNL     1      48.485   5.584  16.191  0.00  0.00    +0.000 A 
ATOM     23  N   UNL     1      48.348   6.390  15.106  0.00  0.00    +0.000 NA
ATOM     24  C   UNL     1      47.527   5.969  14.116  0.00  0.00    +0.000 A 
ATOM     25  C   UNL     1      46.858   4.751  14.248  0.00  0.00    +0.000 A 
ATOM     26  N   UNL     1      46.984   3.932  15.336  0.00  0.00    +0.000 NA
BRANCH  21  28
ATOM     27  N   UNL     1      48.146   2.821  18.359  0.00  0.00    +0.000 NA
ATOM     28  C   UNL     1      48.005   3.546  17.463  0.00  0.00    +0.000 C 
ENDBRANCH  21  28
ENDBRANCH  19  24
ENDBRANCH  16  19
ENDBRANCH   1  16
TORSDOF 7
ENDMDL
MODEL 8
REMARK VINA RESULT:    -5.937      2.825      4.552
REMARK INTER + INTRA:          -9.009
REMARK INTER:                  -8.372
REMARK INTRA:                  -0.636
REMARK UNBOUND:                -0.816
REMARK  Name = 
REMARK  7 active torsions:
REMARK  status: ('A' for Active; 'I' for Inactive)
REMARK    1  A    between atoms: C_2  and  C_3
REMARK    2  A    between atoms: C_6  and  N_7
REMARK    3  A    between atoms: N_7  and  C_8
REMARK    4  A    between atoms: C_8  and  C_9
REMARK    5  A    between atoms: C_13  and  C_14
REMARK    6  A    between atoms: C_18  and  C_19
REMARK    7  A    between atoms: C_19  and  O_20
REMARK                            x       y       z     vdW  Elec       q    Type
REMARK                         _______ _______ _______ _____ _____    ______ ____
ROOT
ATOM      1  C   UNL     1      48.329   8.407  14.111  0.00  0.00    +0.000 A 
ATOM      2  C   UNL     1      48.213   9.549  14.917  0.00  0.00    +0.000 A 
ATOM      3  C   UNL     1      48.413   9.482  16.293  0.00  0.00    +0.000 A 
ATOM      4  C   UNL     1      48.771   8.270  16.887  0.00  0.00    +0.000 A 
ATOM      5  C   UNL     1      48.973   7.114  16.115  0.00  0.00    +0.000 A 
ATOM      6  C   UNL     1      48.754   7.219  14.728  0.00  0.00    +0.000 A 
ENDROOT
BRANCH   5   7
ATOM      7  C   UNL     1      49.349   5.820  16.720  0.00  0.00    +0.000 A 
ATOM      8  C   UNL     1      50.629   5.564  17.212  0.00  0.00    +0.000 A 
ATOM      9  N   UNL     1      51.023   4.407  17.802  0.00  0.00    +0.000 NA
ATOM     10  C   UNL     1      50.090   3.441  17.925  0.00  0.00    +0.000 A 
ATOM     11  C   UNL     1      48.780   3.569  17.490  0.00  0.00    +0.000 A 
ATOM     12  C   UNL     1      48.426   4.774  16.869  0.00  0.00    +0.000 A 
BRANCH  11  13
ATOM     13  C   UNL     1      47.783   2.463  17.658  0.00  0.00    +0.000 C 
BRANCH  13  14
ATOM     14  O   UNL     1      46.461   2.989  17.643  0.00  0.00    +0.000 OA
ATOM     15  H   UNL     1      46.264   3.244  16.725  0.00  0.00    +0.000 HD
ENDBRANCH  13  14
ENDBRANCH  11  13
ENDBRANCH   5   7
BRANCH   1  16
ATOM     16  C   UNL     1      47.872   8.427  12.657  0.00  0.00    +0.000 C 
ATOM     17  C   UNL     1      47.054   9.604  12.159  0.00  0.00    +0.000 C 
ATOM     18  C   UNL     1      48.508   9.547  11.830  0.00  0.00    +0.000 C 
BRANCH  16  19
ATOM     19  N   UNL     1      47.825   7.124  12.004  0.00  0.00    +0.000 N 
ATOM     20  H   UNL     1      48.688   6.621  11.832  0.00  0.00    +0.000 HD
BRANCH  19  24
ATOM     21  C   UNL     1      44.802   4.366  11.721  0.00  0.00    +0.000 A 
ATOM     22  C   UNL     1      45.739   4.353  12.738  0.00  0.00    +0.000 A 
ATOM     23  N   UNL     1      46.721   5.287  12.832  0.00  0.00    +0.000 NA
ATOM     24  C   UNL     1      46.760   6.248  11.881  0.00  0.00    +0.000 A 
ATOM     25  C   UNL     1      45.803   6.250  10.863  0.00  0.00    +0.000 A 
ATOM     26  N   UNL     1      44.808   5.318  10.759  0.00  0.00    +0.000 NA
BRANCH  21  28
ATOM     27  N   UNL     1      43.020   2.480  11.574  0.00  0.00    +0.000 NA
ATOM     28  C   UNL     1      43.789   3.346  11.649  0.00  0.00    +0.000 C 
ENDBRANCH  21  28
ENDBRANCH  19  24
ENDBRANCH  16  19
ENDBRANCH   1  16
TORSDOF 7
ENDMDL
