MODEL 1
REMARK VINA RESULT:    -7.152      0.000      0.000
REMARK INTER + INTRA:         -10.395
REMARK INTER:                  -9.243
REMARK INTRA:                  -1.152
REMARK UNBOUND:                -1.152
REMARK  Name = 
REMARK  6 active torsions:
REMARK  status: ('A' for Active; 'I' for Inactive)
REMARK    1  A    between atoms: C_1  and  N_2
REMARK    2  A    between atoms: N_2  and  C_3
REMARK    3  A    between atoms: C_3  and  C_4
REMARK    4  A    between atoms: C_7  and  C_8
REMARK    5  A    between atoms: C_9  and  C_10
REMARK    6  A    between atoms: C_19  and  C_21
REMARK                            x       y       z     vdW  Elec       q    Type
REMARK                         _______ _______ _______ _____ _____    ______ ____
ROOT
ATOM      1  C   UNL     1      47.034   6.234  12.266  0.00  0.00    +0.000 C 
ENDROOT
BRANCH   1   2
ATOM      2  C   UNL     1      47.388   5.881  13.687  0.00  0.00    +0.000 A 
ATOM      3  C   UNL     1      48.278   6.685  14.415  0.00  0.00    +0.000 A 
ATOM      4  C   UNL     1      48.650   6.333  15.712  0.00  0.00    +0.000 A 
ATOM      5  C   UNL     1      48.127   5.184  16.319  0.00  0.00    +0.000 A 
ATOM      6  C   UNL     1      47.225   4.394  15.598  0.00  0.00    +0.000 A 
ATOM      7  C   UNL     1      46.858   4.737  14.294  0.00  0.00    +0.000 A 
BRANCH   5   8
ATOM      8  C   UNL     1      48.596   4.723  17.633  0.00  0.00    +0.000 C 
ATOM      9  C   UNL     1      48.562   5.474  18.744  0.00  0.00    +0.000 C 
BRANCH   9  10
ATOM     10  C   UNL     1      49.255   5.015  19.975  0.00  0.00    +0.000 C 
ATOM     11  O   UNL     1      48.665   4.334  20.810  0.00  0.00    +0.000 OA
ATOM     12  N   UNL     1      50.587   5.328  20.075  0.00  0.00    +0.000 N 
ATOM     13  C   UNL     1      51.396   4.774  21.136  0.00  0.00    +0.000 C 
ATOM     14  C   UNL     1      52.627   5.657  21.139  0.00  0.00    +0.000 C 
ATOM     15  N   UNL     1      52.682   6.207  19.772  0.00  0.00    +0.000 NA
ATOM     16  C   UNL     1      51.282   6.386  19.391  0.00  0.00    +0.000 C 
ATOM     17  H   UNL     1      53.057   5.480  19.162  0.00  0.00    +0.000 HD
ENDBRANCH   9  10
ENDBRANCH   5   8
ENDBRANCH   1   2
BRANCH   1  19
ATOM     18  C   UNL     1      46.043   8.571  12.142  0.00  0.00    +0.000 C 
ATOM     19  N   UNL     1      45.886   7.122  12.052  0.00  0.00    +0.000 N 
ATOM     20  C   UNL     1      44.635   6.680  11.589  0.00  0.00    +0.000 C 
ATOM     21  O   UNL     1      43.747   7.479  11.296  0.00  0.00    +0.000 OA
BRANCH  20  22
ATOM     22  C   UNL     1      44.363   5.240  11.492  0.00  0.00    +0.000 A 
ATOM     23  C   UNL     1      43.631   4.514  12.420  0.00  0.00    +0.000 A 
ATOM     24  S   UNL     1      43.412   2.878  11.989  0.00  0.00    +0.000 S 
ATOM     25  C   UNL     1      44.162   3.123  10.486  0.00  0.00    +0.000 A 
ATOM     26  N   UNL     1      44.217   2.130   9.561  0.00  0.00    +0.000 NA
ATOM     27  C   UNL     1      44.757   2.473   8.437  0.00  0.00    +0.000 A 
ATOM     28  N   UNL     1      45.282   3.711   8.173  0.00  0.00    +0.000 N 
ATOM     29  C   UNL     1      45.372   4.708   9.122  0.00  0.00    +0.000 A 
ATOM     30  O   UNL     1      46.053   5.706   8.927  0.00  0.00    +0.000 OA
ATOM     31  C   UNL     1      44.665   4.403  10.355  0.00  0.00    +0.000 A 
ATOM     32  H   UNL     1      45.754   3.895   7.299  0.00  0.00    +0.000 HD
ENDBRANCH  20  22
ENDBRANCH   1  19
TORSDOF 5
ENDMDL
MODEL 2
REMARK VINA RESULT:    -6.482      2.921      8.749
REMARK INTER + INTRA:          -9.529
REMARK INTER:                  -7.971
REMARK INTRA:                  -1.558
REMARK UNBOUND:                -1.152
REMARK  Name = 
REMARK  6 active torsions:
REMARK  status: ('A' for Active; 'I' for Inactive)
REMARK    1  A    between atoms: C_1  and  N_2
REMARK    2  A    between atoms: N_2  and  C_3
REMARK    3  A    between atoms: C_3  and  C_4
REMARK    4  A    between atoms: C_7  and  C_8
REMARK    5  A    between atoms: C_9  and  C_10
REMARK    6  A    between atoms: C_19  and  C_21
REMARK                            x       y       z     vdW  Elec       q    Type
REMARK                         _______ _______ _______ _____ _____    ______ ____
ROOT
ATOM      1  C   UNL     1      50.724   8.062  17.787  0.00  0.00    +0.000 C 
ENDROOT
BRANCH   1   2
ATOM      2  C   UNL     1      49.845   7.998  16.566  0.00  0.00    +0.000 A 
ATOM      3  C   UNL     1      48.766   8.884  16.425  0.00  0.00    +0.000 A 
ATOM      4  C   UNL     1      47.917   8.794  15.322  0.00  0.00    +0.000 A 
ATOM      5  C   UNL     1      48.139   7.834  14.325  0.00  0.00    +0.000 A 
ATOM      6  C   UNL     1      49.227   6.964  14.459  0.00  0.00    +0.000 A 
ATOM      7  C   UNL     1      50.073   7.044  15.569  0.00  0.00    +0.000 A 
BRANCH   5   8
ATOM      8  C   UNL     1      47.190   7.635  13.220  0.00  0.00    +0.000 C 
ATOM      9  C   UNL     1      46.342   6.599  13.143  0.00  0.00    +0.000 C 
BRANCH   9  10
ATOM     10  C   UNL     1      45.577   6.355  11.893  0.00  0.00    +0.000 C 
ATOM     11  O   UNL     1      45.274   7.286  11.150  0.00  0.00    +0.000 OA
ATOM     12  N   UNL     1      45.309   5.043  11.592  0.00  0.00    +0.000 N 
ATOM     13  C   UNL     1      44.737   4.683  10.315  0.00  0.00    +0.000 C 
ATOM     14  C   UNL     1      44.229   3.274  10.541  0.00  0.00    +0.000 C 
ATOM     15  N   UNL     1      45.049   2.767  11.656  0.00  0.00    +0.000 NA
ATOM     16  C   UNL     1      45.274   3.933  12.508  0.00  0.00    +0.000 C 
ATOM     17  H   UNL     1      45.959   2.506  11.276  0.00  0.00    +0.000 HD
ENDBRANCH   9  10
ENDBRANCH   5   8
ENDBRANCH   1   2
BRANCH   1  19
ATOM     18  C   UNL     1      49.545   8.809  19.912  0.00  0.00    +0.000 C 
ATOM     19  N   UNL     1      50.111   7.748  19.084  0.00  0.00    +0.000 N 
ATOM     20  C   UNL     1      49.872   6.439  19.536  0.00  0.00    +0.000 C 
ATOM     21  O   UNL     1      49.234   6.229  20.567  0.00  0.00    +0.000 OA
BRANCH  20  22
ATOM     22  C   UNL     1      50.426   5.300  18.793  0.00  0.00    +0.000 A 
ATOM     23  C   UNL     1      51.727   4.836  18.921  0.00  0.00    +0.000 A 
ATOM     24  S   UNL     1      52.050   3.443  17.991  0.00  0.00    +0.000 S 
ATOM     25  C   UNL     1      50.428   3.333  17.502  0.00  0.00    +0.000 A 
ATOM     26  N   UNL     1      49.991   2.284  16.759  0.00  0.00    +0.000 NA
ATOM     27  C   UNL     1      48.721   2.294  16.513  0.00  0.00    +0.000 A 
ATOM     28  N   UNL     1      47.859   3.281  16.914  0.00  0.00    +0.000 N 
ATOM     29  C   UNL     1      48.276   4.430  17.552  0.00  0.00    +0.000 A 
ATOM     30  O   UNL     1      47.526   5.389  17.681  0.00  0.00    +0.000 OA
ATOM     31  C   UNL     1      49.674   4.399  17.953  0.00  0.00    +0.000 A 
ATOM     32  H   UNL     1      46.890   3.265  16.630  0.00  0.00    +0.000 HD
ENDBRANCH  20  22
ENDBRANCH   1  19
TORSDOF 5
ENDMDL
MODEL 3
REMARK VINA RESULT:    -6.452      3.057      8.810
REMARK INTER + INTRA:          -9.491
REMARK INTER:                  -8.110
REMARK INTRA:                  -1.381
REMARK UNBOUND:                -1.152
REMARK  Name = 
REMARK  6 active torsions:
REMARK  status: ('A' for Active; 'I' for Inactive)
REMARK    1  A    between atoms: C_1  and  N_2
REMARK    2  A    between atoms: N_2  and  C_3
REMARK    3  A    between atoms: C_3  and  C_4
REMARK    4  A    between atoms: C_7  and  C_8
REMARK    5  A    between atoms: C_9  and  C_10
REMARK    6  A    between atoms: C_19  and  C_21
REMARK                            x       y       z     vdW  Elec       q    Type
REMARK                         _______ _______ _______ _____ _____    ______ ____
ROOT
ATOM      1  C   UNL     1      50.145   9.202  16.799  0.00  0.00    +0.000 C 
ENDROOT
BRANCH   1   2
ATOM      2  C   UNL     1      49.473   8.652  15.568  0.00  0.00    +0.000 A 
ATOM      3  C   UNL     1      48.260   9.197  15.122  0.00  0.00    +0.000 A 
ATOM      4  C   UNL     1      47.607   8.657  14.014  0.00  0.00    +0.000 A 
ATOM      5  C   UNL     1      48.160   7.576  13.316  0.00  0.00    +0.000 A 
ATOM      6  C   UNL     1      49.379   7.046  13.752  0.00  0.00    +0.000 A 
ATOM      7  C   UNL     1      50.031   7.578  14.868  0.00  0.00    +0.000 A 
BRANCH   5   8
ATOM      8  C   UNL     1      47.434   6.908  12.226  0.00  0.00    +0.000 C 
ATOM      9  C   UNL     1      46.175   6.456  12.335  0.00  0.00    +0.000 C 
BRANCH   9  10
ATOM     10  C   UNL     1      45.595   5.603  11.267  0.00  0.00    +0.000 C 
ATOM     11  O   UNL     1      45.826   5.835  10.083  0.00  0.00    +0.000 OA
ATOM     12  N   UNL     1      44.870   4.516  11.686  0.00  0.00    +0.000 N 
ATOM     13  C   UNL     1      44.421   3.521  10.738  0.00  0.00    +0.000 C 
ATOM     14  C   UNL     1      43.352   2.765  11.501  0.00  0.00    +0.000 C 
ATOM     15  N   UNL     1      43.698   2.979  12.919  0.00  0.00    +0.000 NA
ATOM     16  C   UNL     1      44.234   4.338  12.965  0.00  0.00    +0.000 C 
ATOM     17  H   UNL     1      44.472   2.355  13.145  0.00  0.00    +0.000 HD
ENDBRANCH   9  10
ENDBRANCH   5   8
ENDBRANCH   1   2
BRANCH   1  19
ATOM     18  C   UNL     1      52.648   8.794  16.967  0.00  0.00    +0.000 C 
ATOM     19  N   UNL     1      51.281   8.451  17.346  0.00  0.00    +0.000 N 
ATOM     20  C   UNL     1      51.163   7.496  18.371  0.00  0.00    +0.000 C 
ATOM     21  O   UNL     1      52.159   6.993  18.889  0.00  0.00    +0.000 OA
BRANCH  20  22
ATOM     22  C   UNL     1      49.831   7.056  18.805  0.00  0.00    +0.000 A 
ATOM     23  C   UNL     1      49.029   7.746  19.702  0.00  0.00    +0.000 A 
ATOM     24  S   UNL     1      47.500   7.029  19.943  0.00  0.00    +0.000 S 
ATOM     25  C   UNL     1      47.806   5.859  18.752  0.00  0.00    +0.000 A 
ATOM     26  N   UNL     1      46.847   4.974  18.376  0.00  0.00    +0.000 NA
ATOM     27  C   UNL     1      47.194   4.183  17.414  0.00  0.00    +0.000 A 
ATOM     28  N   UNL     1      48.430   4.175  16.821  0.00  0.00    +0.000 N 
ATOM     29  C   UNL     1      49.477   4.959  17.257  0.00  0.00    +0.000 A 
ATOM     30  O   UNL     1      50.621   4.759  16.867  0.00  0.00    +0.000 OA
ATOM     31  C   UNL     1      49.092   5.947  18.252  0.00  0.00    +0.000 A 
ATOM     32  H   UNL     1      48.661   3.485  16.122  0.00  0.00    +0.000 HD
ENDBRANCH  20  22
ENDBRANCH   1  19
TORSDOF 5
ENDMDL
MODEL 4
REMARK VINA RESULT:    -6.413      6.085      8.945
REMARK INTER + INTRA:          -9.440
REMARK INTER:                  -8.455
REMARK INTRA:                  -0.985
REMARK UNBOUND:                -1.152
REMARK  Name = 
REMARK  6 active torsions:
REMARK  status: ('A' for Active; 'I' for Inactive)
REMARK    1  A    between atoms: C_1  and  N_2
REMARK    2  A    between atoms: N_2  and  C_3
REMARK    3  A    between atoms: C_3  and  C_4
REMARK    4  A    between atoms: C_7  and  C_8
REMARK    5  A    between atoms: C_9  and  C_10
REMARK    6  A    between atoms: C_19  and  C_21
REMARK                            x       y       z     vdW  Elec       q    Type
REMARK                         _______ _______ _______ _____ _____    ______ ____
ROOT
ATOM      1  C   UNL     1      51.313  10.332  10.438  0.00  0.00    +0.000 C 
ENDROOT
BRANCH   1   2
ATOM      2  C   UNL     1      50.288   9.504  11.168  0.00  0.00    +0.000 A 
ATOM      3  C   UNL     1      50.528   8.145  11.422  0.00  0.00    +0.000 A 
ATOM      4  C   UNL     1      49.560   7.361  12.050  0.00  0.00    +0.000 A 
ATOM      5  C   UNL     1      48.342   7.920  12.458  0.00  0.00    +0.000 A 
ATOM      6  C   UNL     1      48.112   9.280  12.220  0.00  0.00    +0.000 A 
ATOM      7  C   UNL     1      49.076  10.066  11.581  0.00  0.00    +0.000 A 
BRANCH   5   8
ATOM      8  C   UNL     1      47.257   7.093  13.005  0.00  0.00    +0.000 C 
ATOM      9  C   UNL     1      46.918   5.890  12.519  0.00  0.00    +0.000 C 
BRANCH   9  10
ATOM     10  C   UNL     1      45.677   5.221  12.985  0.00  0.00    +0.000 C 
ATOM     11  O   UNL     1      45.714   4.385  13.886  0.00  0.00    +0.000 OA
ATOM     12  N   UNL     1      44.505   5.648  12.413  0.00  0.00    +0.000 N 
ATOM     13  C   UNL     1      43.230   5.199  12.923  0.00  0.00    +0.000 C 
ATOM     14  C   UNL     1      42.264   5.539  11.807  0.00  0.00    +0.000 C 
ATOM     15  N   UNL     1      42.927   6.634  11.075  0.00  0.00    +0.000 NA
ATOM     16  C   UNL     1      44.352   6.314  11.146  0.00  0.00    +0.000 C 
ATOM     17  H   UNL     1      42.795   7.490  11.613  0.00  0.00    +0.000 HD
ENDBRANCH   9  10
ENDBRANCH   5   8
ENDBRANCH   1   2
BRANCH   1  19
ATOM     18  C   UNL     1      53.178  10.674  12.129  0.00  0.00    +0.000 C 
ATOM     19  N   UNL     1      52.717  10.182  10.835  0.00  0.00    +0.000 N 
ATOM     20  C   UNL     1      53.656   9.428  10.109  0.00  0.00    +0.000 C 
ATOM     21  O   UNL     1      54.784   9.221  10.552  0.00  0.00    +0.000 OA
BRANCH  20  22
ATOM     22  C   UNL     1      53.303   8.914   8.779  0.00  0.00    +0.000 A 
ATOM     23  C   UNL     1      53.115   9.704   7.655  0.00  0.00    +0.000 A 
ATOM     24  S   UNL     1      52.799   8.811   6.237  0.00  0.00    +0.000 S 
ATOM     25  C   UNL     1      53.046   7.341   7.049  0.00  0.00    +0.000 A 
ATOM     26  N   UNL     1      53.028   6.160   6.379  0.00  0.00    +0.000 NA
ATOM     27  C   UNL     1      53.296   5.126   7.108  0.00  0.00    +0.000 A 
ATOM     28  N   UNL     1      53.542   5.167   8.456  0.00  0.00    +0.000 N 
ATOM     29  C   UNL     1      53.439   6.322   9.204  0.00  0.00    +0.000 A 
ATOM     30  O   UNL     1      53.431   6.283  10.428  0.00  0.00    +0.000 OA
ATOM     31  C   UNL     1      53.262   7.522   8.402  0.00  0.00    +0.000 A 
ATOM     32  H   UNL     1      53.676   4.316   8.982  0.00  0.00    +0.000 HD
ENDBRANCH  20  22
ENDBRANCH   1  19
TORSDOF 5
ENDMDL
MODEL 5
REMARK VINA RESULT:    -5.882      3.597      4.456
REMARK INTER + INTRA:          -8.754
REMARK INTER:                  -7.902
REMARK INTRA:                  -0.852
REMARK UNBOUND:                -1.152
REMARK  Name = 
REMARK  6 active torsions:
REMARK  status: ('A' for Active; 'I' for Inactive)
REMARK    1  A    between atoms: C_1  and  N_2
REMARK    2  A    between atoms: N_2  and  C_3
REMARK    3  A    between atoms: C_3  and  C_4
REMARK    4  A    between atoms: C_7  and  C_8
REMARK    5  A    between atoms: C_9  and  C_10
REMARK    6  A    between atoms: C_19  and  C_21
REMARK                            x       y       z     vdW  Elec       q    Type
REMARK                         _______ _______ _______ _____ _____    ______ ____
ROOT
ATOM      1  C   UNL     1      46.715   6.120  12.664  0.00  0.00    +0.000 C 
ENDROOT
BRANCH   1   2
ATOM      2  C   UNL     1      48.047   6.805  12.816  0.00  0.00    +0.000 A 
ATOM      3  C   UNL     1      48.618   6.968  14.087  0.00  0.00    +0.000 A 
ATOM      4  C   UNL     1      49.826   7.649  14.238  0.00  0.00    +0.000 A 
ATOM      5  C   UNL     1      50.501   8.163  13.123  0.00  0.00    +0.000 A 
ATOM      6  C   UNL     1      49.939   7.983  11.854  0.00  0.00    +0.000 A 
ATOM      7  C   UNL     1      48.723   7.311  11.700  0.00  0.00    +0.000 A 
BRANCH   5   8
ATOM      8  C   UNL     1      51.707   8.991  13.265  0.00  0.00    +0.000 C 
ATOM      9  C   UNL     1      52.772   8.639  14.000  0.00  0.00    +0.000 C 
BRANCH   9  10
ATOM     10  C   UNL     1      53.851   9.624  14.268  0.00  0.00    +0.000 C 
ATOM     11  O   UNL     1      54.248  10.377  13.382  0.00  0.00    +0.000 OA
ATOM     12  N   UNL     1      54.305   9.690  15.562  0.00  0.00    +0.000 N 
ATOM     13  C   UNL     1      55.216  10.735  15.969  0.00  0.00    +0.000 C 
ATOM     14  C   UNL     1      55.775  10.223  17.281  0.00  0.00    +0.000 C 
ATOM     15  N   UNL     1      54.745   9.291  17.775  0.00  0.00    +0.000 NA
ATOM     16  C   UNL     1      54.205   8.667  16.569  0.00  0.00    +0.000 C 
ATOM     17  H   UNL     1      53.991   9.848  18.176  0.00  0.00    +0.000 HD
ENDBRANCH   9  10
ENDBRANCH   5   8
ENDBRANCH   1   2
BRANCH   1  19
ATOM     18  C   UNL     1      45.602   8.400  12.505  0.00  0.00    +0.000 C 
ATOM     19  N   UNL     1      45.557   6.953  12.318  0.00  0.00    +0.000 N 
ATOM     20  C   UNL     1      44.423   6.469  11.643  0.00  0.00    +0.000 C 
ATOM     21  O   UNL     1      43.539   7.232  11.256  0.00  0.00    +0.000 OA
BRANCH  20  22
ATOM     22  C   UNL     1      44.264   5.024  11.432  0.00  0.00    +0.000 A 
ATOM     23  C   UNL     1      43.496   4.192  12.234  0.00  0.00    +0.000 A 
ATOM     24  S   UNL     1      43.437   2.578  11.685  0.00  0.00    +0.000 S 
ATOM     25  C   UNL     1      44.314   2.971  10.285  0.00  0.00    +0.000 A 
ATOM     26  N   UNL     1      44.530   2.048   9.313  0.00  0.00    +0.000 NA
ATOM     27  C   UNL     1      45.154   2.500   8.274  0.00  0.00    +0.000 A 
ATOM     28  N   UNL     1      45.613   3.784   8.140  0.00  0.00    +0.000 N 
ATOM     29  C   UNL     1      45.538   4.718   9.151  0.00  0.00    +0.000 A 
ATOM     30  O   UNL     1      46.163   5.769   9.088  0.00  0.00    +0.000 OA
ATOM     31  C   UNL     1      44.736   4.287  10.285  0.00  0.00    +0.000 A 
ATOM     32  H   UNL     1      46.155   4.056   7.332  0.00  0.00    +0.000 HD
ENDBRANCH  20  22
ENDBRANCH   1  19
TORSDOF 5
ENDMDL
MODEL 6
REMARK VINA RESULT:    -5.875      2.546      3.062
REMARK INTER + INTRA:          -8.745
REMARK INTER:                  -7.931
REMARK INTRA:                  -0.813
REMARK UNBOUND:                -1.152
REMARK  Name = 
REMARK  6 active torsions:
REMARK  status: ('A' for Active; 'I' for Inactive)
REMARK    1  A    between atoms: C_1  and  N_2
REMARK    2  A    between atoms: N_2  and  C_3
REMARK    3  A    between atoms: C_3  and  C_4
REMARK    4  A    between atoms: C_7  and  C_8
REMARK    5  A    between atoms: C_9  and  C_10
REMARK    6  A    between atoms: C_19  and  C_21
REMARK                            x       y       z     vdW  Elec       q    Type
REMARK                         _______ _______ _______ _____ _____    ______ ____
ROOT
ATOM      1  C   UNL     1      47.026   6.125  12.527  0.00  0.00    +0.000 C 
ENDROOT
BRANCH   1   2
ATOM      2  C   UNL     1      48.169   6.665  13.346  0.00  0.00    +0.000 A 
ATOM      3  C   UNL     1      49.223   7.350  12.724  0.00  0.00    +0.000 A 
ATOM      4  C   UNL     1      50.309   7.805  13.471  0.00  0.00    +0.000 A 
ATOM      5  C   UNL     1      50.357   7.606  14.857  0.00  0.00    +0.000 A 
ATOM      6  C   UNL     1      49.295   6.938  15.478  0.00  0.00    +0.000 A 
ATOM      7  C   UNL     1      48.210   6.471  14.731  0.00  0.00    +0.000 A 
BRANCH   5   8
ATOM      8  C   UNL     1      51.544   7.962  15.648  0.00  0.00    +0.000 C 
ATOM      9  C   UNL     1      52.747   7.390  15.487  0.00  0.00    +0.000 C 
BRANCH   9  10
ATOM     10  C   UNL     1      53.832   7.648  16.468  0.00  0.00    +0.000 C 
ATOM     11  O   UNL     1      54.476   8.694  16.431  0.00  0.00    +0.000 OA
ATOM     12  N   UNL     1      54.005   6.699  17.444  0.00  0.00    +0.000 N 
ATOM     13  C   UNL     1      54.902   6.938  18.551  0.00  0.00    +0.000 C 
ATOM     14  C   UNL     1      55.120   5.556  19.132  0.00  0.00    +0.000 C 
ATOM     15  N   UNL     1      53.927   4.796  18.718  0.00  0.00    +0.000 NA
ATOM     16  C   UNL     1      53.599   5.320  17.394  0.00  0.00    +0.000 C 
ATOM     17  H   UNL     1      53.160   5.065  19.334  0.00  0.00    +0.000 HD
ENDBRANCH   9  10
ENDBRANCH   5   8
ENDBRANCH   1   2
BRANCH   1  19
ATOM     18  C   UNL     1      46.032   8.462  12.425  0.00  0.00    +0.000 C 
ATOM     19  N   UNL     1      45.889   7.017  12.273  0.00  0.00    +0.000 N 
ATOM     20  C   UNL     1      44.671   6.588  11.719  0.00  0.00    +0.000 C 
ATOM     21  O   UNL     1      43.799   7.395  11.400  0.00  0.00    +0.000 OA
BRANCH  20  22
ATOM     22  C   UNL     1      44.412   5.152  11.554  0.00  0.00    +0.000 A 
ATOM     23  C   UNL     1      43.666   4.381  12.434  0.00  0.00    +0.000 A 
ATOM     24  S   UNL     1      43.470   2.764  11.929  0.00  0.00    +0.000 S 
ATOM     25  C   UNL     1      44.250   3.078  10.454  0.00  0.00    +0.000 A 
ATOM     26  N   UNL     1      44.333   2.127   9.489  0.00  0.00    +0.000 NA
ATOM     27  C   UNL     1      44.895   2.522   8.393  0.00  0.00    +0.000 A 
ATOM     28  N   UNL     1      45.415   3.774   8.193  0.00  0.00    +0.000 N 
ATOM     29  C   UNL     1      45.476   4.729   9.186  0.00  0.00    +0.000 A 
ATOM     30  O   UNL     1      46.154   5.740   9.049  0.00  0.00    +0.000 OA
ATOM     31  C   UNL     1      44.746   4.366  10.390  0.00  0.00    +0.000 A 
ATOM     32  H   UNL     1      45.904   3.998   7.339  0.00  0.00    +0.000 HD
ENDBRANCH  20  22
ENDBRANCH   1  19
TORSDOF 5
ENDMDL
MODEL 7
REMARK VINA RESULT:    -5.723      2.032      2.899
REMARK INTER + INTRA:          -8.548
REMARK INTER:                  -7.654
REMARK INTRA:                  -0.894
REMARK UNBOUND:                -1.152
REMARK  Name = 
REMARK  6 active torsions:
REMARK  status: ('A' for Active; 'I' for Inactive)
REMARK    1  A    between atoms: C_1  and  N_2
REMARK    2  A    between atoms: N_2  and  C_3
REMARK    3  A    between atoms: C_3  and  C_4
REMARK    4  A    between atoms: C_7  and  C_8
REMARK    5  A    between atoms: C_9  and  C_10
REMARK    6  A    between atoms: C_19  and  C_21
REMARK                            x       y       z     vdW  Elec       q    Type
REMARK                         _______ _______ _______ _____ _____    ______ ____
ROOT
ATOM      1  C   UNL     1      47.494   6.792  12.156  0.00  0.00    +0.000 C 
ENDROOT
BRANCH   1   2
ATOM      2  C   UNL     1      48.274   6.680  13.440  0.00  0.00    +0.000 A 
ATOM      3  C   UNL     1      47.780   5.909  14.503  0.00  0.00    +0.000 A 
ATOM      4  C   UNL     1      48.472   5.846  15.712  0.00  0.00    +0.000 A 
ATOM      5  C   UNL     1      49.682   6.533  15.880  0.00  0.00    +0.000 A 
ATOM      6  C   UNL     1      50.182   7.287  14.812  0.00  0.00    +0.000 A 
ATOM      7  C   UNL     1      49.485   7.361  13.602  0.00  0.00    +0.000 A 
BRANCH   5   8
ATOM      8  C   UNL     1      50.365   6.587  17.180  0.00  0.00    +0.000 C 
ATOM      9  C   UNL     1      51.699   6.597  17.322  0.00  0.00    +0.000 C 
BRANCH   9  10
ATOM     10  C   UNL     1      52.307   6.430  18.667  0.00  0.00    +0.000 C 
ATOM     11  O   UNL     1      52.488   7.400  19.399  0.00  0.00    +0.000 OA
ATOM     12  N   UNL     1      52.570   5.141  19.059  0.00  0.00    +0.000 N 
ATOM     13  C   UNL     1      52.985   4.854  20.413  0.00  0.00    +0.000 C 
ATOM     14  C   UNL     1      53.555   3.454  20.317  0.00  0.00    +0.000 C 
ATOM     15  N   UNL     1      52.896   2.874  19.132  0.00  0.00    +0.000 NA
ATOM     16  C   UNL     1      52.750   3.996  18.207  0.00  0.00    +0.000 C 
ATOM     17  H   UNL     1      51.953   2.600  19.407  0.00  0.00    +0.000 HD
ENDBRANCH   9  10
ENDBRANCH   5   8
ENDBRANCH   1   2
BRANCH   1  19
ATOM     18  C   UNL     1      46.349   8.972  12.785  0.00  0.00    +0.000 C 
ATOM     19  N   UNL     1      46.309   7.657  12.154  0.00  0.00    +0.000 N 
ATOM     20  C   UNL     1      45.141   7.376  11.423  0.00  0.00    +0.000 C 
ATOM     21  O   UNL     1      44.228   8.196  11.344  0.00  0.00    +0.000 OA
BRANCH  20  22
ATOM     22  C   UNL     1      44.986   6.067  10.776  0.00  0.00    +0.000 A 
ATOM     23  C   UNL     1      45.544   5.722   9.554  0.00  0.00    +0.000 A 
ATOM     24  S   UNL     1      45.259   4.102   9.104  0.00  0.00    +0.000 S 
ATOM     25  C   UNL     1      44.506   3.771  10.589  0.00  0.00    +0.000 A 
ATOM     26  N   UNL     1      44.108   2.512  10.907  0.00  0.00    +0.000 NA
ATOM     27  C   UNL     1      43.610   2.391  12.094  0.00  0.00    +0.000 A 
ATOM     28  N   UNL     1      43.442   3.426  12.976  0.00  0.00    +0.000 N 
ATOM     29  C   UNL     1      43.705   4.740  12.652  0.00  0.00    +0.000 A 
ATOM     30  O   UNL     1      43.324   5.657  13.369  0.00  0.00    +0.000 OA
ATOM     31  C   UNL     1      44.380   4.901  11.374  0.00  0.00    +0.000 A 
ATOM     32  H   UNL     1      42.982   3.278  13.863  0.00  0.00    +0.000 HD
ENDBRANCH  20  22
ENDBRANCH   1  19
TORSDOF 5
ENDMDL
MODEL 8
REMARK VINA RESULT:    -5.694      3.675      9.130
REMARK INTER + INTRA:          -8.511
REMARK INTER:                  -7.126
REMARK INTRA:                  -1.384
REMARK UNBOUND:                -1.152
REMARK  Name = 
REMARK  6 active torsions:
REMARK  status: ('A' for Active; 'I' for Inactive)
REMARK    1  A    between atoms: C_1  and  N_2
REMARK    2  A    between atoms: N_2  and  C_3
REMARK    3  A    between atoms: C_3  and  C_4
REMARK    4  A    between atoms: C_7  and  C_8
REMARK    5  A    between atoms: C_9  and  C_10
REMARK    6  A    between atoms: C_19  and  C_21
REMARK                            x       y       z     vdW  Elec       q    Type
REMARK                         _______ _______ _______ _____ _____    ______ ____
ROOT
ATOM      1  C   UNL     1      51.681   8.671  15.425  0.00  0.00    +0.000 C 
ENDROOT
BRANCH   1   2
ATOM      2  C   UNL     1      50.537   8.240  14.545  0.00  0.00    +0.000 A 
ATOM      3  C   UNL     1      50.246   8.946  13.369  0.00  0.00    +0.000 A 
ATOM      4  C   UNL     1      49.155   8.583  12.578  0.00  0.00    +0.000 A 
ATOM      5  C   UNL     1      48.344   7.496  12.933  0.00  0.00    +0.000 A 
ATOM      6  C   UNL     1      48.648   6.783  14.098  0.00  0.00    +0.000 A 
ATOM      7  C   UNL     1      49.734   7.150  14.898  0.00  0.00    +0.000 A 
BRANCH   5   8
ATOM      8  C   UNL     1      47.119   7.172  12.190  0.00  0.00    +0.000 C 
ATOM      9  C   UNL     1      45.929   6.959  12.771  0.00  0.00    +0.000 C 
BRANCH   9  10
ATOM     10  C   UNL     1      44.796   6.423  11.973  0.00  0.00    +0.000 C 
ATOM     11  O   UNL     1      44.079   7.175  11.316  0.00  0.00    +0.000 OA
ATOM     12  N   UNL     1      44.658   5.058  11.956  0.00  0.00    +0.000 N 
ATOM     13  C   UNL     1      43.709   4.425  11.068  0.00  0.00    +0.000 C 
ATOM     14  C   UNL     1      43.572   3.028  11.637  0.00  0.00    +0.000 C 
ATOM     15  N   UNL     1      44.830   2.811  12.374  0.00  0.00    +0.000 NA
ATOM     16  C   UNL     1      45.164   4.123  12.926  0.00  0.00    +0.000 C 
ATOM     17  H   UNL     1      45.555   2.592  11.691  0.00  0.00    +0.000 HD
ENDBRANCH   9  10
ENDBRANCH   5   8
ENDBRANCH   1   2
BRANCH   1  19
ATOM     18  C   UNL     1      51.625  11.181  15.817  0.00  0.00    +0.000 C 
ATOM     19  N   UNL     1      51.461   9.819  16.313  0.00  0.00    +0.000 N 
ATOM     20  C   UNL     1      50.928   9.709  17.610  0.00  0.00    +0.000 C 
ATOM     21  O   UNL     1      50.637  10.711  18.263  0.00  0.00    +0.000 OA
BRANCH  20  22
ATOM     22  C   UNL     1      50.754   8.383  18.215  0.00  0.00    +0.000 A 
ATOM     23  C   UNL     1      51.773   7.646  18.800  0.00  0.00    +0.000 A 
ATOM     24  S   UNL     1      51.245   6.181  19.494  0.00  0.00    +0.000 S 
ATOM     25  C   UNL     1      49.621   6.553  19.165  0.00  0.00    +0.000 A 
ATOM     26  N   UNL     1      48.617   5.749  19.599  0.00  0.00    +0.000 NA
ATOM     27  C   UNL     1      47.428   6.186  19.335  0.00  0.00    +0.000 A 
ATOM     28  N   UNL     1      47.159   7.336  18.641  0.00  0.00    +0.000 N 
ATOM     29  C   UNL     1      48.142   8.114  18.064  0.00  0.00    +0.000 A 
ATOM     30  O   UNL     1      47.861   8.992  17.259  0.00  0.00    +0.000 OA
ATOM     31  C   UNL     1      49.490   7.724  18.443  0.00  0.00    +0.000 A 
ATOM     32  H   UNL     1      46.209   7.587  18.406  0.00  0.00    +0.000 HD
ENDBRANCH  20  22
ENDBRANCH   1  19
TORSDOF 5
ENDMDL
MODEL 9
REMARK VINA RESULT:    -5.607      5.604      8.959
REMARK INTER + INTRA:          -8.398
REMARK INTER:                  -7.512
REMARK INTRA:                  -0.886
REMARK UNBOUND:                -1.152
REMARK  Name = 
REMARK  6 active torsions:
REMARK  status: ('A' for Active; 'I' for Inactive)
REMARK    1  A    between atoms: C_1  and  N_2
REMARK    2  A    between atoms: N_2  and  C_3
REMARK    3  A    between atoms: C_3  and  C_4
REMARK    4  A    between atoms: C_7  and  C_8
REMARK    5  A    between atoms: C_9  and  C_10
REMARK    6  A    between atoms: C_19  and  C_21
REMARK                            x       y       z     vdW  Elec       q    Type
REMARK                         _______ _______ _______ _____ _____    ______ ____
ROOT
ATOM      1  C   UNL     1      51.909   8.479  13.681  0.00  0.00    +0.000 C 
ENDROOT
BRANCH   1   2
ATOM      2  C   UNL     1      50.536   8.088  13.200  0.00  0.00    +0.000 A 
ATOM      3  C   UNL     1      49.661   7.394  14.049  0.00  0.00    +0.000 A 
ATOM      4  C   UNL     1      48.409   6.983  13.590  0.00  0.00    +0.000 A 
ATOM      5  C   UNL     1      47.996   7.273  12.283  0.00  0.00    +0.000 A 
ATOM      6  C   UNL     1      48.865   7.981  11.444  0.00  0.00    +0.000 A 
ATOM      7  C   UNL     1      50.124   8.385  11.897  0.00  0.00    +0.000 A 
BRANCH   5   8
ATOM      8  C   UNL     1      46.739   6.744  11.735  0.00  0.00    +0.000 C 
ATOM      9  C   UNL     1      45.528   7.033  12.234  0.00  0.00    +0.000 C 
BRANCH   9  10
ATOM     10  C   UNL     1      44.332   6.288  11.764  0.00  0.00    +0.000 C 
ATOM     11  O   UNL     1      43.401   6.876  11.217  0.00  0.00    +0.000 OA
ATOM     12  N   UNL     1      44.372   4.923  11.904  0.00  0.00    +0.000 N 
ATOM     13  C   UNL     1      43.348   4.092  11.314  0.00  0.00    +0.000 C 
ATOM     14  C   UNL     1      43.517   2.766  12.027  0.00  0.00    +0.000 C 
ATOM     15  N   UNL     1      44.920   2.774  12.480  0.00  0.00    +0.000 NA
ATOM     16  C   UNL     1      45.189   4.170  12.819  0.00  0.00    +0.000 C 
ATOM     17  H   UNL     1      45.506   2.553  11.675  0.00  0.00    +0.000 HD
ENDBRANCH   9  10
ENDBRANCH   5   8
ENDBRANCH   1   2
BRANCH   1  19
ATOM     18  C   UNL     1      52.061  11.004  13.428  0.00  0.00    +0.000 C 
ATOM     19  N   UNL     1      52.528   9.666  13.080  0.00  0.00    +0.000 N 
ATOM     20  C   UNL     1      53.688   9.621  12.286  0.00  0.00    +0.000 C 
ATOM     21  O   UNL     1      54.245  10.654  11.917  0.00  0.00    +0.000 OA
BRANCH  20  22
ATOM     22  C   UNL     1      54.223   8.324  11.852  0.00  0.00    +0.000 A 
ATOM     23  C   UNL     1      55.042   7.514  12.624  0.00  0.00    +0.000 A 
ATOM     24  S   UNL     1      55.431   6.029  11.880  0.00  0.00    +0.000 S 
ATOM     25  C   UNL     1      54.403   6.359  10.570  0.00  0.00    +0.000 A 
ATOM     26  N   UNL     1      54.186   5.435   9.600  0.00  0.00    +0.000 NA
ATOM     27  C   UNL     1      53.331   5.794   8.699  0.00  0.00    +0.000 A 
ATOM     28  N   UNL     1      52.704   7.012   8.663  0.00  0.00    +0.000 N 
ATOM     29  C   UNL     1      52.992   8.032   9.546  0.00  0.00    +0.000 A 
ATOM     30  O   UNL     1      52.596   9.173   9.345  0.00  0.00    +0.000 OA
ATOM     31  C   UNL     1      53.853   7.625  10.645  0.00  0.00    +0.000 A 
ATOM     32  H   UNL     1      52.099   7.259   7.893  0.00  0.00    +0.000 HD
ENDBRANCH  20  22
ENDBRANCH   1  19
TORSDOF 5
ENDMDL
