MODEL 1
REMARK VINA RESULT:    -7.921      0.000      0.000
REMARK INTER + INTRA:         -10.080
REMARK INTER:                  -9.773
REMARK INTRA:                  -0.307
REMARK UNBOUND:                -0.307
REMARK  Name = 
REMARK  4 active torsions:
REMARK  status: ('A' for Active; 'I' for Inactive)
REMARK    1  A    between atoms: C_2  and  C_3
REMARK    2  A    between atoms: C_6  and  C_7
REMARK    3  A    between atoms: C_7  and  C_8
REMARK    4  A    between atoms: C_12  and  C_13
REMARK                            x       y       z     vdW  Elec       q    Type
REMARK                         _______ _______ _______ _____ _____    ______ ____
ROOT
ATOM      1  C   UNL     1      45.607   4.687  11.695  0.00  0.00    +0.000 A 
ATOM      2  C   UNL     1      45.868   4.057  12.923  0.00  0.00    +0.000 A 
ATOM      3  C   UNL     1      46.656   4.679  13.893  0.00  0.00    +0.000 A 
ATOM      4  C   UNL     1      47.159   5.965  13.673  0.00  0.00    +0.000 A 
ATOM      5  C   UNL     1      46.913   6.642  12.471  0.00  0.00    +0.000 A 
ATOM      6  C   UNL     1      46.188   5.951  11.484  0.00  0.00    +0.000 A 
ATOM      7  F   UNL     1      45.950   6.550  10.303  0.00  0.00    +0.000 F 
ENDROOT
BRANCH   5   8
ATOM      8  C   UNL     1      47.275   8.066  12.291  0.00  0.00    +0.000 A 
ATOM      9  C   UNL     1      48.578   8.474  11.952  0.00  0.00    +0.000 A 
ATOM     10  C   UNL     1      48.871   9.812  11.669  0.00  0.00    +0.000 A 
ATOM     11  C   UNL     1      47.869  10.777  11.737  0.00  0.00    +0.000 A 
ATOM     12  C   UNL     1      46.577  10.404  12.089  0.00  0.00    +0.000 A 
ATOM     13  C   UNL     1      46.285   9.067  12.358  0.00  0.00    +0.000 A 
ENDBRANCH   5   8
BRANCH   1  14
ATOM     14  C   UNL     1      44.601   4.139  10.686  0.00  0.00    +0.000 C 
ATOM     15  C   UNL     1      43.367   3.416  11.219  0.00  0.00    +0.000 C 
ATOM     16  C   UNL     1      43.216   4.762  10.588  0.00  0.00    +0.000 C 
BRANCH  14  20
ATOM     17  C   UNL     1      46.576   2.665   7.187  0.00  0.00    +0.000 A 
ATOM     18  C   UNL     1      46.209   1.752   8.155  0.00  0.00    +0.000 A 
ATOM     19  C   UNL     1      45.537   2.226   9.278  0.00  0.00    +0.000 A 
ATOM     20  C   UNL     1      45.253   3.586   9.414  0.00  0.00    +0.000 A 
ATOM     21  N   UNL     1      45.634   4.437   8.429  0.00  0.00    +0.000 NA
ATOM     22  N   UNL     1      46.298   3.978   7.306  0.00  0.00    +0.000 NA
BRANCH  17  24
ATOM     23  N   UNL     1      47.883   1.944   5.066  0.00  0.00    +0.000 NA
ATOM     24  C   UNL     1      47.272   2.267   6.003  0.00  0.00    +0.000 C 
ENDBRANCH  17  24
ENDBRANCH  14  20
ENDBRANCH   1  14
TORSDOF 4
ENDMDL
MODEL 2
REMARK VINA RESULT:    -7.541      1.444      2.235
REMARK INTER + INTRA:          -9.611
REMARK INTER:                  -9.255
REMARK INTRA:                  -0.356
REMARK UNBOUND:                -0.307
REMARK  Name = 
REMARK  4 active torsions:
REMARK  status: ('A' for Active; 'I' for Inactive)
REMARK    1  A    between atoms: C_2  and  C_3
REMARK    2  A    between atoms: C_6  and  C_7
REMARK    3  A    between atoms: C_7  and  C_8
REMARK    4  A    between atoms: C_12  and  C_13
REMARK                            x       y       z     vdW  Elec       q    Type
REMARK                         _______ _______ _______ _____ _____    ______ ____
ROOT
ATOM      1  C   UNL     1      44.787   5.738  11.526  0.00  0.00    +0.000 A 
ATOM      2  C   UNL     1      43.964   6.844  11.256  0.00  0.00    +0.000 A 
ATOM      3  C   UNL     1      44.416   8.144  11.484  0.00  0.00    +0.000 A 
ATOM      4  C   UNL     1      45.719   8.367  11.941  0.00  0.00    +0.000 A 
ATOM      5  C   UNL     1      46.584   7.298  12.210  0.00  0.00    +0.000 A 
ATOM      6  C   UNL     1      46.066   6.000  12.050  0.00  0.00    +0.000 A 
ATOM      7  F   UNL     1      46.851   4.941  12.322  0.00  0.00    +0.000 F 
ENDROOT
BRANCH   5   8
ATOM      8  C   UNL     1      48.017   7.512  12.513  0.00  0.00    +0.000 A 
ATOM      9  C   UNL     1      48.953   7.853  11.520  0.00  0.00    +0.000 A 
ATOM     10  C   UNL     1      50.276   8.170  11.845  0.00  0.00    +0.000 A 
ATOM     11  C   UNL     1      50.698   8.133  13.172  0.00  0.00    +0.000 A 
ATOM     12  C   UNL     1      49.798   7.780  14.171  0.00  0.00    +0.000 A 
ATOM     13  C   UNL     1      48.476   7.478  13.845  0.00  0.00    +0.000 A 
ENDBRANCH   5   8
BRANCH   1  14
ATOM     14  C   UNL     1      44.415   4.315  11.116  0.00  0.00    +0.000 C 
ATOM     15  C   UNL     1      44.294   3.258  12.209  0.00  0.00    +0.000 C 
ATOM     16  C   UNL     1      43.062   3.744  11.517  0.00  0.00    +0.000 C 
BRANCH  14  20
ATOM     17  C   UNL     1      46.288   3.163   7.444  0.00  0.00    +0.000 A 
ATOM     18  C   UNL     1      45.809   2.164   8.266  0.00  0.00    +0.000 A 
ATOM     19  C   UNL     1      45.170   2.538   9.445  0.00  0.00    +0.000 A 
ATOM     20  C   UNL     1      45.029   3.887   9.778  0.00  0.00    +0.000 A 
ATOM     21  N   UNL     1      45.515   4.826   8.929  0.00  0.00    +0.000 NA
ATOM     22  N   UNL     1      46.147   4.466   7.754  0.00  0.00    +0.000 NA
BRANCH  17  24
ATOM     23  N   UNL     1      47.551   2.648   5.238  0.00  0.00    +0.000 NA
ATOM     24  C   UNL     1      46.960   2.869   6.216  0.00  0.00    +0.000 C 
ENDBRANCH  17  24
ENDBRANCH  14  20
ENDBRANCH   1  14
TORSDOF 4
ENDMDL
MODEL 3
REMARK VINA RESULT:    -7.488      3.243      6.892
REMARK INTER + INTRA:          -9.545
REMARK INTER:                  -9.402
REMARK INTRA:                  -0.143
REMARK UNBOUND:                -0.307
REMARK  Name = 
REMARK  4 active torsions:
REMARK  status: ('A' for Active; 'I' for Inactive)
REMARK    1  A    between atoms: C_2  and  C_3
REMARK    2  A    between atoms: C_6  and  C_7
REMARK    3  A    between atoms: C_7  and  C_8
REMARK    4  A    between atoms: C_12  and  C_13
REMARK                            x       y       z     vdW  Elec       q    Type
REMARK                         _______ _______ _______ _____ _____    ______ ____
ROOT
ATOM      1  C   UNL     1      45.030   6.280  11.791  0.00  0.00    +0.000 A 
ATOM      2  C   UNL     1      43.706   6.035  12.192  0.00  0.00    +0.000 A 
ATOM      3  C   UNL     1      42.906   5.127  11.497  0.00  0.00    +0.000 A 
ATOM      4  C   UNL     1      43.428   4.412  10.415  0.00  0.00    +0.000 A 
ATOM      5  C   UNL     1      44.747   4.609   9.987  0.00  0.00    +0.000 A 
ATOM      6  C   UNL     1      45.497   5.592  10.657  0.00  0.00    +0.000 A 
ATOM      7  F   UNL     1      46.761   5.836  10.263  0.00  0.00    +0.000 F 
ENDROOT
BRANCH   5   8
ATOM      8  C   UNL     1      45.376   3.734   8.971  0.00  0.00    +0.000 A 
ATOM      9  C   UNL     1      46.081   4.249   7.868  0.00  0.00    +0.000 A 
ATOM     10  C   UNL     1      46.769   3.408   6.987  0.00  0.00    +0.000 A 
ATOM     11  C   UNL     1      46.750   2.029   7.179  0.00  0.00    +0.000 A 
ATOM     12  C   UNL     1      46.044   1.492   8.249  0.00  0.00    +0.000 A 
ATOM     13  C   UNL     1      45.371   2.335   9.134  0.00  0.00    +0.000 A 
ENDBRANCH   5   8
BRANCH   1  14
ATOM     14  C   UNL     1      46.002   7.111  12.626  0.00  0.00    +0.000 C 
ATOM     15  C   UNL     1      46.759   8.242  11.937  0.00  0.00    +0.000 C 
ATOM     16  C   UNL     1      45.685   8.569  12.923  0.00  0.00    +0.000 C 
BRANCH  14  20
ATOM     17  C   UNL     1      48.035   4.922  15.692  0.00  0.00    +0.000 A 
ATOM     18  C   UNL     1      46.966   4.315  15.064  0.00  0.00    +0.000 A 
ATOM     19  C   UNL     1      46.325   5.012  14.043  0.00  0.00    +0.000 A 
ATOM     20  C   UNL     1      46.755   6.290  13.679  0.00  0.00    +0.000 A 
ATOM     21  N   UNL     1      47.813   6.835  14.328  0.00  0.00    +0.000 NA
ATOM     22  N   UNL     1      48.461   6.150  15.339  0.00  0.00    +0.000 NA
BRANCH  17  24
ATOM     23  N   UNL     1      49.374   3.763  17.586  0.00  0.00    +0.000 NA
ATOM     24  C   UNL     1      48.749   4.280  16.751  0.00  0.00    +0.000 C 
ENDBRANCH  17  24
ENDBRANCH  14  20
ENDBRANCH   1  14
TORSDOF 4
ENDMDL
MODEL 4
REMARK VINA RESULT:    -6.860      5.244      7.999
REMARK INTER + INTRA:          -8.771
REMARK INTER:                  -8.375
REMARK INTRA:                  -0.396
REMARK UNBOUND:                -0.307
REMARK  Name = 
REMARK  4 active torsions:
REMARK  status: ('A' for Active; 'I' for Inactive)
REMARK    1  A    between atoms: C_2  and  C_3
REMARK    2  A    between atoms: C_6  and  C_7
REMARK    3  A    between atoms: C_7  and  C_8
REMARK    4  A    between atoms: C_12  and  C_13
REMARK                            x       y       z     vdW  Elec       q    Type
REMARK                         _______ _______ _______ _____ _____    ______ ____
ROOT
ATOM      1  C   UNL     1      48.201   5.499  15.713  0.00  0.00    +0.000 A 
ATOM      2  C   UNL     1      48.870   6.621  15.196  0.00  0.00    +0.000 A 
ATOM      3  C   UNL     1      48.542   7.133  13.941  0.00  0.00    +0.000 A 
ATOM      4  C   UNL     1      47.504   6.563  13.196  0.00  0.00    +0.000 A 
ATOM      5  C   UNL     1      46.796   5.453  13.676  0.00  0.00    +0.000 A 
ATOM      6  C   UNL     1      47.211   4.912  14.905  0.00  0.00    +0.000 A 
ATOM      7  F   UNL     1      46.577   3.829  15.393  0.00  0.00    +0.000 F 
ENDROOT
BRANCH   5   8
ATOM      8  C   UNL     1      45.580   4.952  12.996  0.00  0.00    +0.000 A 
ATOM      9  C   UNL     1      45.506   3.662  12.441  0.00  0.00    +0.000 A 
ATOM     10  C   UNL     1      44.311   3.165  11.911  0.00  0.00    +0.000 A 
ATOM     11  C   UNL     1      43.165   3.957  11.906  0.00  0.00    +0.000 A 
ATOM     12  C   UNL     1      43.215   5.243  12.430  0.00  0.00    +0.000 A 
ATOM     13  C   UNL     1      44.406   5.731  12.971  0.00  0.00    +0.000 A 
ENDBRANCH   5   8
BRANCH   1  14
ATOM     14  C   UNL     1      48.387   5.020  17.152  0.00  0.00    +0.000 C 
ATOM     15  C   UNL     1      48.209   6.035  18.277  0.00  0.00    +0.000 C 
ATOM     16  C   UNL     1      47.188   4.960  18.086  0.00  0.00    +0.000 C 
BRANCH  14  20
ATOM     17  C   UNL     1      51.521   2.117  17.413  0.00  0.00    +0.000 A 
ATOM     18  C   UNL     1      51.738   3.356  17.982  0.00  0.00    +0.000 A 
ATOM     19  C   UNL     1      50.707   4.290  17.927  0.00  0.00    +0.000 A 
ATOM     20  C   UNL     1      49.496   3.974  17.307  0.00  0.00    +0.000 A 
ATOM     21  N   UNL     1      49.338   2.740  16.768  0.00  0.00    +0.000 NA
ATOM     22  N   UNL     1      50.353   1.802  16.822  0.00  0.00    +0.000 NA
BRANCH  17  24
ATOM     23  N   UNL     1      53.372   0.302  17.458  0.00  0.00    +0.000 NA
ATOM     24  C   UNL     1      52.526   1.099  17.422  0.00  0.00    +0.000 C 
ENDBRANCH  17  24
ENDBRANCH  14  20
ENDBRANCH   1  14
TORSDOF 4
ENDMDL
MODEL 5
REMARK VINA RESULT:    -6.623      3.859      7.730
REMARK INTER + INTRA:          -8.479
REMARK INTER:                  -7.701
REMARK INTRA:                  -0.777
REMARK UNBOUND:                -0.307
REMARK  Name = 
REMARK  4 active torsions:
REMARK  status: ('A' for Active; 'I' for Inactive)
REMARK    1  A    between atoms: C_2  and  C_3
REMARK    2  A    between atoms: C_6  and  C_7
REMARK    3  A    between atoms: C_7  and  C_8
REMARK    4  A    between atoms: C_12  and  C_13
REMARK                            x       y       z     vdW  Elec       q    Type
REMARK                         _______ _______ _______ _____ _____    ______ ____
ROOT
ATOM      1  C   UNL     1      47.252   8.236  12.233  0.00  0.00    +0.000 A 
ATOM      2  C   UNL     1      46.496   9.415  12.123  0.00  0.00    +0.000 A 
ATOM      3  C   UNL     1      45.147   9.370  11.769  0.00  0.00    +0.000 A 
ATOM      4  C   UNL     1      44.514   8.140  11.563  0.00  0.00    +0.000 A 
ATOM      5  C   UNL     1      45.221   6.935  11.676  0.00  0.00    +0.000 A 
ATOM      6  C   UNL     1      46.597   7.024  11.951  0.00  0.00    +0.000 A 
ATOM      7  F   UNL     1      47.323   5.894  12.042  0.00  0.00    +0.000 F 
ENDROOT
BRANCH   5   8
ATOM      8  C   UNL     1      44.534   5.624  11.647  0.00  0.00    +0.000 A 
ATOM      9  C   UNL     1      44.507   4.814  10.497  0.00  0.00    +0.000 A 
ATOM     10  C   UNL     1      43.959   3.528  10.525  0.00  0.00    +0.000 A 
ATOM     11  C   UNL     1      43.405   3.029  11.702  0.00  0.00    +0.000 A 
ATOM     12  C   UNL     1      43.401   3.816  12.848  0.00  0.00    +0.000 A 
ATOM     13  C   UNL     1      43.961   5.093  12.820  0.00  0.00    +0.000 A 
ENDBRANCH   5   8
BRANCH   1  14
ATOM     14  C   UNL     1      48.669   8.217  12.802  0.00  0.00    +0.000 C 
ATOM     15  C   UNL     1      49.811   7.811  11.876  0.00  0.00    +0.000 C 
ATOM     16  C   UNL     1      49.690   9.234  12.315  0.00  0.00    +0.000 C 
BRANCH  14  20
ATOM     17  C   UNL     1      49.024   6.888  16.855  0.00  0.00    +0.000 A 
ATOM     18  C   UNL     1      48.710   8.214  16.634  0.00  0.00    +0.000 A 
ATOM     19  C   UNL     1      48.562   8.640  15.317  0.00  0.00    +0.000 A 
ATOM     20  C   UNL     1      48.733   7.745  14.259  0.00  0.00    +0.000 A 
ATOM     21  N   UNL     1      49.037   6.453  14.535  0.00  0.00    +0.000 NA
ATOM     22  N   UNL     1      49.182   6.017  15.839  0.00  0.00    +0.000 NA
BRANCH  17  24
ATOM     23  N   UNL     1      49.291   5.957  19.260  0.00  0.00    +0.000 NA
ATOM     24  C   UNL     1      49.198   6.366  18.175  0.00  0.00    +0.000 C 
ENDBRANCH  17  24
ENDBRANCH  14  20
ENDBRANCH   1  14
TORSDOF 4
ENDMDL
MODEL 6
REMARK VINA RESULT:    -5.908      3.317      5.096
REMARK INTER + INTRA:          -7.596
REMARK INTER:                  -6.851
REMARK INTRA:                  -0.745
REMARK UNBOUND:                -0.307
REMARK  Name = 
REMARK  4 active torsions:
REMARK  status: ('A' for Active; 'I' for Inactive)
REMARK    1  A    between atoms: C_2  and  C_3
REMARK    2  A    between atoms: C_6  and  C_7
REMARK    3  A    between atoms: C_7  and  C_8
REMARK    4  A    between atoms: C_12  and  C_13
REMARK                            x       y       z     vdW  Elec       q    Type
REMARK                         _______ _______ _______ _____ _____    ______ ____
ROOT
ATOM      1  C   UNL     1      47.851   7.656  12.947  0.00  0.00    +0.000 A 
ATOM      2  C   UNL     1      48.284   7.632  14.282  0.00  0.00    +0.000 A 
ATOM      3  C   UNL     1      49.643   7.687  14.594  0.00  0.00    +0.000 A 
ATOM      4  C   UNL     1      50.595   7.816  13.577  0.00  0.00    +0.000 A 
ATOM      5  C   UNL     1      50.212   7.861  12.230  0.00  0.00    +0.000 A 
ATOM      6  C   UNL     1      48.841   7.717  11.949  0.00  0.00    +0.000 A 
ATOM      7  F   UNL     1      48.428   7.728  10.669  0.00  0.00    +0.000 F 
ENDROOT
BRANCH   5   8
ATOM      8  C   UNL     1      51.178   8.183  11.156  0.00  0.00    +0.000 A 
ATOM      9  C   UNL     1      51.609   9.498  10.901  0.00  0.00    +0.000 A 
ATOM     10  C   UNL     1      52.611   9.766   9.963  0.00  0.00    +0.000 A 
ATOM     11  C   UNL     1      53.193   8.725   9.244  0.00  0.00    +0.000 A 
ATOM     12  C   UNL     1      52.772   7.418   9.462  0.00  0.00    +0.000 A 
ATOM     13  C   UNL     1      51.781   7.153  10.408  0.00  0.00    +0.000 A 
ENDBRANCH   5   8
BRANCH   1  14
ATOM     14  C   UNL     1      46.379   7.793  12.561  0.00  0.00    +0.000 C 
ATOM     15  C   UNL     1      45.560   8.896  13.225  0.00  0.00    +0.000 C 
ATOM     16  C   UNL     1      45.916   9.013  11.778  0.00  0.00    +0.000 C 
BRANCH  14  20
ATOM     17  C   UNL     1      44.303   4.104  11.930  0.00  0.00    +0.000 A 
ATOM     18  C   UNL     1      44.577   4.888  10.828  0.00  0.00    +0.000 A 
ATOM     19  C   UNL     1      45.282   6.072  11.028  0.00  0.00    +0.000 A 
ATOM     20  C   UNL     1      45.688   6.448  12.309  0.00  0.00    +0.000 A 
ATOM     21  N   UNL     1      45.394   5.637  13.355  0.00  0.00    +0.000 NA
ATOM     22  N   UNL     1      44.699   4.456  13.169  0.00  0.00    +0.000 NA
BRANCH  17  24
ATOM     23  N   UNL     1      43.029   1.858  11.690  0.00  0.00    +0.000 NA
ATOM     24  C   UNL     1      43.582   2.874  11.818  0.00  0.00    +0.000 C 
ENDBRANCH  17  24
ENDBRANCH  14  20
ENDBRANCH   1  14
TORSDOF 4
ENDMDL
MODEL 7
REMARK VINA RESULT:    -5.797      3.643      5.827
REMARK INTER + INTRA:          -7.459
REMARK INTER:                  -7.619
REMARK INTRA:                   0.160
REMARK UNBOUND:                -0.307
REMARK  Name = 
REMARK  4 active torsions:
REMARK  status: ('A' for Active; 'I' for Inactive)
REMARK    1  A    between atoms: C_2  and  C_3
REMARK    2  A    between atoms: C_6  and  C_7
REMARK    3  A    between atoms: C_7  and  C_8
REMARK    4  A    between atoms: C_12  and  C_13
REMARK                            x       y       z     vdW  Elec       q    Type
REMARK                         _______ _______ _______ _____ _____    ______ ____
ROOT
ATOM      1  C   UNL     1      46.336   6.748  12.908  0.00  0.00    +0.000 A 
ATOM      2  C   UNL     1      45.356   7.751  12.822  0.00  0.00    +0.000 A 
ATOM      3  C   UNL     1      45.698   9.057  12.467  0.00  0.00    +0.000 A 
ATOM      4  C   UNL     1      47.021   9.375  12.143  0.00  0.00    +0.000 A 
ATOM      5  C   UNL     1      48.032   8.406  12.197  0.00  0.00    +0.000 A 
ATOM      6  C   UNL     1      47.666   7.123  12.641  0.00  0.00    +0.000 A 
ATOM      7  F   UNL     1      48.608   6.167  12.735  0.00  0.00    +0.000 F 
ENDROOT
BRANCH   5   8
ATOM      8  C   UNL     1      49.394   8.672  11.682  0.00  0.00    +0.000 A 
ATOM      9  C   UNL     1      50.291   7.638  11.358  0.00  0.00    +0.000 A 
ATOM     10  C   UNL     1      51.526   7.907  10.760  0.00  0.00    +0.000 A 
ATOM     11  C   UNL     1      51.902   9.221  10.491  0.00  0.00    +0.000 A 
ATOM     12  C   UNL     1      51.043  10.263  10.819  0.00  0.00    +0.000 A 
ATOM     13  C   UNL     1      49.805   9.991  11.402  0.00  0.00    +0.000 A 
ENDBRANCH   5   8
BRANCH   1  14
ATOM     14  C   UNL     1      45.990   5.273  13.101  0.00  0.00    +0.000 C 
ATOM     15  C   UNL     1      44.543   4.839  12.887  0.00  0.00    +0.000 C 
ATOM     16  C   UNL     1      45.588   4.430  11.900  0.00  0.00    +0.000 C 
BRANCH  14  20
ATOM     17  C   UNL     1      48.313   3.428  16.186  0.00  0.00    +0.000 A 
ATOM     18  C   UNL     1      47.902   4.731  16.378  0.00  0.00    +0.000 A 
ATOM     19  C   UNL     1      47.118   5.322  15.390  0.00  0.00    +0.000 A 
ATOM     20  C   UNL     1      46.770   4.609  14.241  0.00  0.00    +0.000 A 
ATOM     21  N   UNL     1      47.199   3.330  14.107  0.00  0.00    +0.000 NA
ATOM     22  N   UNL     1      47.974   2.732  15.084  0.00  0.00    +0.000 NA
BRANCH  17  24
ATOM     23  N   UNL     1      49.812   2.173  17.889  0.00  0.00    +0.000 NA
ATOM     24  C   UNL     1      49.123   2.745  17.147  0.00  0.00    +0.000 C 
ENDBRANCH  17  24
ENDBRANCH  14  20
ENDBRANCH   1  14
TORSDOF 4
ENDMDL
MODEL 8
REMARK VINA RESULT:    -5.709      5.247      8.006
REMARK INTER + INTRA:          -7.350
REMARK INTER:                  -6.953
REMARK INTRA:                  -0.398
REMARK UNBOUND:                -0.307
REMARK  Name = 
REMARK  4 active torsions:
REMARK  status: ('A' for Active; 'I' for Inactive)
REMARK    1  A    between atoms: C_2  and  C_3
REMARK    2  A    between atoms: C_6  and  C_7
REMARK    3  A    between atoms: C_7  and  C_8
REMARK    4  A    between atoms: C_12  and  C_13
REMARK                            x       y       z     vdW  Elec       q    Type
REMARK                         _______ _______ _______ _____ _____    ______ ____
ROOT
ATOM      1  C   UNL     1      49.405   6.909  15.211  0.00  0.00    +0.000 A 
ATOM      2  C   UNL     1      50.291   7.722  14.485  0.00  0.00    +0.000 A 
ATOM      3  C   UNL     1      50.037   8.042  13.150  0.00  0.00    +0.000 A 
ATOM      4  C   UNL     1      48.867   7.594  12.529  0.00  0.00    +0.000 A 
ATOM      5  C   UNL     1      47.944   6.794  13.216  0.00  0.00    +0.000 A 
ATOM      6  C   UNL     1      48.274   6.422  14.531  0.00  0.00    +0.000 A 
ATOM      7  F   UNL     1      47.430   5.632  15.222  0.00  0.00    +0.000 F 
ENDROOT
BRANCH   5   8
ATOM      8  C   UNL     1      46.619   6.467  12.643  0.00  0.00    +0.000 A 
ATOM      9  C   UNL     1      45.737   7.457  12.172  0.00  0.00    +0.000 A 
ATOM     10  C   UNL     1      44.544   7.121  11.525  0.00  0.00    +0.000 A 
ATOM     11  C   UNL     1      44.195   5.783  11.351  0.00  0.00    +0.000 A 
ATOM     12  C   UNL     1      45.039   4.785  11.824  0.00  0.00    +0.000 A 
ATOM     13  C   UNL     1      46.235   5.124  12.457  0.00  0.00    +0.000 A 
ENDBRANCH   5   8
BRANCH   1  14
ATOM     14  C   UNL     1      49.535   6.691  16.717  0.00  0.00    +0.000 C 
ATOM     15  C   UNL     1      49.813   7.904  17.600  0.00  0.00    +0.000 C 
ATOM     16  C   UNL     1      48.472   7.246  17.653  0.00  0.00    +0.000 C 
BRANCH  14  20
ATOM     17  C   UNL     1      51.461   2.965  17.570  0.00  0.00    +0.000 A 
ATOM     18  C   UNL     1      52.212   4.118  17.666  0.00  0.00    +0.000 A 
ATOM     19  C   UNL     1      51.579   5.334  17.421  0.00  0.00    +0.000 A 
ATOM     20  C   UNL     1      50.225   5.372  17.084  0.00  0.00    +0.000 A 
ATOM     21  N   UNL     1      49.534   4.207  17.008  0.00  0.00    +0.000 NA
ATOM     22  N   UNL     1      50.151   2.995  17.254  0.00  0.00    +0.000 NA
BRANCH  17  24
ATOM     23  N   UNL     1      52.536   0.639  17.965  0.00  0.00    +0.000 NA
ATOM     24  C   UNL     1      52.030   1.674  17.802  0.00  0.00    +0.000 C 
ENDBRANCH  17  24
ENDBRANCH  14  20
ENDBRANCH   1  14
TORSDOF 4
ENDMDL
MODEL 9
REMARK VINA RESULT:    -5.604     11.160     13.331
REMARK INTER + INTRA:          -7.222
REMARK INTER:                  -6.427
REMARK INTRA:                  -0.795
REMARK UNBOUND:                -0.307
REMARK  Name = 
REMARK  4 active torsions:
REMARK  status: ('A' for Active; 'I' for Inactive)
REMARK    1  A    between atoms: C_2  and  C_3
REMARK    2  A    between atoms: C_6  and  C_7
REMARK    3  A    between atoms: C_7  and  C_8
REMARK    4  A    between atoms: C_12  and  C_13
REMARK                            x       y       z     vdW  Elec       q    Type
REMARK                         _______ _______ _______ _____ _____    ______ ____
ROOT
ATOM      1  C   UNL     1      42.153  -4.921  16.926  0.00  0.00    +0.000 A 
ATOM      2  C   UNL     1      41.744  -3.913  17.814  0.00  0.00    +0.000 A 
ATOM      3  C   UNL     1      41.101  -2.766  17.348  0.00  0.00    +0.000 A 
ATOM      4  C   UNL     1      40.812  -2.625  15.987  0.00  0.00    +0.000 A 
ATOM      5  C   UNL     1      41.185  -3.610  15.062  0.00  0.00    +0.000 A 
ATOM      6  C   UNL     1      41.906  -4.711  15.557  0.00  0.00    +0.000 A 
ATOM      7  F   UNL     1      42.309  -5.670  14.702  0.00  0.00    +0.000 F 
ENDROOT
BRANCH   5   8
ATOM      8  C   UNL     1      40.728  -3.570  13.655  0.00  0.00    +0.000 A 
ATOM      9  C   UNL     1      39.670  -4.369  13.185  0.00  0.00    +0.000 A 
ATOM     10  C   UNL     1      39.175  -4.230  11.884  0.00  0.00    +0.000 A 
ATOM     11  C   UNL     1      39.741  -3.299  11.016  0.00  0.00    +0.000 A 
ATOM     12  C   UNL     1      40.801  -2.510  11.449  0.00  0.00    +0.000 A 
ATOM     13  C   UNL     1      41.284  -2.642  12.751  0.00  0.00    +0.000 A 
ENDBRANCH   5   8
BRANCH   1  14
ATOM     14  C   UNL     1      42.681  -6.273  17.401  0.00  0.00    +0.000 C 
ATOM     15  C   UNL     1      41.925  -6.991  18.515  0.00  0.00    +0.000 C 
ATOM     16  C   UNL     1      41.877  -7.535  17.124  0.00  0.00    +0.000 C 
BRANCH  14  20
ATOM     17  C   UNL     1      46.956  -6.429  17.274  0.00  0.00    +0.000 A 
ATOM     18  C   UNL     1      46.367  -5.573  18.182  0.00  0.00    +0.000 A 
ATOM     19  C   UNL     1      44.977  -5.545  18.247  0.00  0.00    +0.000 A 
ATOM     20  C   UNL     1      44.211  -6.360  17.410  0.00  0.00    +0.000 A 
ATOM     21  N   UNL     1      44.844  -7.185  16.540  0.00  0.00    +0.000 NA
ATOM     22  N   UNL     1      46.225  -7.224  16.470  0.00  0.00    +0.000 NA
BRANCH  17  24
ATOM     23  N   UNL     1      49.526  -6.605  16.976  0.00  0.00    +0.000 NA
ATOM     24  C   UNL     1      48.377  -6.520  17.137  0.00  0.00    +0.000 C 
ENDBRANCH  17  24
ENDBRANCH  14  20
ENDBRANCH   1  14
TORSDOF 4
ENDMDL
