MODEL 1
REMARK VINA RESULT:    -7.725      0.000      0.000
REMARK INTER + INTRA:          -9.856
REMARK INTER:                  -9.306
REMARK INTRA:                  -0.550
REMARK UNBOUND:                -0.550
REMARK  Name = 
REMARK  4 active torsions:
REMARK  status: ('A' for Active; 'I' for Inactive)
REMARK    1  A    between atoms: N_1  and  C_2
REMARK    2  A    between atoms: C_2  and  C_3
REMARK    3  A    between atoms: C_6  and  C_7
REMARK    4  A    between atoms: C_7  and  N_8
REMARK                            x       y       z     vdW  Elec       q    Type
REMARK                         _______ _______ _______ _____ _____    ______ ____
ROOT
ATOM      1  C   UNL     1      46.802   2.158   7.487  0.00  0.00    +0.000 A 
ATOM      2  C   UNL     1      45.894   1.561   8.373  0.00  0.00    +0.000 A 
ATOM      3  C   UNL     1      44.932   2.329   9.034  0.00  0.00    +0.000 A 
ATOM      4  C   UNL     1      44.856   3.712   8.826  0.00  0.00    +0.000 A 
ATOM      5  C   UNL     1      45.753   4.306   7.927  0.00  0.00    +0.000 A 
ATOM      6  C   UNL     1      46.715   3.538   7.265  0.00  0.00    +0.000 A 
ENDROOT
BRANCH   1   7
ATOM      7  C   UNL     1      47.885   1.339   6.833  0.00  0.00    +0.000 C 
BRANCH   7   8
ATOM      8  N   UNL     1      48.381   1.962   5.612  0.00  0.00    +0.000 NA
ATOM      9  H   UNL     1      48.582   2.943   5.799  0.00  0.00    +0.000 HD
ATOM     10  H   UNL     1      47.640   1.947   4.915  0.00  0.00    +0.000 HD
ENDBRANCH   7   8
ENDBRANCH   1   7
BRANCH   4  11
ATOM     11  C   UNL     1      43.847   4.549   9.567  0.00  0.00    +0.000 C 
BRANCH  11  12
ATOM     12  N   UNL     1      44.101   4.569  11.005  0.00  0.00    +0.000 N 
ATOM     13  C   UNL     1      43.372   3.852  11.929  0.00  0.00    +0.000 A 
ATOM     14  C   UNL     1      43.958   4.024  13.162  0.00  0.00    +0.000 A 
ATOM     15  C   UNL     1      45.079   4.863  12.987  0.00  0.00    +0.000 A 
ATOM     16  N   UNL     1      45.969   5.288  13.916  0.00  0.00    +0.000 NA
ATOM     17  C   UNL     1      46.947   6.086  13.440  0.00  0.00    +0.000 A 
ATOM     18  C   UNL     1      47.090   6.486  12.119  0.00  0.00    +0.000 A 
ATOM     19  C   UNL     1      46.173   6.042  11.169  0.00  0.00    +0.000 A 
ATOM     20  C   UNL     1      45.153   5.206  11.635  0.00  0.00    +0.000 A 
ENDBRANCH  11  12
ENDBRANCH   4  11
TORSDOF 4
ENDMDL
MODEL 2
REMARK VINA RESULT:    -7.635      1.134      1.660
REMARK INTER + INTRA:          -9.747
REMARK INTER:                  -9.200
REMARK INTRA:                  -0.547
REMARK UNBOUND:                -0.550
REMARK  Name = 
REMARK  4 active torsions:
REMARK  status: ('A' for Active; 'I' for Inactive)
REMARK    1  A    between atoms: N_1  and  C_2
REMARK    2  A    between atoms: C_2  and  C_3
REMARK    3  A    between atoms: C_6  and  C_7
REMARK    4  A    between atoms: C_7  and  N_8
REMARK                            x       y       z     vdW  Elec       q    Type
REMARK                         _______ _______ _______ _____ _____    ______ ____
ROOT
ATOM      1  C   UNL     1      46.527   2.346   7.532  0.00  0.00    +0.000 A 
ATOM      2  C   UNL     1      45.724   1.598   8.403  0.00  0.00    +0.000 A 
ATOM      3  C   UNL     1      44.845   2.230   9.285  0.00  0.00    +0.000 A 
ATOM      4  C   UNL     1      44.748   3.628   9.317  0.00  0.00    +0.000 A 
ATOM      5  C   UNL     1      45.539   4.376   8.434  0.00  0.00    +0.000 A 
ATOM      6  C   UNL     1      46.418   3.742   7.550  0.00  0.00    +0.000 A 
ENDROOT
BRANCH   1   7
ATOM      7  C   UNL     1      47.528   1.663   6.634  0.00  0.00    +0.000 C 
BRANCH   7   8
ATOM      8  N   UNL     1      48.655   2.530   6.313  0.00  0.00    +0.000 NA
ATOM      9  H   UNL     1      48.369   3.501   6.423  0.00  0.00    +0.000 HD
ATOM     10  H   UNL     1      48.890   2.407   5.330  0.00  0.00    +0.000 HD
ENDBRANCH   7   8
ENDBRANCH   1   7
BRANCH   4  11
ATOM     11  C   UNL     1      43.831   4.315  10.295  0.00  0.00    +0.000 C 
BRANCH  11  12
ATOM     12  N   UNL     1      44.563   5.168  11.227  0.00  0.00    +0.000 N 
ATOM     13  C   UNL     1      44.414   6.536  11.302  0.00  0.00    +0.000 A 
ATOM     14  C   UNL     1      45.171   6.991  12.359  0.00  0.00    +0.000 A 
ATOM     15  C   UNL     1      45.793   5.870  12.949  0.00  0.00    +0.000 A 
ATOM     16  N   UNL     1      46.612   5.830  14.028  0.00  0.00    +0.000 NA
ATOM     17  C   UNL     1      47.050   4.598  14.360  0.00  0.00    +0.000 A 
ATOM     18  C   UNL     1      46.735   3.423  13.695  0.00  0.00    +0.000 A 
ATOM     19  C   UNL     1      45.889   3.472  12.588  0.00  0.00    +0.000 A 
ATOM     20  C   UNL     1      45.413   4.736  12.227  0.00  0.00    +0.000 A 
ENDBRANCH  11  12
ENDBRANCH   4  11
TORSDOF 4
ENDMDL
MODEL 3
REMARK VINA RESULT:    -6.118      1.312      5.960
REMARK INTER + INTRA:          -7.919
REMARK INTER:                  -7.387
REMARK INTRA:                  -0.532
REMARK UNBOUND:                -0.550
REMARK  Name = 
REMARK  4 active torsions:
REMARK  status: ('A' for Active; 'I' for Inactive)
REMARK    1  A    between atoms: N_1  and  C_2
REMARK    2  A    between atoms: C_2  and  C_3
REMARK    3  A    between atoms: C_6  and  C_7
REMARK    4  A    between atoms: C_7  and  N_8
REMARK                            x       y       z     vdW  Elec       q    Type
REMARK                         _______ _______ _______ _____ _____    ______ ____
ROOT
ATOM      1  C   UNL     1      46.645   5.848  12.751  0.00  0.00    +0.000 A 
ATOM      2  C   UNL     1      46.658   6.484  11.502  0.00  0.00    +0.000 A 
ATOM      3  C   UNL     1      45.929   5.966  10.429  0.00  0.00    +0.000 A 
ATOM      4  C   UNL     1      45.170   4.798  10.579  0.00  0.00    +0.000 A 
ATOM      5  C   UNL     1      45.143   4.171  11.832  0.00  0.00    +0.000 A 
ATOM      6  C   UNL     1      45.872   4.691  12.907  0.00  0.00    +0.000 A 
ENDROOT
BRANCH   1   7
ATOM      7  C   UNL     1      47.491   6.368  13.885  0.00  0.00    +0.000 C 
BRANCH   7   8
ATOM      8  N   UNL     1      47.670   5.373  14.936  0.00  0.00    +0.000 NA
ATOM      9  H   UNL     1      48.080   4.534  14.531  0.00  0.00    +0.000 HD
ATOM     10  H   UNL     1      46.753   5.106  15.289  0.00  0.00    +0.000 HD
ENDBRANCH   7   8
ENDBRANCH   1   7
BRANCH   4  11
ATOM     11  C   UNL     1      44.415   4.214   9.413  0.00  0.00    +0.000 C 
BRANCH  11  12
ATOM     12  N   UNL     1      45.053   3.007   8.896  0.00  0.00    +0.000 N 
ATOM     13  C   UNL     1      44.672   1.727   9.232  0.00  0.00    +0.000 A 
ATOM     14  C   UNL     1      45.414   0.847   8.476  0.00  0.00    +0.000 A 
ATOM     15  C   UNL     1      46.267   1.611   7.651  0.00  0.00    +0.000 A 
ATOM     16  N   UNL     1      47.159   1.178   6.728  0.00  0.00    +0.000 NA
ATOM     17  C   UNL     1      47.831   2.156   6.087  0.00  0.00    +0.000 A 
ATOM     18  C   UNL     1      47.679   3.517   6.307  0.00  0.00    +0.000 A 
ATOM     19  C   UNL     1      46.757   3.955   7.256  0.00  0.00    +0.000 A 
ATOM     20  C   UNL     1      46.040   2.961   7.929  0.00  0.00    +0.000 A 
ENDBRANCH  11  12
ENDBRANCH   4  11
TORSDOF 4
ENDMDL
MODEL 4
REMARK VINA RESULT:    -5.910      2.222      5.982
REMARK INTER + INTRA:          -7.669
REMARK INTER:                  -7.215
REMARK INTRA:                  -0.453
REMARK UNBOUND:                -0.550
REMARK  Name = 
REMARK  4 active torsions:
REMARK  status: ('A' for Active; 'I' for Inactive)
REMARK    1  A    between atoms: N_1  and  C_2
REMARK    2  A    between atoms: C_2  and  C_3
REMARK    3  A    between atoms: C_6  and  C_7
REMARK    4  A    between atoms: C_7  and  N_8
REMARK                            x       y       z     vdW  Elec       q    Type
REMARK                         _______ _______ _______ _____ _____    ______ ____
ROOT
ATOM      1  C   UNL     1      48.242   7.928  13.757  0.00  0.00    +0.000 A 
ATOM      2  C   UNL     1      48.192   6.810  12.912  0.00  0.00    +0.000 A 
ATOM      3  C   UNL     1      47.063   6.556  12.130  0.00  0.00    +0.000 A 
ATOM      4  C   UNL     1      45.956   7.413  12.174  0.00  0.00    +0.000 A 
ATOM      5  C   UNL     1      46.013   8.540  13.006  0.00  0.00    +0.000 A 
ATOM      6  C   UNL     1      47.144   8.795  13.787  0.00  0.00    +0.000 A 
ENDROOT
BRANCH   1   7
ATOM      7  C   UNL     1      49.432   8.159  14.653  0.00  0.00    +0.000 C 
BRANCH   7   8
ATOM      8  N   UNL     1      50.241   6.956  14.811  0.00  0.00    +0.000 NA
ATOM      9  H   UNL     1      50.194   6.411  13.952  0.00  0.00    +0.000 HD
ATOM     10  H   UNL     1      49.828   6.380  15.541  0.00  0.00    +0.000 HD
ENDBRANCH   7   8
ENDBRANCH   1   7
BRANCH   4  11
ATOM     11  C   UNL     1      44.721   7.120  11.363  0.00  0.00    +0.000 C 
BRANCH  11  12
ATOM     12  N   UNL     1      44.358   5.706  11.407  0.00  0.00    +0.000 N 
ATOM     13  C   UNL     1      43.611   5.131  12.412  0.00  0.00    +0.000 A 
ATOM     14  C   UNL     1      43.373   3.818  12.070  0.00  0.00    +0.000 A 
ATOM     15  C   UNL     1      43.986   3.588  10.820  0.00  0.00    +0.000 A 
ATOM     16  N   UNL     1      43.998   2.451  10.082  0.00  0.00    +0.000 NA
ATOM     17  C   UNL     1      44.669   2.540   8.915  0.00  0.00    +0.000 A 
ATOM     18  C   UNL     1      45.324   3.669   8.446  0.00  0.00    +0.000 A 
ATOM     19  C   UNL     1      45.305   4.835   9.208  0.00  0.00    +0.000 A 
ATOM     20  C   UNL     1      44.608   4.773  10.419  0.00  0.00    +0.000 A 
ENDBRANCH  11  12
ENDBRANCH   4  11
TORSDOF 4
ENDMDL
MODEL 5
REMARK VINA RESULT:    -5.259      2.748      4.393
REMARK INTER + INTRA:          -6.885
REMARK INTER:                  -6.472
REMARK INTRA:                  -0.414
REMARK UNBOUND:                -0.550
REMARK  Name = 
REMARK  4 active torsions:
REMARK  status: ('A' for Active; 'I' for Inactive)
REMARK    1  A    between atoms: N_1  and  C_2
REMARK    2  A    between atoms: C_2  and  C_3
REMARK    3  A    between atoms: C_6  and  C_7
REMARK    4  A    between atoms: C_7  and  N_8
REMARK                            x       y       z     vdW  Elec       q    Type
REMARK                         _______ _______ _______ _____ _____    ______ ____
ROOT
ATOM      1  C   UNL     1      44.919   3.322   9.872  0.00  0.00    +0.000 A 
ATOM      2  C   UNL     1      45.227   4.641   9.510  0.00  0.00    +0.000 A 
ATOM      3  C   UNL     1      45.354   5.637  10.481  0.00  0.00    +0.000 A 
ATOM      4  C   UNL     1      45.174   5.338  11.839  0.00  0.00    +0.000 A 
ATOM      5  C   UNL     1      44.883   4.016  12.202  0.00  0.00    +0.000 A 
ATOM      6  C   UNL     1      44.757   3.019  11.230  0.00  0.00    +0.000 A 
ENDROOT
BRANCH   1   7
ATOM      7  C   UNL     1      44.711   2.266   8.817  0.00  0.00    +0.000 C 
BRANCH   7   8
ATOM      8  N   UNL     1      45.963   1.635   8.419  0.00  0.00    +0.000 NA
ATOM      9  H   UNL     1      45.839   1.200   7.506  0.00  0.00    +0.000 HD
ATOM     10  H   UNL     1      46.170   0.883   9.072  0.00  0.00    +0.000 HD
ENDBRANCH   7   8
ENDBRANCH   1   7
BRANCH   4  11
ATOM     11  C   UNL     1      45.270   6.418  12.885  0.00  0.00    +0.000 C 
BRANCH  11  12
ATOM     12  N   UNL     1      46.432   7.278  12.681  0.00  0.00    +0.000 N 
ATOM     13  C   UNL     1      47.737   6.838  12.728  0.00  0.00    +0.000 A 
ATOM     14  C   UNL     1      48.555   7.890  12.382  0.00  0.00    +0.000 A 
ATOM     15  C   UNL     1      47.728   9.000  12.111  0.00  0.00    +0.000 A 
ATOM     16  N   UNL     1      48.088  10.245  11.714  0.00  0.00    +0.000 NA
ATOM     17  C   UNL     1      47.061  11.099  11.528  0.00  0.00    +0.000 A 
ATOM     18  C   UNL     1      45.719  10.801  11.713  0.00  0.00    +0.000 A 
ATOM     19  C   UNL     1      45.356   9.518  12.118  0.00  0.00    +0.000 A 
ATOM     20  C   UNL     1      46.402   8.609  12.311  0.00  0.00    +0.000 A 
ENDBRANCH  11  12
ENDBRANCH   4  11
TORSDOF 4
ENDMDL
MODEL 6
REMARK VINA RESULT:    -5.015      2.625      4.334
REMARK INTER + INTRA:          -6.590
REMARK INTER:                  -6.266
REMARK INTRA:                  -0.325
REMARK UNBOUND:                -0.550
REMARK  Name = 
REMARK  4 active torsions:
REMARK  status: ('A' for Active; 'I' for Inactive)
REMARK    1  A    between atoms: N_1  and  C_2
REMARK    2  A    between atoms: C_2  and  C_3
REMARK    3  A    between atoms: C_6  and  C_7
REMARK    4  A    between atoms: C_7  and  N_8
REMARK                            x       y       z     vdW  Elec       q    Type
REMARK                         _______ _______ _______ _____ _____    ______ ____
ROOT
ATOM      1  C   UNL     1      45.119   3.657   9.681  0.00  0.00    +0.000 A 
ATOM      2  C   UNL     1      45.429   4.996   9.404  0.00  0.00    +0.000 A 
ATOM      3  C   UNL     1      45.497   5.940  10.432  0.00  0.00    +0.000 A 
ATOM      4  C   UNL     1      45.257   5.567  11.761  0.00  0.00    +0.000 A 
ATOM      5  C   UNL     1      44.965   4.225  12.040  0.00  0.00    +0.000 A 
ATOM      6  C   UNL     1      44.897   3.280  11.011  0.00  0.00    +0.000 A 
ENDROOT
BRANCH   1   7
ATOM      7  C   UNL     1      44.974   2.657   8.562  0.00  0.00    +0.000 C 
BRANCH   7   8
ATOM      8  N   UNL     1      44.627   1.330   9.055  0.00  0.00    +0.000 NA
ATOM      9  H   UNL     1      44.572   0.687   8.267  0.00  0.00    +0.000 HD
ATOM     10  H   UNL     1      43.695   1.368   9.463  0.00  0.00    +0.000 HD
ENDBRANCH   7   8
ENDBRANCH   1   7
BRANCH   4  11
ATOM     11  C   UNL     1      45.290   6.590  12.866  0.00  0.00    +0.000 C 
BRANCH  11  12
ATOM     12  N   UNL     1      45.998   7.803  12.470  0.00  0.00    +0.000 N 
ATOM     13  C   UNL     1      45.392   9.025  12.278  0.00  0.00    +0.000 A 
ATOM     14  C   UNL     1      46.374   9.955  12.022  0.00  0.00    +0.000 A 
ATOM     15  C   UNL     1      47.615   9.285  12.067  0.00  0.00    +0.000 A 
ATOM     16  N   UNL     1      48.858   9.797  11.898  0.00  0.00    +0.000 NA
ATOM     17  C   UNL     1      49.860   8.900  12.004  0.00  0.00    +0.000 A 
ATOM     18  C   UNL     1      49.706   7.545  12.258  0.00  0.00    +0.000 A 
ATOM     19  C   UNL     1      48.425   7.026  12.435  0.00  0.00    +0.000 A 
ATOM     20  C   UNL     1      47.368   7.937  12.338  0.00  0.00    +0.000 A 
ENDBRANCH  11  12
ENDBRANCH   4  11
TORSDOF 4
ENDMDL
MODEL 7
REMARK VINA RESULT:    -4.938      3.342      5.537
REMARK INTER + INTRA:          -6.498
REMARK INTER:                  -6.004
REMARK INTRA:                  -0.494
REMARK UNBOUND:                -0.550
REMARK  Name = 
REMARK  4 active torsions:
REMARK  status: ('A' for Active; 'I' for Inactive)
REMARK    1  A    between atoms: N_1  and  C_2
REMARK    2  A    between atoms: C_2  and  C_3
REMARK    3  A    between atoms: C_6  and  C_7
REMARK    4  A    between atoms: C_7  and  N_8
REMARK                            x       y       z     vdW  Elec       q    Type
REMARK                         _______ _______ _______ _____ _____    ______ ____
ROOT
ATOM      1  C   UNL     1      44.650   4.126  11.494  0.00  0.00    +0.000 A 
ATOM      2  C   UNL     1      45.332   4.113  12.719  0.00  0.00    +0.000 A 
ATOM      3  C   UNL     1      45.876   5.287  13.246  0.00  0.00    +0.000 A 
ATOM      4  C   UNL     1      45.751   6.502  12.560  0.00  0.00    +0.000 A 
ATOM      5  C   UNL     1      45.055   6.519  11.344  0.00  0.00    +0.000 A 
ATOM      6  C   UNL     1      44.509   5.344  10.817  0.00  0.00    +0.000 A 
ENDROOT
BRANCH   1   7
ATOM      7  C   UNL     1      44.128   2.846  10.893  0.00  0.00    +0.000 C 
BRANCH   7   8
ATOM      8  N   UNL     1      43.087   2.240  11.714  0.00  0.00    +0.000 NA
ATOM      9  H   UNL     1      43.476   1.437  12.204  0.00  0.00    +0.000 HD
ATOM     10  H   UNL     1      42.359   1.880  11.101  0.00  0.00    +0.000 HD
ENDBRANCH   7   8
ENDBRANCH   1   7
BRANCH   4  11
ATOM     11  C   UNL     1      46.372   7.762  13.106  0.00  0.00    +0.000 C 
BRANCH  11  12
ATOM     12  N   UNL     1      47.822   7.776  12.939  0.00  0.00    +0.000 N 
ATOM     13  C   UNL     1      48.460   8.015  11.741  0.00  0.00    +0.000 A 
ATOM     14  C   UNL     1      49.815   8.062  11.980  0.00  0.00    +0.000 A 
ATOM     15  C   UNL     1      50.010   7.852  13.362  0.00  0.00    +0.000 A 
ATOM     16  N   UNL     1      51.173   7.834  14.058  0.00  0.00    +0.000 NA
ATOM     17  C   UNL     1      51.038   7.613  15.381  0.00  0.00    +0.000 A 
ATOM     18  C   UNL     1      49.838   7.405  16.046  0.00  0.00    +0.000 A 
ATOM     19  C   UNL     1      48.646   7.428  15.325  0.00  0.00    +0.000 A 
ATOM     20  C   UNL     1      48.757   7.665  13.950  0.00  0.00    +0.000 A 
ENDBRANCH  11  12
ENDBRANCH   4  11
TORSDOF 4
ENDMDL
MODEL 8
REMARK VINA RESULT:    -4.926      4.221      7.810
REMARK INTER + INTRA:          -6.484
REMARK INTER:                  -6.518
REMARK INTRA:                   0.034
REMARK UNBOUND:                -0.550
REMARK  Name = 
REMARK  4 active torsions:
REMARK  status: ('A' for Active; 'I' for Inactive)
REMARK    1  A    between atoms: N_1  and  C_2
REMARK    2  A    between atoms: C_2  and  C_3
REMARK    3  A    between atoms: C_6  and  C_7
REMARK    4  A    between atoms: C_7  and  N_8
REMARK                            x       y       z     vdW  Elec       q    Type
REMARK                         _______ _______ _______ _____ _____    ______ ____
ROOT
ATOM      1  C   UNL     1      48.255   4.616  18.316  0.00  0.00    +0.000 A 
ATOM      2  C   UNL     1      48.295   5.610  17.328  0.00  0.00    +0.000 A 
ATOM      3  C   UNL     1      47.936   5.321  16.010  0.00  0.00    +0.000 A 
ATOM      4  C   UNL     1      47.529   4.031  15.646  0.00  0.00    +0.000 A 
ATOM      5  C   UNL     1      47.473   3.041  16.637  0.00  0.00    +0.000 A 
ATOM      6  C   UNL     1      47.831   3.331  17.958  0.00  0.00    +0.000 A 
ENDROOT
BRANCH   1   7
ATOM      7  C   UNL     1      48.712   4.913  19.721  0.00  0.00    +0.000 C 
BRANCH   7   8
ATOM      8  N   UNL     1      48.501   3.781  20.616  0.00  0.00    +0.000 NA
ATOM      9  H   UNL     1      49.190   3.819  21.366  0.00  0.00    +0.000 HD
ATOM     10  H   UNL     1      48.681   2.922  20.101  0.00  0.00    +0.000 HD
ENDBRANCH   7   8
ENDBRANCH   1   7
BRANCH   4  11
ATOM     11  C   UNL     1      47.181   3.706  14.217  0.00  0.00    +0.000 C 
BRANCH  11  12
ATOM     12  N   UNL     1      46.700   4.876  13.490  0.00  0.00    +0.000 N 
ATOM     13  C   UNL     1      47.506   5.914  13.074  0.00  0.00    +0.000 A 
ATOM     14  C   UNL     1      46.738   6.780  12.329  0.00  0.00    +0.000 A 
ATOM     15  C   UNL     1      45.429   6.255  12.283  0.00  0.00    +0.000 A 
ATOM     16  N   UNL     1      44.341   6.754  11.648  0.00  0.00    +0.000 NA
ATOM     17  C   UNL     1      43.219   6.018  11.784  0.00  0.00    +0.000 A 
ATOM     18  C   UNL     1      43.111   4.838  12.505  0.00  0.00    +0.000 A 
ATOM     19  C   UNL     1      44.235   4.329  13.153  0.00  0.00    +0.000 A 
ATOM     20  C   UNL     1      45.415   5.069  13.021  0.00  0.00    +0.000 A 
ENDBRANCH  11  12
ENDBRANCH   4  11
TORSDOF 4
ENDMDL
MODEL 9
REMARK VINA RESULT:    -4.877      3.622      6.171
REMARK INTER + INTRA:          -6.425
REMARK INTER:                  -6.094
REMARK INTRA:                  -0.331
REMARK UNBOUND:                -0.550
REMARK  Name = 
REMARK  4 active torsions:
REMARK  status: ('A' for Active; 'I' for Inactive)
REMARK    1  A    between atoms: N_1  and  C_2
REMARK    2  A    between atoms: C_2  and  C_3
REMARK    3  A    between atoms: C_6  and  C_7
REMARK    4  A    between atoms: C_7  and  N_8
REMARK                            x       y       z     vdW  Elec       q    Type
REMARK                         _______ _______ _______ _____ _____    ______ ____
ROOT
ATOM      1  C   UNL     1      50.675   8.518  12.504  0.00  0.00    +0.000 A 
ATOM      2  C   UNL     1      50.092   7.757  11.481  0.00  0.00    +0.000 A 
ATOM      3  C   UNL     1      48.727   7.460  11.501  0.00  0.00    +0.000 A 
ATOM      4  C   UNL     1      47.912   7.914  12.546  0.00  0.00    +0.000 A 
ATOM      5  C   UNL     1      48.491   8.689  13.561  0.00  0.00    +0.000 A 
ATOM      6  C   UNL     1      49.857   8.989  13.540  0.00  0.00    +0.000 A 
ENDROOT
BRANCH   1   7
ATOM      7  C   UNL     1      52.160   8.775  12.518  0.00  0.00    +0.000 C 
BRANCH   7   8
ATOM      8  N   UNL     1      52.909   7.689  11.898  0.00  0.00    +0.000 NA
ATOM      9  H   UNL     1      52.921   7.829  10.889  0.00  0.00    +0.000 HD
ATOM     10  H   UNL     1      52.414   6.816  12.064  0.00  0.00    +0.000 HD
ENDBRANCH   7   8
ENDBRANCH   1   7
BRANCH   4  11
ATOM     11  C   UNL     1      46.449   7.560  12.592  0.00  0.00    +0.000 C 
BRANCH  11  12
ATOM     12  N   UNL     1      46.236   6.128  12.778  0.00  0.00    +0.000 N 
ATOM     13  C   UNL     1      46.978   5.341  13.632  0.00  0.00    +0.000 A 
ATOM     14  C   UNL     1      46.431   4.078  13.633  0.00  0.00    +0.000 A 
ATOM     15  C   UNL     1      45.320   4.095  12.762  0.00  0.00    +0.000 A 
ATOM     16  N   UNL     1      44.464   3.088  12.464  0.00  0.00    +0.000 NA
ATOM     17  C   UNL     1      43.488   3.413  11.593  0.00  0.00    +0.000 A 
ATOM     18  C   UNL     1      43.314   4.657  11.003  0.00  0.00    +0.000 A 
ATOM     19  C   UNL     1      44.196   5.689  11.317  0.00  0.00    +0.000 A 
ATOM     20  C   UNL     1      45.214   5.381  12.225  0.00  0.00    +0.000 A 
ENDBRANCH  11  12
ENDBRANCH   4  11
TORSDOF 4
ENDMDL
