MODEL 1
REMARK VINA RESULT:    -6.748      0.000      0.000
REMARK INTER + INTRA:          -9.822
REMARK INTER:                  -8.721
REMARK INTRA:                  -1.101
REMARK UNBOUND:                -1.101
REMARK  Name = 
REMARK  7 active torsions:
REMARK  status: ('A' for Active; 'I' for Inactive)
REMARK    1  A    between atoms: C_1  and  C_2
REMARK    2  A    between atoms: C_2  and  C_3
REMARK    3  A    between atoms: C_2  and  C_4
REMARK    4  A    between atoms: C_2  and  C_22
REMARK    5  A    between atoms: C_4  and  N_5
REMARK    6  A    between atoms: C_10  and  C_11
REMARK    7  A    between atoms: C_14  and  C_15
REMARK                            x       y       z     vdW  Elec       q    Type
REMARK                         _______ _______ _______ _____ _____    ______ ____
ROOT
ATOM      1  N   UNL     1      49.595   5.938  16.779  0.00  0.00    +0.000 N 
ATOM      2  C   UNL     1      49.415   6.532  15.546  0.00  0.00    +0.000 A 
ATOM      3  C   UNL     1      50.343   7.396  14.980  0.00  0.00    +0.000 A 
ATOM      4  C   UNL     1      50.121   7.919  13.714  0.00  0.00    +0.000 A 
ATOM      5  C   UNL     1      48.997   7.516  13.012  0.00  0.00    +0.000 A 
ATOM      6  C   UNL     1      48.112   6.615  13.603  0.00  0.00    +0.000 A 
ATOM      7  N   UNL     1      48.303   6.159  14.876  0.00  0.00    +0.000 NA
ATOM      8  H   UNL     1      48.697   5.700  17.195  0.00  0.00    +0.000 HD
ENDROOT
BRANCH   6   9
ATOM      9  C   UNL     1      46.963   6.058  12.845  0.00  0.00    +0.000 A 
ATOM     10  C   UNL     1      46.649   6.460  11.548  0.00  0.00    +0.000 A 
ATOM     11  C   UNL     1      45.511   5.945  10.921  0.00  0.00    +0.000 A 
ATOM     12  C   UNL     1      44.698   5.035  11.599  0.00  0.00    +0.000 A 
ATOM     13  C   UNL     1      45.079   4.677  12.880  0.00  0.00    +0.000 A 
ATOM     14  N   UNL     1      46.177   5.159  13.506  0.00  0.00    +0.000 NA
BRANCH  12  15
ATOM     15  C   UNL     1      43.452   4.452  11.010  0.00  0.00    +0.000 C 
ATOM     16  F   UNL     1      43.217   3.166  11.392  0.00  0.00    +0.000 F 
ATOM     17  F   UNL     1      42.337   5.153  11.353  0.00  0.00    +0.000 F 
ATOM     18  F   UNL     1      43.476   4.436   9.648  0.00  0.00    +0.000 F 
ENDBRANCH  12  15
ENDBRANCH   6   9
BRANCH   1  19
ATOM     19  C   UNL     1      50.699   6.299  17.659  0.00  0.00    +0.000 C 
BRANCH  19  21
ATOM     20  C   UNL     1      51.913   5.916  19.856  0.00  0.00    +0.000 C 
ATOM     21  C   UNL     1      50.879   5.334  18.865  0.00  0.00    +0.000 C 
ATOM     22  C   UNL     1      49.525   5.263  19.612  0.00  0.00    +0.000 C 
BRANCH  21  23
ATOM     23  C   UNL     1      51.217   3.931  18.355  0.00  0.00    +0.000 A 
ATOM     24  C   UNL     1      52.478   3.354  18.497  0.00  0.00    +0.000 A 
ATOM     25  C   UNL     1      52.707   2.074  17.992  0.00  0.00    +0.000 A 
ATOM     26  C   UNL     1      51.680   1.395  17.355  0.00  0.00    +0.000 A 
ATOM     27  C   UNL     1      50.455   2.025  17.258  0.00  0.00    +0.000 A 
ATOM     28  N   UNL     1      50.205   3.259  17.745  0.00  0.00    +0.000 NA
ENDBRANCH  21  23
ENDBRANCH  19  21
ENDBRANCH   1  19
TORSDOF 5
ENDMDL
MODEL 2
REMARK VINA RESULT:    -6.468      2.129      3.122
REMARK INTER + INTRA:          -9.460
REMARK INTER:                  -8.324
REMARK INTRA:                  -1.135
REMARK UNBOUND:                -1.101
REMARK  Name = 
REMARK  7 active torsions:
REMARK  status: ('A' for Active; 'I' for Inactive)
REMARK    1  A    between atoms: C_1  and  C_2
REMARK    2  A    between atoms: C_2  and  C_3
REMARK    3  A    between atoms: C_2  and  C_4
REMARK    4  A    between atoms: C_2  and  C_22
REMARK    5  A    between atoms: C_4  and  N_5
REMARK    6  A    between atoms: C_10  and  C_11
REMARK    7  A    between atoms: C_14  and  C_15
REMARK                            x       y       z     vdW  Elec       q    Type
REMARK                         _______ _______ _______ _____ _____    ______ ____
ROOT
ATOM      1  N   UNL     1      49.004   6.864  14.809  0.00  0.00    +0.000 N 
ATOM      2  C   UNL     1      47.882   7.235  14.094  0.00  0.00    +0.000 A 
ATOM      3  C   UNL     1      47.386   8.532  14.087  0.00  0.00    +0.000 A 
ATOM      4  C   UNL     1      46.282   8.847  13.307  0.00  0.00    +0.000 A 
ATOM      5  C   UNL     1      45.732   7.865  12.500  0.00  0.00    +0.000 A 
ATOM      6  C   UNL     1      46.288   6.586  12.508  0.00  0.00    +0.000 A 
ATOM      7  N   UNL     1      47.331   6.267  13.330  0.00  0.00    +0.000 NA
ATOM      8  H   UNL     1      48.974   5.871  15.029  0.00  0.00    +0.000 HD
ENDROOT
BRANCH   6   9
ATOM      9  C   UNL     1      45.814   5.537  11.570  0.00  0.00    +0.000 A 
ATOM     10  C   UNL     1      45.303   4.314  12.003  0.00  0.00    +0.000 A 
ATOM     11  C   UNL     1      44.941   3.346  11.063  0.00  0.00    +0.000 A 
ATOM     12  C   UNL     1      45.097   3.608   9.701  0.00  0.00    +0.000 A 
ATOM     13  C   UNL     1      45.602   4.848   9.348  0.00  0.00    +0.000 A 
ATOM     14  N   UNL     1      45.955   5.803  10.239  0.00  0.00    +0.000 NA
BRANCH  12  15
ATOM     15  C   UNL     1      44.755   2.620   8.631  0.00  0.00    +0.000 C 
ATOM     16  F   UNL     1      43.821   1.704   9.012  0.00  0.00    +0.000 F 
ATOM     17  F   UNL     1      44.257   3.215   7.512  0.00  0.00    +0.000 F 
ATOM     18  F   UNL     1      45.835   1.900   8.220  0.00  0.00    +0.000 F 
ENDBRANCH  12  15
ENDBRANCH   6   9
BRANCH   1  19
ATOM     19  C   UNL     1      49.662   7.768  15.743  0.00  0.00    +0.000 C 
BRANCH  19  21
ATOM     20  C   UNL     1      51.875   6.843  16.576  0.00  0.00    +0.000 C 
ATOM     21  C   UNL     1      50.380   7.042  16.916  0.00  0.00    +0.000 C 
ATOM     22  C   UNL     1      50.315   7.974  18.151  0.00  0.00    +0.000 C 
BRANCH  21  23
ATOM     23  C   UNL     1      49.634   5.749  17.253  0.00  0.00    +0.000 A 
ATOM     24  C   UNL     1      50.268   4.513  17.368  0.00  0.00    +0.000 A 
ATOM     25  C   UNL     1      49.513   3.380  17.667  0.00  0.00    +0.000 A 
ATOM     26  C   UNL     1      48.143   3.497  17.844  0.00  0.00    +0.000 A 
ATOM     27  C   UNL     1      47.583   4.753  17.723  0.00  0.00    +0.000 A 
ATOM     28  N   UNL     1      48.293   5.867  17.442  0.00  0.00    +0.000 NA
ENDBRANCH  21  23
ENDBRANCH  19  21
ENDBRANCH   1  19
TORSDOF 5
ENDMDL
MODEL 3
REMARK VINA RESULT:    -6.451      3.350      5.449
REMARK INTER + INTRA:          -9.438
REMARK INTER:                  -8.436
REMARK INTRA:                  -1.002
REMARK UNBOUND:                -1.101
REMARK  Name = 
REMARK  7 active torsions:
REMARK  status: ('A' for Active; 'I' for Inactive)
REMARK    1  A    between atoms: C_1  and  C_2
REMARK    2  A    between atoms: C_2  and  C_3
REMARK    3  A    between atoms: C_2  and  C_4
REMARK    4  A    between atoms: C_2  and  C_22
REMARK    5  A    between atoms: C_4  and  N_5
REMARK    6  A    between atoms: C_10  and  C_11
REMARK    7  A    between atoms: C_14  and  C_15
REMARK                            x       y       z     vdW  Elec       q    Type
REMARK                         _______ _______ _______ _____ _____    ______ ____
ROOT
ATOM      1  N   UNL     1      46.536   4.030  14.211  0.00  0.00    +0.000 N 
ATOM      2  C   UNL     1      45.588   4.308  13.247  0.00  0.00    +0.000 A 
ATOM      3  C   UNL     1      44.480   5.110  13.485  0.00  0.00    +0.000 A 
ATOM      4  C   UNL     1      43.592   5.388  12.455  0.00  0.00    +0.000 A 
ATOM      5  C   UNL     1      43.866   4.902  11.187  0.00  0.00    +0.000 A 
ATOM      6  C   UNL     1      45.012   4.134  10.985  0.00  0.00    +0.000 A 
ATOM      7  N   UNL     1      45.844   3.809  12.018  0.00  0.00    +0.000 NA
ATOM      8  H   UNL     1      47.006   3.151  14.008  0.00  0.00    +0.000 HD
ENDROOT
BRANCH   6   9
ATOM      9  C   UNL     1      45.414   3.698   9.624  0.00  0.00    +0.000 A 
ATOM     10  C   UNL     1      45.424   2.360   9.233  0.00  0.00    +0.000 A 
ATOM     11  C   UNL     1      45.881   2.017   7.958  0.00  0.00    +0.000 A 
ATOM     12  C   UNL     1      46.325   3.013   7.087  0.00  0.00    +0.000 A 
ATOM     13  C   UNL     1      46.277   4.319   7.543  0.00  0.00    +0.000 A 
ATOM     14  N   UNL     1      45.835   4.677   8.771  0.00  0.00    +0.000 NA
BRANCH  12  15
ATOM     15  C   UNL     1      46.849   2.730   5.715  0.00  0.00    +0.000 C 
ATOM     16  F   UNL     1      46.039   1.920   4.978  0.00  0.00    +0.000 F 
ATOM     17  F   UNL     1      47.016   3.862   4.977  0.00  0.00    +0.000 F 
ATOM     18  F   UNL     1      48.066   2.118   5.737  0.00  0.00    +0.000 F 
ENDBRANCH  12  15
ENDBRANCH   6   9
BRANCH   1  19
ATOM     19  C   UNL     1      46.364   4.425  15.604  0.00  0.00    +0.000 C 
BRANCH  19  21
ATOM     20  C   UNL     1      47.247   4.119  17.964  0.00  0.00    +0.000 C 
ATOM     21  C   UNL     1      47.638   4.228  16.473  0.00  0.00    +0.000 C 
ATOM     22  C   UNL     1      48.273   2.874  16.069  0.00  0.00    +0.000 C 
BRANCH  21  23
ATOM     23  C   UNL     1      48.646   5.338  16.166  0.00  0.00    +0.000 A 
ATOM     24  C   UNL     1      49.752   5.605  16.972  0.00  0.00    +0.000 A 
ATOM     25  C   UNL     1      50.616   6.644  16.628  0.00  0.00    +0.000 A 
ATOM     26  C   UNL     1      50.364   7.397  15.491  0.00  0.00    +0.000 A 
ATOM     27  C   UNL     1      49.255   7.071  14.736  0.00  0.00    +0.000 A 
ATOM     28  N   UNL     1      48.407   6.065  15.043  0.00  0.00    +0.000 NA
ENDBRANCH  21  23
ENDBRANCH  19  21
ENDBRANCH   1  19
TORSDOF 5
ENDMDL
MODEL 4
REMARK VINA RESULT:    -6.423      6.647      8.770
REMARK INTER + INTRA:          -9.401
REMARK INTER:                  -8.188
REMARK INTRA:                  -1.213
REMARK UNBOUND:                -1.101
REMARK  Name = 
REMARK  7 active torsions:
REMARK  status: ('A' for Active; 'I' for Inactive)
REMARK    1  A    between atoms: C_1  and  C_2
REMARK    2  A    between atoms: C_2  and  C_3
REMARK    3  A    between atoms: C_2  and  C_4
REMARK    4  A    between atoms: C_2  and  C_22
REMARK    5  A    between atoms: C_4  and  N_5
REMARK    6  A    between atoms: C_10  and  C_11
REMARK    7  A    between atoms: C_14  and  C_15
REMARK                            x       y       z     vdW  Elec       q    Type
REMARK                         _______ _______ _______ _____ _____    ______ ____
ROOT
ATOM      1  N   UNL     1      46.203   4.926  12.012  0.00  0.00    +0.000 N 
ATOM      2  C   UNL     1      46.352   6.285  12.200  0.00  0.00    +0.000 A 
ATOM      3  C   UNL     1      45.432   7.058  12.896  0.00  0.00    +0.000 A 
ATOM      4  C   UNL     1      45.669   8.411  13.090  0.00  0.00    +0.000 A 
ATOM      5  C   UNL     1      46.858   8.954  12.631  0.00  0.00    +0.000 A 
ATOM      6  C   UNL     1      47.772   8.133  11.972  0.00  0.00    +0.000 A 
ATOM      7  N   UNL     1      47.500   6.817  11.726  0.00  0.00    +0.000 NA
ATOM      8  H   UNL     1      46.704   4.623  11.180  0.00  0.00    +0.000 HD
ENDROOT
BRANCH   6   9
ATOM      9  C   UNL     1      49.110   8.637  11.574  0.00  0.00    +0.000 A 
ATOM     10  C   UNL     1      49.369   9.988  11.344  0.00  0.00    +0.000 A 
ATOM     11  C   UNL     1      50.635  10.382  10.904  0.00  0.00    +0.000 A 
ATOM     12  C   UNL     1      51.629   9.424  10.697  0.00  0.00    +0.000 A 
ATOM     13  C   UNL     1      51.300   8.105  10.956  0.00  0.00    +0.000 A 
ATOM     14  N   UNL     1      50.083   7.698  11.386  0.00  0.00    +0.000 NA
BRANCH  12  15
ATOM     15  C   UNL     1      53.002   9.759  10.207  0.00  0.00    +0.000 C 
ATOM     16  F   UNL     1      53.659  10.655  10.995  0.00  0.00    +0.000 F 
ATOM     17  F   UNL     1      53.810   8.665  10.133  0.00  0.00    +0.000 F 
ATOM     18  F   UNL     1      52.994  10.300   8.957  0.00  0.00    +0.000 F 
ENDBRANCH  12  15
ENDBRANCH   6   9
BRANCH   1  19
ATOM     19  C   UNL     1      44.985   4.220  12.390  0.00  0.00    +0.000 C 
BRANCH  19  21
ATOM     20  C   UNL     1      43.096   2.747  11.549  0.00  0.00    +0.000 C 
ATOM     21  C   UNL     1      44.040   3.919  11.193  0.00  0.00    +0.000 C 
ATOM     22  C   UNL     1      43.151   5.168  10.975  0.00  0.00    +0.000 C 
BRANCH  21  23
ATOM     23  C   UNL     1      44.869   3.696   9.926  0.00  0.00    +0.000 A 
ATOM     24  C   UNL     1      45.201   2.429   9.448  0.00  0.00    +0.000 A 
ATOM     25  C   UNL     1      45.972   2.313   8.292  0.00  0.00    +0.000 A 
ATOM     26  C   UNL     1      46.399   3.457   7.635  0.00  0.00    +0.000 A 
ATOM     27  C   UNL     1      46.027   4.678   8.161  0.00  0.00    +0.000 A 
ATOM     28  N   UNL     1      45.274   4.818   9.274  0.00  0.00    +0.000 NA
ENDBRANCH  21  23
ENDBRANCH  19  21
ENDBRANCH   1  19
TORSDOF 5
ENDMDL
MODEL 5
REMARK VINA RESULT:    -6.223      1.844      3.590
REMARK INTER + INTRA:          -9.143
REMARK INTER:                  -7.974
REMARK INTRA:                  -1.169
REMARK UNBOUND:                -1.101
REMARK  Name = 
REMARK  7 active torsions:
REMARK  status: ('A' for Active; 'I' for Inactive)
REMARK    1  A    between atoms: C_1  and  C_2
REMARK    2  A    between atoms: C_2  and  C_3
REMARK    3  A    between atoms: C_2  and  C_4
REMARK    4  A    between atoms: C_2  and  C_22
REMARK    5  A    between atoms: C_4  and  N_5
REMARK    6  A    between atoms: C_10  and  C_11
REMARK    7  A    between atoms: C_14  and  C_15
REMARK                            x       y       z     vdW  Elec       q    Type
REMARK                         _______ _______ _______ _____ _____    ______ ____
ROOT
ATOM      1  N   UNL     1      49.285   5.067  17.180  0.00  0.00    +0.000 N 
ATOM      2  C   UNL     1      49.085   5.873  16.077  0.00  0.00    +0.000 A 
ATOM      3  C   UNL     1      49.895   6.960  15.778  0.00  0.00    +0.000 A 
ATOM      4  C   UNL     1      49.665   7.699  14.625  0.00  0.00    +0.000 A 
ATOM      5  C   UNL     1      48.661   7.294  13.761  0.00  0.00    +0.000 A 
ATOM      6  C   UNL     1      47.898   6.172  14.081  0.00  0.00    +0.000 A 
ATOM      7  N   UNL     1      48.086   5.492  15.251  0.00  0.00    +0.000 NA
ATOM      8  H   UNL     1      48.415   4.620  17.459  0.00  0.00    +0.000 HD
ENDROOT
BRANCH   6   9
ATOM      9  C   UNL     1      46.897   5.626  13.129  0.00  0.00    +0.000 A 
ATOM     10  C   UNL     1      46.605   6.237  11.911  0.00  0.00    +0.000 A 
ATOM     11  C   UNL     1      45.601   5.706  11.097  0.00  0.00    +0.000 A 
ATOM     12  C   UNL     1      44.899   4.572  11.509  0.00  0.00    +0.000 A 
ATOM     13  C   UNL     1      45.252   4.017  12.727  0.00  0.00    +0.000 A 
ATOM     14  N   UNL     1      46.223   4.510  13.531  0.00  0.00    +0.000 NA
BRANCH  12  15
ATOM     15  C   UNL     1      43.797   3.954  10.709  0.00  0.00    +0.000 C 
ATOM     16  F   UNL     1      42.568   4.081  11.283  0.00  0.00    +0.000 F 
ATOM     17  F   UNL     1      43.686   4.501   9.467  0.00  0.00    +0.000 F 
ATOM     18  F   UNL     1      43.979   2.618  10.512  0.00  0.00    +0.000 F 
ENDBRANCH  12  15
ENDBRANCH   6   9
BRANCH   1  19
ATOM     19  C   UNL     1      50.266   5.391  18.208  0.00  0.00    +0.000 C 
BRANCH  19  21
ATOM     20  C   UNL     1      48.626   4.811  20.058  0.00  0.00    +0.000 C 
ATOM     21  C   UNL     1      49.634   5.866  19.547  0.00  0.00    +0.000 C 
ATOM     22  C   UNL     1      50.771   5.952  20.594  0.00  0.00    +0.000 C 
BRANCH  21  23
ATOM     23  C   UNL     1      49.043   7.266  19.368  0.00  0.00    +0.000 A 
ATOM     24  C   UNL     1      47.671   7.515  19.349  0.00  0.00    +0.000 A 
ATOM     25  C   UNL     1      47.214   8.820  19.169  0.00  0.00    +0.000 A 
ATOM     26  C   UNL     1      48.127   9.850  19.009  0.00  0.00    +0.000 A 
ATOM     27  C   UNL     1      49.470   9.531  19.045  0.00  0.00    +0.000 A 
ATOM     28  N   UNL     1      49.939   8.278  19.227  0.00  0.00    +0.000 NA
ENDBRANCH  21  23
ENDBRANCH  19  21
ENDBRANCH   1  19
TORSDOF 5
ENDMDL
MODEL 6
REMARK VINA RESULT:    -6.170      2.707      4.696
REMARK INTER + INTRA:          -9.074
REMARK INTER:                  -7.840
REMARK INTRA:                  -1.234
REMARK UNBOUND:                -1.101
REMARK  Name = 
REMARK  7 active torsions:
REMARK  status: ('A' for Active; 'I' for Inactive)
REMARK    1  A    between atoms: C_1  and  C_2
REMARK    2  A    between atoms: C_2  and  C_3
REMARK    3  A    between atoms: C_2  and  C_4
REMARK    4  A    between atoms: C_2  and  C_22
REMARK    5  A    between atoms: C_4  and  N_5
REMARK    6  A    between atoms: C_10  and  C_11
REMARK    7  A    between atoms: C_14  and  C_15
REMARK                            x       y       z     vdW  Elec       q    Type
REMARK                         _______ _______ _______ _____ _____    ______ ____
ROOT
ATOM      1  N   UNL     1      49.445   6.720  17.263  0.00  0.00    +0.000 N 
ATOM      2  C   UNL     1      48.830   5.536  16.908  0.00  0.00    +0.000 A 
ATOM      3  C   UNL     1      48.746   4.442  17.760  0.00  0.00    +0.000 A 
ATOM      4  C   UNL     1      48.070   3.300  17.356  0.00  0.00    +0.000 A 
ATOM      5  C   UNL     1      47.436   3.299  16.125  0.00  0.00    +0.000 A 
ATOM      6  C   UNL     1      47.511   4.434  15.319  0.00  0.00    +0.000 A 
ATOM      7  N   UNL     1      48.237   5.528  15.694  0.00  0.00    +0.000 NA
ATOM      8  H   UNL     1      49.768   7.216  16.435  0.00  0.00    +0.000 HD
ENDROOT
BRANCH   6   9
ATOM      9  C   UNL     1      46.746   4.527  14.050  0.00  0.00    +0.000 A 
ATOM     10  C   UNL     1      46.441   5.743  13.440  0.00  0.00    +0.000 A 
ATOM     11  C   UNL     1      45.657   5.758  12.284  0.00  0.00    +0.000 A 
ATOM     12  C   UNL     1      45.185   4.558  11.749  0.00  0.00    +0.000 A 
ATOM     13  C   UNL     1      45.536   3.391  12.404  0.00  0.00    +0.000 A 
ATOM     14  N   UNL     1      46.297   3.350  13.523  0.00  0.00    +0.000 NA
BRANCH  12  15
ATOM     15  C   UNL     1      44.323   4.488  10.528  0.00  0.00    +0.000 C 
ATOM     16  F   UNL     1      43.246   5.320  10.572  0.00  0.00    +0.000 F 
ATOM     17  F   UNL     1      45.001   4.814   9.393  0.00  0.00    +0.000 F 
ATOM     18  F   UNL     1      43.820   3.240  10.315  0.00  0.00    +0.000 F 
ENDBRANCH  12  15
ENDBRANCH   6   9
BRANCH   1  19
ATOM     19  C   UNL     1      50.201   6.860  18.501  0.00  0.00    +0.000 C 
BRANCH  19  21
ATOM     20  C   UNL     1      48.425   7.064  20.304  0.00  0.00    +0.000 C 
ATOM     21  C   UNL     1      49.537   7.813  19.534  0.00  0.00    +0.000 C 
ATOM     22  C   UNL     1      50.620   8.207  20.569  0.00  0.00    +0.000 C 
BRANCH  21  23
ATOM     23  C   UNL     1      49.065   9.087  18.829  0.00  0.00    +0.000 A 
ATOM     24  C   UNL     1      47.860   9.720  19.127  0.00  0.00    +0.000 A 
ATOM     25  C   UNL     1      47.497  10.871  18.429  0.00  0.00    +0.000 A 
ATOM     26  C   UNL     1      48.340  11.370  17.448  0.00  0.00    +0.000 A 
ATOM     27  C   UNL     1      49.521  10.697  17.210  0.00  0.00    +0.000 A 
ATOM     28  N   UNL     1      49.899   9.585  17.878  0.00  0.00    +0.000 NA
ENDBRANCH  21  23
ENDBRANCH  19  21
ENDBRANCH   1  19
TORSDOF 5
ENDMDL
MODEL 7
REMARK VINA RESULT:    -6.129      1.915      2.901
REMARK INTER + INTRA:          -9.022
REMARK INTER:                  -7.934
REMARK INTRA:                  -1.088
REMARK UNBOUND:                -1.101
REMARK  Name = 
REMARK  7 active torsions:
REMARK  status: ('A' for Active; 'I' for Inactive)
REMARK    1  A    between atoms: C_1  and  C_2
REMARK    2  A    between atoms: C_2  and  C_3
REMARK    3  A    between atoms: C_2  and  C_4
REMARK    4  A    between atoms: C_2  and  C_22
REMARK    5  A    between atoms: C_4  and  N_5
REMARK    6  A    between atoms: C_10  and  C_11
REMARK    7  A    between atoms: C_14  and  C_15
REMARK                            x       y       z     vdW  Elec       q    Type
REMARK                         _______ _______ _______ _____ _____    ______ ____
ROOT
ATOM      1  N   UNL     1      49.628   7.053  16.518  0.00  0.00    +0.000 N 
ATOM      2  C   UNL     1      48.855   5.917  16.376  0.00  0.00    +0.000 A 
ATOM      3  C   UNL     1      48.618   5.030  17.418  0.00  0.00    +0.000 A 
ATOM      4  C   UNL     1      47.791   3.933  17.219  0.00  0.00    +0.000 A 
ATOM      5  C   UNL     1      47.168   3.780  15.991  0.00  0.00    +0.000 A 
ATOM      6  C   UNL     1      47.404   4.717  14.986  0.00  0.00    +0.000 A 
ATOM      7  N   UNL     1      48.272   5.755  15.169  0.00  0.00    +0.000 NA
ATOM      8  H   UNL     1      50.019   7.332  15.621  0.00  0.00    +0.000 HD
ENDROOT
BRANCH   6   9
ATOM      9  C   UNL     1      46.664   4.666  13.700  0.00  0.00    +0.000 A 
ATOM     10  C   UNL     1      46.527   5.774  12.864  0.00  0.00    +0.000 A 
ATOM     11  C   UNL     1      45.758   5.670  11.702  0.00  0.00    +0.000 A 
ATOM     12  C   UNL     1      45.133   4.463  11.388  0.00  0.00    +0.000 A 
ATOM     13  C   UNL     1      45.323   3.405  12.261  0.00  0.00    +0.000 A 
ATOM     14  N   UNL     1      46.066   3.479  13.389  0.00  0.00    +0.000 NA
BRANCH  12  15
ATOM     15  C   UNL     1      44.276   4.274  10.177  0.00  0.00    +0.000 C 
ATOM     16  F   UNL     1      44.890   4.629   9.014  0.00  0.00    +0.000 F 
ATOM     17  F   UNL     1      43.885   2.980  10.012  0.00  0.00    +0.000 F 
ATOM     18  F   UNL     1      43.128   5.005  10.229  0.00  0.00    +0.000 F 
ENDBRANCH  12  15
ENDBRANCH   6   9
BRANCH   1  19
ATOM     19  C   UNL     1      50.390   7.326  17.730  0.00  0.00    +0.000 C 
BRANCH  19  21
ATOM     20  C   UNL     1      52.296   7.169  16.060  0.00  0.00    +0.000 C 
ATOM     21  C   UNL     1      51.924   7.134  17.560  0.00  0.00    +0.000 C 
ATOM     22  C   UNL     1      52.622   8.343  18.230  0.00  0.00    +0.000 C 
BRANCH  21  23
ATOM     23  C   UNL     1      52.366   5.863  18.289  0.00  0.00    +0.000 A 
ATOM     24  C   UNL     1      52.160   4.582  17.778  0.00  0.00    +0.000 A 
ATOM     25  C   UNL     1      52.583   3.474  18.511  0.00  0.00    +0.000 A 
ATOM     26  C   UNL     1      53.201   3.661  19.738  0.00  0.00    +0.000 A 
ATOM     27  C   UNL     1      53.378   4.957  20.179  0.00  0.00    +0.000 A 
ATOM     28  N   UNL     1      52.985   6.047  19.485  0.00  0.00    +0.000 NA
ENDBRANCH  21  23
ENDBRANCH  19  21
ENDBRANCH   1  19
TORSDOF 5
ENDMDL
MODEL 8
REMARK VINA RESULT:    -5.948      5.063      8.976
REMARK INTER + INTRA:          -8.787
REMARK INTER:                  -7.989
REMARK INTRA:                  -0.798
REMARK UNBOUND:                -1.101
REMARK  Name = 
REMARK  7 active torsions:
REMARK  status: ('A' for Active; 'I' for Inactive)
REMARK    1  A    between atoms: C_1  and  C_2
REMARK    2  A    between atoms: C_2  and  C_3
REMARK    3  A    between atoms: C_2  and  C_4
REMARK    4  A    between atoms: C_2  and  C_22
REMARK    5  A    between atoms: C_4  and  N_5
REMARK    6  A    between atoms: C_10  and  C_11
REMARK    7  A    between atoms: C_14  and  C_15
REMARK                            x       y       z     vdW  Elec       q    Type
REMARK                         _______ _______ _______ _____ _____    ______ ____
ROOT
ATOM      1  N   UNL     1      46.443   5.291  12.970  0.00  0.00    +0.000 N 
ATOM      2  C   UNL     1      47.081   5.282  14.194  0.00  0.00    +0.000 A 
ATOM      3  C   UNL     1      46.829   4.327  15.171  0.00  0.00    +0.000 A 
ATOM      4  C   UNL     1      47.543   4.348  16.360  0.00  0.00    +0.000 A 
ATOM      5  C   UNL     1      48.542   5.294  16.524  0.00  0.00    +0.000 A 
ATOM      6  C   UNL     1      48.789   6.208  15.501  0.00  0.00    +0.000 A 
ATOM      7  N   UNL     1      48.035   6.223  14.361  0.00  0.00    +0.000 NA
ATOM      8  H   UNL     1      46.432   6.231  12.581  0.00  0.00    +0.000 HD
ENDROOT
BRANCH   6   9
ATOM      9  C   UNL     1      49.928   7.157  15.576  0.00  0.00    +0.000 A 
ATOM     10  C   UNL     1      49.798   8.515  15.292  0.00  0.00    +0.000 A 
ATOM     11  C   UNL     1      50.929   9.336  15.316  0.00  0.00    +0.000 A 
ATOM     12  C   UNL     1      52.177   8.791  15.621  0.00  0.00    +0.000 A 
ATOM     13  C   UNL     1      52.225   7.437  15.901  0.00  0.00    +0.000 A 
ATOM     14  N   UNL     1      51.145   6.622  15.889  0.00  0.00    +0.000 NA
BRANCH  12  15
ATOM     15  C   UNL     1      53.438   9.595  15.647  0.00  0.00    +0.000 C 
ATOM     16  F   UNL     1      54.044   9.700  14.431  0.00  0.00    +0.000 F 
ATOM     17  F   UNL     1      53.233  10.872  16.072  0.00  0.00    +0.000 F 
ATOM     18  F   UNL     1      54.375   9.070  16.485  0.00  0.00    +0.000 F 
ENDBRANCH  12  15
ENDBRANCH   6   9
BRANCH   1  19
ATOM     19  C   UNL     1      45.334   4.395  12.667  0.00  0.00    +0.000 C 
BRANCH  19  21
ATOM     20  C   UNL     1      42.961   4.679  11.809  0.00  0.00    +0.000 C 
ATOM     21  C   UNL     1      44.458   4.866  11.471  0.00  0.00    +0.000 C 
ATOM     22  C   UNL     1      44.697   6.385  11.288  0.00  0.00    +0.000 C 
BRANCH  21  23
ATOM     23  C   UNL     1      44.908   4.154  10.193  0.00  0.00    +0.000 A 
ATOM     24  C   UNL     1      45.542   4.810   9.140  0.00  0.00    +0.000 A 
ATOM     25  C   UNL     1      45.909   4.090   8.004  0.00  0.00    +0.000 A 
ATOM     26  C   UNL     1      45.637   2.732   7.937  0.00  0.00    +0.000 A 
ATOM     27  C   UNL     1      45.014   2.146   9.021  0.00  0.00    +0.000 A 
ATOM     28  N   UNL     1      44.656   2.819  10.136  0.00  0.00    +0.000 NA
ENDBRANCH  21  23
ENDBRANCH  19  21
ENDBRANCH   1  19
TORSDOF 5
ENDMDL
MODEL 9
REMARK VINA RESULT:    -5.715      5.090      9.200
REMARK INTER + INTRA:          -8.487
REMARK INTER:                  -7.690
REMARK INTRA:                  -0.797
REMARK UNBOUND:                -1.101
REMARK  Name = 
REMARK  7 active torsions:
REMARK  status: ('A' for Active; 'I' for Inactive)
REMARK    1  A    between atoms: C_1  and  C_2
REMARK    2  A    between atoms: C_2  and  C_3
REMARK    3  A    between atoms: C_2  and  C_4
REMARK    4  A    between atoms: C_2  and  C_22
REMARK    5  A    between atoms: C_4  and  N_5
REMARK    6  A    between atoms: C_10  and  C_11
REMARK    7  A    between atoms: C_14  and  C_15
REMARK                            x       y       z     vdW  Elec       q    Type
REMARK                         _______ _______ _______ _____ _____    ______ ____
ROOT
ATOM      1  N   UNL     1      46.784   5.198  14.154  0.00  0.00    +0.000 N 
ATOM      2  C   UNL     1      47.461   4.682  15.241  0.00  0.00    +0.000 A 
ATOM      3  C   UNL     1      47.506   3.324  15.528  0.00  0.00    +0.000 A 
ATOM      4  C   UNL     1      48.247   2.869  16.610  0.00  0.00    +0.000 A 
ATOM      5  C   UNL     1      48.980   3.782  17.349  0.00  0.00    +0.000 A 
ATOM      6  C   UNL     1      48.938   5.131  17.000  0.00  0.00    +0.000 A 
ATOM      7  N   UNL     1      48.152   5.579  15.977  0.00  0.00    +0.000 NA
ATOM      8  H   UNL     1      46.516   6.164  14.326  0.00  0.00    +0.000 HD
ENDROOT
BRANCH   6   9
ATOM      9  C   UNL     1      49.802   6.128  17.682  0.00  0.00    +0.000 A 
ATOM     10  C   UNL     1      50.063   6.089  19.051  0.00  0.00    +0.000 A 
ATOM     11  C   UNL     1      50.829   7.101  19.636  0.00  0.00    +0.000 A 
ATOM     12  C   UNL     1      51.323   8.142  18.849  0.00  0.00    +0.000 A 
ATOM     13  C   UNL     1      51.030   8.108  17.497  0.00  0.00    +0.000 A 
ATOM     14  N   UNL     1      50.294   7.137  16.906  0.00  0.00    +0.000 NA
BRANCH  12  15
ATOM     15  C   UNL     1      52.131   9.274  19.399  0.00  0.00    +0.000 C 
ATOM     16  F   UNL     1      52.810   9.973  18.447  0.00  0.00    +0.000 F 
ATOM     17  F   UNL     1      51.367  10.188  20.058  0.00  0.00    +0.000 F 
ATOM     18  F   UNL     1      53.070   8.859  20.296  0.00  0.00    +0.000 F 
ENDBRANCH  12  15
ENDBRANCH   6   9
BRANCH   1  19
ATOM     19  C   UNL     1      45.926   4.374  13.313  0.00  0.00    +0.000 C 
BRANCH  19  21
ATOM     20  C   UNL     1      43.647   5.424  12.928  0.00  0.00    +0.000 C 
ATOM     21  C   UNL     1      45.050   5.191  12.322  0.00  0.00    +0.000 C 
ATOM     22  C   UNL     1      45.709   6.582  12.154  0.00  0.00    +0.000 C 
BRANCH  21  23
ATOM     23  C   UNL     1      45.038   4.500  10.956  0.00  0.00    +0.000 A 
ATOM     24  C   UNL     1      45.523   5.101   9.796  0.00  0.00    +0.000 A 
ATOM     25  C   UNL     1      45.464   4.407   8.587  0.00  0.00    +0.000 A 
ATOM     26  C   UNL     1      44.923   3.131   8.557  0.00  0.00    +0.000 A 
ATOM     27  C   UNL     1      44.469   2.596   9.745  0.00  0.00    +0.000 A 
ATOM     28  N   UNL     1      44.522   3.243  10.929  0.00  0.00    +0.000 NA
ENDBRANCH  21  23
ENDBRANCH  19  21
ENDBRANCH   1  19
TORSDOF 5
ENDMDL
