MODEL 1
REMARK VINA RESULT:    -8.268      0.000      0.000
REMARK INTER + INTRA:         -10.724
REMARK INTER:                 -10.444
REMARK INTRA:                  -0.280
REMARK UNBOUND:                -0.280
REMARK  Name = 
REMARK  5 active torsions:
REMARK  status: ('A' for Active; 'I' for Inactive)
REMARK    1  A    between atoms: C_2  and  C_4
REMARK    2  A    between atoms: N_8  and  C_9
REMARK    3  A    between atoms: C_9  and  C_10
REMARK    4  A    between atoms: CA_13  and  C_14
REMARK    5  A    between atoms: C_14  and  O_15
REMARK                            x       y       z     vdW  Elec       q    Type
REMARK                         _______ _______ _______ _____ _____    ______ ____
ROOT
ATOM      1  C   UNL     1      46.517   2.567   7.586  0.00  0.00    +0.000 A 
ATOM      2  C   UNL     1      45.586   2.019   8.433  0.00  0.00    +0.000 A 
ATOM      3  N   UNL     1      44.700   2.750   9.142  0.00  0.00    +0.000 NA
ATOM      4  C   UNL     1      44.755   4.086   9.005  0.00  0.00    +0.000 A 
ATOM      5  N   UNL     1      43.856   4.890   9.685  0.00  0.00    +0.000 N 
ATOM      6  N   UNL     1      45.650   4.716   8.232  0.00  0.00    +0.000 NA
ATOM      7  C   UNL     1      46.518   3.941   7.538  0.00  0.00    +0.000 A 
ATOM      8  H   UNL     1      44.251   5.824   9.707  0.00  0.00    +0.000 HD
ENDROOT
BRANCH   1  10
ATOM      9  N   UNL     1      48.611   2.400   6.372  0.00  0.00    +0.000 N 
ATOM     10  C   UNL     1      47.474   1.775   6.805  0.00  0.00    +0.000 C 
ATOM     11  O   UNL     1      47.273   0.589   6.576  0.00  0.00    +0.000 OA
ATOM     12  H   UNL     1      49.300   1.813   5.918  0.00  0.00    +0.000 HD
ATOM     13  H   UNL     1      48.937   3.283   6.743  0.00  0.00    +0.000 HD
ENDBRANCH   1  10
BRANCH   5  14
ATOM     14  C   UNL     1      43.441   4.353  10.964  0.00  0.00    +0.000 C 
BRANCH  14  15
ATOM     15  C   UNL     1      44.544   4.506  11.977  0.00  0.00    +0.000 A 
ATOM     16  C   UNL     1      44.910   5.755  12.479  0.00  0.00    +0.000 A 
ATOM     17  C   UNL     1      45.876   5.846  13.478  0.00  0.00    +0.000 A 
ATOM     18  CA  UNL     1      46.457   4.676  13.961  0.00  0.00    +0.000 A 
ATOM     19  N   UNL     1      46.141   3.453  13.470  0.00  0.00    +0.000 NA
ATOM     20  C   UNL     1      45.196   3.395  12.502  0.00  0.00    +0.000 A 
BRANCH  18  21
ATOM     21  C   UNL     1      47.454   4.737  15.093  0.00  0.00    +0.000 C 
BRANCH  21  22
ATOM     22  O   UNL     1      47.842   3.434  15.519  0.00  0.00    +0.000 OA
ATOM     23  H   UNL     1      47.600   2.834  14.793  0.00  0.00    +0.000 HD
ENDBRANCH  21  22
ENDBRANCH  18  21
ENDBRANCH  14  15
ENDBRANCH   5  14
TORSDOF 5
ENDMDL
MODEL 2
REMARK VINA RESULT:    -7.956      1.706      6.572
REMARK INTER + INTRA:         -10.329
REMARK INTER:                  -9.915
REMARK INTRA:                  -0.415
REMARK UNBOUND:                -0.280
REMARK  Name = 
REMARK  5 active torsions:
REMARK  status: ('A' for Active; 'I' for Inactive)
REMARK    1  A    between atoms: C_2  and  C_4
REMARK    2  A    between atoms: N_8  and  C_9
REMARK    3  A    between atoms: C_9  and  C_10
REMARK    4  A    between atoms: CA_13  and  C_14
REMARK    5  A    between atoms: C_14  and  O_15
REMARK                            x       y       z     vdW  Elec       q    Type
REMARK                         _______ _______ _______ _____ _____    ______ ____
ROOT
ATOM      1  C   UNL     1      46.923   5.426  13.684  0.00  0.00    +0.000 A 
ATOM      2  C   UNL     1      45.915   5.891  12.876  0.00  0.00    +0.000 A 
ATOM      3  N   UNL     1      45.071   5.085  12.197  0.00  0.00    +0.000 NA
ATOM      4  C   UNL     1      45.250   3.759  12.326  0.00  0.00    +0.000 A 
ATOM      5  N   UNL     1      44.401   2.879  11.677  0.00  0.00    +0.000 N 
ATOM      6  N   UNL     1      46.226   3.210  13.061  0.00  0.00    +0.000 NA
ATOM      7  C   UNL     1      47.048   4.058  13.725  0.00  0.00    +0.000 A 
ATOM      8  H   UNL     1      44.877   1.984  11.634  0.00  0.00    +0.000 HD
ENDROOT
BRANCH   1  10
ATOM      9  N   UNL     1      47.610   7.647  14.379  0.00  0.00    +0.000 N 
ATOM     10  C   UNL     1      47.835   6.299  14.432  0.00  0.00    +0.000 C 
ATOM     11  O   UNL     1      48.747   5.832  15.103  0.00  0.00    +0.000 OA
ATOM     12  H   UNL     1      48.192   8.223  14.976  0.00  0.00    +0.000 HD
ATOM     13  H   UNL     1      46.742   8.055  14.058  0.00  0.00    +0.000 HD
ENDBRANCH   1  10
BRANCH   5  14
ATOM     14  C   UNL     1      43.891   3.379  10.416  0.00  0.00    +0.000 C 
BRANCH  14  15
ATOM     15  C   UNL     1      44.886   3.129   9.315  0.00  0.00    +0.000 A 
ATOM     16  C   UNL     1      45.378   1.851   9.048  0.00  0.00    +0.000 A 
ATOM     17  C   UNL     1      46.230   1.648   7.965  0.00  0.00    +0.000 A 
ATOM     18  CA  UNL     1      46.573   2.735   7.164  0.00  0.00    +0.000 A 
ATOM     19  N   UNL     1      46.133   3.992   7.420  0.00  0.00    +0.000 NA
ATOM     20  C   UNL     1      45.302   4.158   8.476  0.00  0.00    +0.000 A 
BRANCH  18  21
ATOM     21  C   UNL     1      47.436   2.534   5.943  0.00  0.00    +0.000 C 
BRANCH  21  22
ATOM     22  O   UNL     1      48.619   1.801   6.252  0.00  0.00    +0.000 OA
ATOM     23  H   UNL     1      48.677   1.098   5.582  0.00  0.00    +0.000 HD
ENDBRANCH  21  22
ENDBRANCH  18  21
ENDBRANCH  14  15
ENDBRANCH   5  14
TORSDOF 5
ENDMDL
MODEL 3
REMARK VINA RESULT:    -7.839      2.558      6.780
REMARK INTER + INTRA:         -10.181
REMARK INTER:                  -9.826
REMARK INTRA:                  -0.355
REMARK UNBOUND:                -0.280
REMARK  Name = 
REMARK  5 active torsions:
REMARK  status: ('A' for Active; 'I' for Inactive)
REMARK    1  A    between atoms: C_2  and  C_4
REMARK    2  A    between atoms: N_8  and  C_9
REMARK    3  A    between atoms: C_9  and  C_10
REMARK    4  A    between atoms: CA_13  and  C_14
REMARK    5  A    between atoms: C_14  and  O_15
REMARK                            x       y       z     vdW  Elec       q    Type
REMARK                         _______ _______ _______ _____ _____    ______ ____
ROOT
ATOM      1  C   UNL     1      45.436   7.202  12.512  0.00  0.00    +0.000 A 
ATOM      2  C   UNL     1      44.340   6.780  11.801  0.00  0.00    +0.000 A 
ATOM      3  N   UNL     1      44.132   5.496  11.441  0.00  0.00    +0.000 NA
ATOM      4  C   UNL     1      45.066   4.599  11.800  0.00  0.00    +0.000 A 
ATOM      5  N   UNL     1      44.899   3.260  11.485  0.00  0.00    +0.000 N 
ATOM      6  N   UNL     1      46.186   4.917  12.463  0.00  0.00    +0.000 NA
ATOM      7  C   UNL     1      46.350   6.219  12.804  0.00  0.00    +0.000 A 
ATOM      8  H   UNL     1      45.813   2.825  11.545  0.00  0.00    +0.000 HD
ENDROOT
BRANCH   1  10
ATOM      9  N   UNL     1      46.538   8.828  13.936  0.00  0.00    +0.000 N 
ATOM     10  C   UNL     1      45.659   8.596  12.914  0.00  0.00    +0.000 C 
ATOM     11  O   UNL     1      45.100   9.517  12.334  0.00  0.00    +0.000 OA
ATOM     12  H   UNL     1      46.749   9.800  14.134  0.00  0.00    +0.000 HD
ATOM     13  H   UNL     1      47.202   8.141  14.267  0.00  0.00    +0.000 HD
ENDBRANCH   1  10
BRANCH   5  14
ATOM     14  C   UNL     1      44.177   3.036  10.249  0.00  0.00    +0.000 C 
BRANCH  14  15
ATOM     15  C   UNL     1      45.139   2.901   9.100  0.00  0.00    +0.000 A 
ATOM     16  C   UNL     1      45.684   1.668   8.741  0.00  0.00    +0.000 A 
ATOM     17  C   UNL     1      46.502   1.572   7.617  0.00  0.00    +0.000 A 
ATOM     18  CA  UNL     1      46.757   2.718   6.869  0.00  0.00    +0.000 A 
ATOM     19  N   UNL     1      46.264   3.933   7.213  0.00  0.00    +0.000 NA
ATOM     20  C   UNL     1      45.469   3.996   8.307  0.00  0.00    +0.000 A 
BRANCH  18  21
ATOM     21  C   UNL     1      47.581   2.632   5.607  0.00  0.00    +0.000 C 
BRANCH  21  22
ATOM     22  O   UNL     1      48.624   1.669   5.727  0.00  0.00    +0.000 OA
ATOM     23  H   UNL     1      48.224   0.814   5.491  0.00  0.00    +0.000 HD
ENDBRANCH  21  22
ENDBRANCH  18  21
ENDBRANCH  14  15
ENDBRANCH   5  14
TORSDOF 5
ENDMDL
MODEL 4
REMARK VINA RESULT:    -6.333      2.593      7.566
REMARK INTER + INTRA:          -8.280
REMARK INTER:                  -7.982
REMARK INTRA:                  -0.298
REMARK UNBOUND:                -0.280
REMARK  Name = 
REMARK  5 active torsions:
REMARK  status: ('A' for Active; 'I' for Inactive)
REMARK    1  A    between atoms: C_2  and  C_4
REMARK    2  A    between atoms: N_8  and  C_9
REMARK    3  A    between atoms: C_9  and  C_10
REMARK    4  A    between atoms: CA_13  and  C_14
REMARK    5  A    between atoms: C_14  and  O_15
REMARK                            x       y       z     vdW  Elec       q    Type
REMARK                         _______ _______ _______ _____ _____    ______ ____
ROOT
ATOM      1  C   UNL     1      48.498   4.190  17.042  0.00  0.00    +0.000 A 
ATOM      2  C   UNL     1      47.574   3.463  16.334  0.00  0.00    +0.000 A 
ATOM      3  N   UNL     1      46.996   3.898  15.194  0.00  0.00    +0.000 NA
ATOM      4  C   UNL     1      47.352   5.116  14.751  0.00  0.00    +0.000 A 
ATOM      5  N   UNL     1      46.815   5.609  13.573  0.00  0.00    +0.000 N 
ATOM      6  N   UNL     1      48.216   5.915  15.390  0.00  0.00    +0.000 NA
ATOM      7  C   UNL     1      48.771   5.436  16.529  0.00  0.00    +0.000 A 
ATOM      8  H   UNL     1      46.946   6.614  13.585  0.00  0.00    +0.000 HD
ENDROOT
BRANCH   1  10
ATOM      9  N   UNL     1      48.325   3.225  19.261  0.00  0.00    +0.000 N 
ATOM     10  C   UNL     1      49.136   3.716  18.276  0.00  0.00    +0.000 C 
ATOM     11  O   UNL     1      50.353   3.734  18.404  0.00  0.00    +0.000 OA
ATOM     12  H   UNL     1      48.791   2.817  20.064  0.00  0.00    +0.000 HD
ATOM     13  H   UNL     1      47.361   2.957  19.109  0.00  0.00    +0.000 HD
ENDBRANCH   1  10
BRANCH   5  14
ATOM     14  C   UNL     1      45.465   5.154  13.309  0.00  0.00    +0.000 C 
BRANCH  14  15
ATOM     15  C   UNL     1      45.327   4.736  11.870  0.00  0.00    +0.000 A 
ATOM     16  C   UNL     1      45.653   5.598  10.822  0.00  0.00    +0.000 A 
ATOM     17  C   UNL     1      45.595   5.144   9.507  0.00  0.00    +0.000 A 
ATOM     18  CA  UNL     1      45.212   3.827   9.265  0.00  0.00    +0.000 A 
ATOM     19  N   UNL     1      44.861   2.979  10.262  0.00  0.00    +0.000 NA
ATOM     20  C   UNL     1      44.931   3.446  11.531  0.00  0.00    +0.000 A 
BRANCH  18  21
ATOM     21  C   UNL     1      45.208   3.286   7.856  0.00  0.00    +0.000 C 
BRANCH  21  22
ATOM     22  O   UNL     1      46.112   3.999   7.018  0.00  0.00    +0.000 OA
ATOM     23  H   UNL     1      46.005   3.620   6.129  0.00  0.00    +0.000 HD
ENDBRANCH  21  22
ENDBRANCH  18  21
ENDBRANCH  14  15
ENDBRANCH   5  14
TORSDOF 5
ENDMDL
MODEL 5
REMARK VINA RESULT:    -6.149      3.982      6.533
REMARK INTER + INTRA:          -8.046
REMARK INTER:                  -7.737
REMARK INTRA:                  -0.309
REMARK UNBOUND:                -0.280
REMARK  Name = 
REMARK  5 active torsions:
REMARK  status: ('A' for Active; 'I' for Inactive)
REMARK    1  A    between atoms: C_2  and  C_4
REMARK    2  A    between atoms: N_8  and  C_9
REMARK    3  A    between atoms: C_9  and  C_10
REMARK    4  A    between atoms: CA_13  and  C_14
REMARK    5  A    between atoms: C_14  and  O_15
REMARK                            x       y       z     vdW  Elec       q    Type
REMARK                         _______ _______ _______ _____ _____    ______ ____
ROOT
ATOM      1  C   UNL     1      45.978   5.684  12.291  0.00  0.00    +0.000 A 
ATOM      2  C   UNL     1      47.176   5.929  12.915  0.00  0.00    +0.000 A 
ATOM      3  N   UNL     1      47.571   5.303  14.044  0.00  0.00    +0.000 NA
ATOM      4  C   UNL     1      46.726   4.402  14.575  0.00  0.00    +0.000 A 
ATOM      5  N   UNL     1      47.085   3.706  15.718  0.00  0.00    +0.000 N 
ATOM      6  N   UNL     1      45.522   4.120  14.061  0.00  0.00    +0.000 NA
ATOM      7  C   UNL     1      45.169   4.772  12.926  0.00  0.00    +0.000 A 
ATOM      8  H   UNL     1      46.230   3.341  16.123  0.00  0.00    +0.000 HD
ENDROOT
BRANCH   1  10
ATOM      9  N   UNL     1      45.796   5.719   9.871  0.00  0.00    +0.000 N 
ATOM     10  C   UNL     1      45.549   6.354  11.057  0.00  0.00    +0.000 C 
ATOM     11  O   UNL     1      44.966   7.430  11.094  0.00  0.00    +0.000 OA
ATOM     12  H   UNL     1      45.409   6.153   9.041  0.00  0.00    +0.000 HD
ATOM     13  H   UNL     1      46.036   4.739   9.803  0.00  0.00    +0.000 HD
ENDBRANCH   1  10
BRANCH   5  14
ATOM     14  C   UNL     1      47.935   4.458  16.618  0.00  0.00    +0.000 C 
BRANCH  14  15
ATOM     15  C   UNL     1      49.203   3.696  16.895  0.00  0.00    +0.000 A 
ATOM     16  C   UNL     1      50.327   4.316  17.442  0.00  0.00    +0.000 A 
ATOM     17  C   UNL     1      51.450   3.558  17.764  0.00  0.00    +0.000 A 
ATOM     18  CA  UNL     1      51.425   2.185  17.534  0.00  0.00    +0.000 A 
ATOM     19  N   UNL     1      50.358   1.563  16.976  0.00  0.00    +0.000 NA
ATOM     20  C   UNL     1      49.278   2.324  16.677  0.00  0.00    +0.000 A 
BRANCH  18  21
ATOM     21  C   UNL     1      52.600   1.327  17.938  0.00  0.00    +0.000 C 
BRANCH  21  22
ATOM     22  O   UNL     1      52.195  -0.003  18.249  0.00  0.00    +0.000 OA
ATOM     23  H   UNL     1      52.202  -0.062  19.219  0.00  0.00    +0.000 HD
ENDBRANCH  21  22
ENDBRANCH  18  21
ENDBRANCH  14  15
ENDBRANCH   5  14
TORSDOF 5
ENDMDL
MODEL 6
REMARK VINA RESULT:    -6.114      3.841      6.138
REMARK INTER + INTRA:          -8.002
REMARK INTER:                  -7.755
REMARK INTRA:                  -0.247
REMARK UNBOUND:                -0.280
REMARK  Name = 
REMARK  5 active torsions:
REMARK  status: ('A' for Active; 'I' for Inactive)
REMARK    1  A    between atoms: C_2  and  C_4
REMARK    2  A    between atoms: N_8  and  C_9
REMARK    3  A    between atoms: C_9  and  C_10
REMARK    4  A    between atoms: CA_13  and  C_14
REMARK    5  A    between atoms: C_14  and  O_15
REMARK                            x       y       z     vdW  Elec       q    Type
REMARK                         _______ _______ _______ _____ _____    ______ ____
ROOT
ATOM      1  C   UNL     1      44.475   4.838  11.886  0.00  0.00    +0.000 A 
ATOM      2  C   UNL     1      45.032   5.642  12.849  0.00  0.00    +0.000 A 
ATOM      3  N   UNL     1      45.923   5.204  13.763  0.00  0.00    +0.000 NA
ATOM      4  C   UNL     1      46.264   3.905  13.716  0.00  0.00    +0.000 A 
ATOM      5  N   UNL     1      47.194   3.399  14.610  0.00  0.00    +0.000 N 
ATOM      6  N   UNL     1      45.749   3.034  12.838  0.00  0.00    +0.000 NA
ATOM      7  C   UNL     1      44.859   3.520  11.939  0.00  0.00    +0.000 A 
ATOM      8  H   UNL     1      47.072   2.392  14.626  0.00  0.00    +0.000 HD
ENDROOT
BRANCH   1  10
ATOM      9  N   UNL     1      42.748   6.401  11.205  0.00  0.00    +0.000 N 
ATOM     10  C   UNL     1      43.514   5.314  10.884  0.00  0.00    +0.000 C 
ATOM     11  O   UNL     1      43.424   4.773   9.789  0.00  0.00    +0.000 OA
ATOM     12  H   UNL     1      42.160   6.769  10.466  0.00  0.00    +0.000 HD
ATOM     13  H   UNL     1      42.959   7.024  11.973  0.00  0.00    +0.000 HD
ENDBRANCH   1  10
BRANCH   5  14
ATOM     14  C   UNL     1      47.181   4.055  15.901  0.00  0.00    +0.000 C 
BRANCH  14  15
ATOM     15  C   UNL     1      48.493   3.839  16.608  0.00  0.00    +0.000 A 
ATOM     16  C   UNL     1      49.016   2.561  16.809  0.00  0.00    +0.000 A 
ATOM     17  C   UNL     1      50.273   2.409  17.389  0.00  0.00    +0.000 A 
ATOM     18  CA  UNL     1      50.988   3.547  17.755  0.00  0.00    +0.000 A 
ATOM     19  N   UNL     1      50.490   4.798  17.598  0.00  0.00    +0.000 NA
ATOM     20  C   UNL     1      49.268   4.915  17.028  0.00  0.00    +0.000 A 
BRANCH  18  21
ATOM     21  C   UNL     1      52.382   3.417  18.320  0.00  0.00    +0.000 C 
BRANCH  21  22
ATOM     22  O   UNL     1      52.397   3.625  19.729  0.00  0.00    +0.000 OA
ATOM     23  H   UNL     1      52.758   2.808  20.114  0.00  0.00    +0.000 HD
ENDBRANCH  21  22
ENDBRANCH  18  21
ENDBRANCH  14  15
ENDBRANCH   5  14
TORSDOF 5
ENDMDL
MODEL 7
REMARK VINA RESULT:    -5.828      5.085      8.284
REMARK INTER + INTRA:          -7.641
REMARK INTER:                  -7.317
REMARK INTRA:                  -0.324
REMARK UNBOUND:                -0.280
REMARK  Name = 
REMARK  5 active torsions:
REMARK  status: ('A' for Active; 'I' for Inactive)
REMARK    1  A    between atoms: C_2  and  C_4
REMARK    2  A    between atoms: N_8  and  C_9
REMARK    3  A    between atoms: C_9  and  C_10
REMARK    4  A    between atoms: CA_13  and  C_14
REMARK    5  A    between atoms: C_14  and  O_15
REMARK                            x       y       z     vdW  Elec       q    Type
REMARK                         _______ _______ _______ _____ _____    ______ ____
ROOT
ATOM      1  C   UNL     1      48.577   4.345  18.070  0.00  0.00    +0.000 A 
ATOM      2  C   UNL     1      48.832   5.204  17.030  0.00  0.00    +0.000 A 
ATOM      3  N   UNL     1      48.130   5.210  15.877  0.00  0.00    +0.000 NA
ATOM      4  C   UNL     1      47.138   4.311  15.758  0.00  0.00    +0.000 A 
ATOM      5  N   UNL     1      46.363   4.283  14.610  0.00  0.00    +0.000 N 
ATOM      6  N   UNL     1      46.836   3.408  16.700  0.00  0.00    +0.000 NA
ATOM      7  C   UNL     1      47.567   3.441  17.841  0.00  0.00    +0.000 A 
ATOM      8  H   UNL     1      45.915   3.374  14.576  0.00  0.00    +0.000 HD
ENDROOT
BRANCH   1  10
ATOM      9  N   UNL     1      48.664   3.984  20.468  0.00  0.00    +0.000 N 
ATOM     10  C   UNL     1      49.332   4.343  19.329  0.00  0.00    +0.000 C 
ATOM     11  O   UNL     1      50.523   4.624  19.351  0.00  0.00    +0.000 OA
ATOM     12  H   UNL     1      49.225   3.898  21.308  0.00  0.00    +0.000 HD
ATOM     13  H   UNL     1      47.772   3.508  20.465  0.00  0.00    +0.000 HD
ENDBRANCH   1  10
BRANCH   5  14
ATOM     14  C   UNL     1      47.077   4.676  13.412  0.00  0.00    +0.000 C 
BRANCH  14  15
ATOM     15  C   UNL     1      46.439   5.895  12.801  0.00  0.00    +0.000 A 
ATOM     16  C   UNL     1      45.406   5.793  11.870  0.00  0.00    +0.000 A 
ATOM     17  C   UNL     1      44.784   6.946  11.395  0.00  0.00    +0.000 A 
ATOM     18  CA  UNL     1      45.209   8.185  11.867  0.00  0.00    +0.000 A 
ATOM     19  N   UNL     1      46.230   8.313  12.750  0.00  0.00    +0.000 NA
ATOM     20  C   UNL     1      46.813   7.175  13.197  0.00  0.00    +0.000 A 
BRANCH  18  21
ATOM     21  C   UNL     1      44.507   9.446  11.425  0.00  0.00    +0.000 C 
BRANCH  21  22
ATOM     22  O   UNL     1      44.168  10.273  12.535  0.00  0.00    +0.000 OA
ATOM     23  H   UNL     1      43.369   9.879  12.924  0.00  0.00    +0.000 HD
ENDBRANCH  21  22
ENDBRANCH  18  21
ENDBRANCH  14  15
ENDBRANCH   5  14
TORSDOF 5
ENDMDL
MODEL 8
REMARK VINA RESULT:    -5.596      3.582      6.294
REMARK INTER + INTRA:          -7.348
REMARK INTER:                  -6.972
REMARK INTRA:                  -0.376
REMARK UNBOUND:                -0.280
REMARK  Name = 
REMARK  5 active torsions:
REMARK  status: ('A' for Active; 'I' for Inactive)
REMARK    1  A    between atoms: C_2  and  C_4
REMARK    2  A    between atoms: N_8  and  C_9
REMARK    3  A    between atoms: C_9  and  C_10
REMARK    4  A    between atoms: CA_13  and  C_14
REMARK    5  A    between atoms: C_14  and  O_15
REMARK                            x       y       z     vdW  Elec       q    Type
REMARK                         _______ _______ _______ _____ _____    ______ ____
ROOT
ATOM      1  C   UNL     1      49.149   7.993  12.413  0.00  0.00    +0.000 A 
ATOM      2  C   UNL     1      47.919   8.496  12.068  0.00  0.00    +0.000 A 
ATOM      3  N   UNL     1      46.753   7.876  12.348  0.00  0.00    +0.000 NA
ATOM      4  C   UNL     1      46.823   6.699  12.993  0.00  0.00    +0.000 A 
ATOM      5  N   UNL     1      45.662   6.025  13.334  0.00  0.00    +0.000 N 
ATOM      6  N   UNL     1      47.975   6.109  13.340  0.00  0.00    +0.000 NA
ATOM      7  C   UNL     1      49.120   6.770  13.039  0.00  0.00    +0.000 A 
ATOM      8  H   UNL     1      45.918   5.059  13.506  0.00  0.00    +0.000 HD
ENDROOT
BRANCH   1  10
ATOM      9  N   UNL     1      51.562   8.124  12.632  0.00  0.00    +0.000 N 
ATOM     10  C   UNL     1      50.418   8.670  12.119  0.00  0.00    +0.000 C 
ATOM     11  O   UNL     1      50.450   9.670  11.414  0.00  0.00    +0.000 OA
ATOM     12  H   UNL     1      52.433   8.551  12.340  0.00  0.00    +0.000 HD
ATOM     13  H   UNL     1      51.616   7.181  12.995  0.00  0.00    +0.000 HD
ENDBRANCH   1  10
BRANCH   5  14
ATOM     14  C   UNL     1      44.572   6.229  12.402  0.00  0.00    +0.000 C 
BRANCH  14  15
ATOM     15  C   UNL     1      44.536   5.115  11.391  0.00  0.00    +0.000 A 
ATOM     16  C   UNL     1      45.200   5.213  10.168  0.00  0.00    +0.000 A 
ATOM     17  C   UNL     1      45.215   4.126   9.297  0.00  0.00    +0.000 A 
ATOM     18  CA  UNL     1      44.564   2.953   9.671  0.00  0.00    +0.000 A 
ATOM     19  N   UNL     1      43.887   2.842  10.841  0.00  0.00    +0.000 NA
ATOM     20  C   UNL     1      43.893   3.913  11.669  0.00  0.00    +0.000 A 
BRANCH  18  21
ATOM     21  C   UNL     1      44.623   1.736   8.781  0.00  0.00    +0.000 C 
BRANCH  21  22
ATOM     22  O   UNL     1      45.964   1.298   8.581  0.00  0.00    +0.000 OA
ATOM     23  H   UNL     1      46.257   0.943   9.437  0.00  0.00    +0.000 HD
ENDBRANCH  21  22
ENDBRANCH  18  21
ENDBRANCH  14  15
ENDBRANCH   5  14
TORSDOF 5
ENDMDL
MODEL 9
REMARK VINA RESULT:    -5.577      3.206      5.385
REMARK INTER + INTRA:          -7.324
REMARK INTER:                  -7.122
REMARK INTRA:                  -0.202
REMARK UNBOUND:                -0.280
REMARK  Name = 
REMARK  5 active torsions:
REMARK  status: ('A' for Active; 'I' for Inactive)
REMARK    1  A    between atoms: C_2  and  C_4
REMARK    2  A    between atoms: N_8  and  C_9
REMARK    3  A    between atoms: C_9  and  C_10
REMARK    4  A    between atoms: CA_13  and  C_14
REMARK    5  A    between atoms: C_14  and  O_15
REMARK                            x       y       z     vdW  Elec       q    Type
REMARK                         _______ _______ _______ _____ _____    ______ ____
ROOT
ATOM      1  C   UNL     1      44.737   4.079  11.690  0.00  0.00    +0.000 A 
ATOM      2  C   UNL     1      45.638   3.560  12.586  0.00  0.00    +0.000 A 
ATOM      3  N   UNL     1      46.391   4.317  13.412  0.00  0.00    +0.000 NA
ATOM      4  C   UNL     1      46.242   5.650  13.329  0.00  0.00    +0.000 A 
ATOM      5  N   UNL     1      46.965   6.482  14.168  0.00  0.00    +0.000 N 
ATOM      6  N   UNL     1      45.416   6.253  12.463  0.00  0.00    +0.000 NA
ATOM      7  C   UNL     1      44.680   5.451  11.655  0.00  0.00    +0.000 A 
ATOM      8  H   UNL     1      46.960   7.405  13.748  0.00  0.00    +0.000 HD
ENDROOT
BRANCH   1  10
ATOM      9  N   UNL     1      44.168   3.320   9.457  0.00  0.00    +0.000 N 
ATOM     10  C   UNL     1      43.909   3.258  10.798  0.00  0.00    +0.000 C 
ATOM     11  O   UNL     1      43.040   2.522  11.245  0.00  0.00    +0.000 OA
ATOM     12  H   UNL     1      43.650   2.676   8.870  0.00  0.00    +0.000 HD
ATOM     13  H   UNL     1      45.020   3.704   9.070  0.00  0.00    +0.000 HD
ENDBRANCH   1  10
BRANCH   5  14
ATOM     14  C   UNL     1      48.270   5.962  14.525  0.00  0.00    +0.000 C 
BRANCH  14  15
ATOM     15  C   UNL     1      48.309   5.613  15.988  0.00  0.00    +0.000 A 
ATOM     16  C   UNL     1      47.892   4.367  16.456  0.00  0.00    +0.000 A 
ATOM     17  C   UNL     1      48.027   4.052  17.806  0.00  0.00    +0.000 A 
ATOM     18  CA  UNL     1      48.582   4.996  18.666  0.00  0.00    +0.000 A 
ATOM     19  N   UNL     1      48.968   6.225  18.243  0.00  0.00    +0.000 NA
ATOM     20  C   UNL     1      48.829   6.501  16.924  0.00  0.00    +0.000 A 
BRANCH  18  21
ATOM     21  C   UNL     1      48.806   4.658  20.120  0.00  0.00    +0.000 C 
BRANCH  21  22
ATOM     22  O   UNL     1      48.284   3.373  20.446  0.00  0.00    +0.000 OA
ATOM     23  H   UNL     1      48.570   2.781  19.729  0.00  0.00    +0.000 HD
ENDBRANCH  21  22
ENDBRANCH  18  21
ENDBRANCH  14  15
ENDBRANCH   5  14
TORSDOF 5
ENDMDL
