MODEL 1
REMARK VINA RESULT:    -7.935      0.000      0.000
REMARK INTER + INTRA:         -11.077
REMARK INTER:                 -10.254
REMARK INTRA:                  -0.823
REMARK UNBOUND:                -0.823
REMARK  Name = 
REMARK  5 active torsions:
REMARK  status: ('A' for Active; 'I' for Inactive)
REMARK    1  A    between atoms: C_2  and  C_5
REMARK    2  A    between atoms: C_7  and  N_8
REMARK    3  A    between atoms: C_16  and  C_17
REMARK    4  A    between atoms: C_17  and  O_18
REMARK    5  A    between atoms: O_18  and  C_19
REMARK                            x       y       z     vdW  Elec       q    Type
REMARK                         _______ _______ _______ _____ _____    ______ ____
ROOT
ATOM      1  C   UNL     1      46.783   6.037  12.678  0.00  0.00    +0.000 A 
ATOM      2  C   UNL     1      47.517   5.711  13.832  0.00  0.00    +0.000 A 
ATOM      3  C   UNL     1      47.119   4.701  14.697  0.00  0.00    +0.000 A 
ATOM      4  N   UNL     1      46.024   3.998  14.370  0.00  0.00    +0.000 NA
ATOM      5  N   UNL     1      45.265   4.310  13.244  0.00  0.00    +0.000 NA
ATOM      6  C   UNL     1      45.621   5.321  12.422  0.00  0.00    +0.000 A 
ENDROOT
BRANCH   3   7
ATOM      7  N   UNL     1      47.863   4.418  15.830  0.00  0.00    +0.000 N 
ATOM      8  C   UNL     1      47.942   3.037  16.323  0.00  0.00    +0.000 C 
ATOM      9  C   UNL     1      47.346   2.886  17.739  0.00  0.00    +0.000 C 
ATOM     10  N   UNL     1      47.865   3.875  18.707  0.00  0.00    +0.000 NA
ATOM     11  C   UNL     1      47.582   5.223  18.180  0.00  0.00    +0.000 C 
ATOM     12  C   UNL     1      48.191   5.486  16.785  0.00  0.00    +0.000 C 
ATOM     13  H   UNL     1      48.878   3.760  18.764  0.00  0.00    +0.000 HD
ENDBRANCH   3   7
BRANCH   1  15
ATOM     14  F   UNL     1      48.444   7.691  12.216  0.00  0.00    +0.000 F 
ATOM     15  C   UNL     1      47.260   7.148  11.800  0.00  0.00    +0.000 C 
ATOM     16  F   UNL     1      46.389   8.192  11.757  0.00  0.00    +0.000 F 
ATOM     17  F   UNL     1      47.465   6.766  10.515  0.00  0.00    +0.000 F 
ENDBRANCH   1  15
BRANCH   6  18
ATOM     18  C   UNL     1      44.676   5.620  11.281  0.00  0.00    +0.000 C 
BRANCH  18  19
ATOM     19  O   UNL     1      44.160   4.410  10.724  0.00  0.00    +0.000 OA
BRANCH  19  20
ATOM     20  C   UNL     1      44.864   3.873   9.677  0.00  0.00    +0.000 A 
ATOM     21  C   UNL     1      45.562   4.588   8.699  0.00  0.00    +0.000 A 
ATOM     22  C   UNL     1      46.283   3.909   7.707  0.00  0.00    +0.000 A 
ATOM     23  C   UNL     1      46.299   2.517   7.688  0.00  0.00    +0.000 A 
ATOM     24 CL   UNL     1      47.213   1.688   6.489  0.00  0.00    +0.000 Cl
ATOM     25  C   UNL     1      45.581   1.795   8.637  0.00  0.00    +0.000 A 
ATOM     26  C   UNL     1      44.862   2.474   9.625  0.00  0.00    +0.000 A 
ENDBRANCH  19  20
ENDBRANCH  18  19
ENDBRANCH   6  18
TORSDOF 5
ENDMDL
MODEL 2
REMARK VINA RESULT:    -7.380      3.344      4.361
REMARK INTER + INTRA:         -10.359
REMARK INTER:                  -9.390
REMARK INTRA:                  -0.969
REMARK UNBOUND:                -0.823
REMARK  Name = 
REMARK  5 active torsions:
REMARK  status: ('A' for Active; 'I' for Inactive)
REMARK    1  A    between atoms: C_2  and  C_5
REMARK    2  A    between atoms: C_7  and  N_8
REMARK    3  A    between atoms: C_16  and  C_17
REMARK    4  A    between atoms: C_17  and  O_18
REMARK    5  A    between atoms: O_18  and  C_19
REMARK                            x       y       z     vdW  Elec       q    Type
REMARK                         _______ _______ _______ _____ _____    ______ ____
ROOT
ATOM      1  C   UNL     1      45.463   5.200  12.415  0.00  0.00    +0.000 A 
ATOM      2  C   UNL     1      46.462   6.084  12.857  0.00  0.00    +0.000 A 
ATOM      3  C   UNL     1      46.468   7.426  12.501  0.00  0.00    +0.000 A 
ATOM      4  N   UNL     1      45.450   7.875  11.751  0.00  0.00    +0.000 NA
ATOM      5  N   UNL     1      44.457   7.020  11.282  0.00  0.00    +0.000 NA
ATOM      6  C   UNL     1      44.468   5.704  11.587  0.00  0.00    +0.000 A 
ENDROOT
BRANCH   3   7
ATOM      7  N   UNL     1      47.477   8.263  12.949  0.00  0.00    +0.000 N 
ATOM      8  C   UNL     1      47.691   9.559  12.294  0.00  0.00    +0.000 C 
ATOM      9  C   UNL     1      49.087   9.663  11.644  0.00  0.00    +0.000 C 
ATOM     10  N   UNL     1      50.192   9.285  12.551  0.00  0.00    +0.000 NA
ATOM     11  C   UNL     1      49.950   7.906  13.014  0.00  0.00    +0.000 C 
ATOM     12  C   UNL     1      48.595   7.718  13.732  0.00  0.00    +0.000 C 
ATOM     13  H   UNL     1      50.162   9.904  13.362  0.00  0.00    +0.000 HD
ENDBRANCH   3   7
BRANCH   1  15
ATOM     14  F   UNL     1      44.323   3.272  13.246  0.00  0.00    +0.000 F 
ATOM     15  C   UNL     1      45.526   3.764  12.823  0.00  0.00    +0.000 C 
ATOM     16  F   UNL     1      46.379   3.553  13.862  0.00  0.00    +0.000 F 
ATOM     17  F   UNL     1      45.927   2.939  11.824  0.00  0.00    +0.000 F 
ENDBRANCH   1  15
BRANCH   6  18
ATOM     18  C   UNL     1      43.387   4.860  10.951  0.00  0.00    +0.000 C 
BRANCH  18  19
ATOM     19  O   UNL     1      43.558   4.805   9.534  0.00  0.00    +0.000 OA
BRANCH  19  20
ATOM     20  C   UNL     1      44.447   3.874   9.063  0.00  0.00    +0.000 A 
ATOM     21  C   UNL     1      44.424   2.502   9.332  0.00  0.00    +0.000 A 
ATOM     22  C   UNL     1      45.370   1.651   8.745  0.00  0.00    +0.000 A 
ATOM     23  C   UNL     1      46.342   2.172   7.896  0.00  0.00    +0.000 A 
ATOM     24 CL   UNL     1      47.480   1.118   7.150  0.00  0.00    +0.000 Cl
ATOM     25  C   UNL     1      46.395   3.540   7.647  0.00  0.00    +0.000 A 
ATOM     26  C   UNL     1      45.451   4.387   8.235  0.00  0.00    +0.000 A 
ENDBRANCH  19  20
ENDBRANCH  18  19
ENDBRANCH   6  18
TORSDOF 5
ENDMDL
MODEL 3
REMARK VINA RESULT:    -6.915      4.564      7.380
REMARK INTER + INTRA:          -9.759
REMARK INTER:                  -9.193
REMARK INTRA:                  -0.566
REMARK UNBOUND:                -0.823
REMARK  Name = 
REMARK  5 active torsions:
REMARK  status: ('A' for Active; 'I' for Inactive)
REMARK    1  A    between atoms: C_2  and  C_5
REMARK    2  A    between atoms: C_7  and  N_8
REMARK    3  A    between atoms: C_16  and  C_17
REMARK    4  A    between atoms: C_17  and  O_18
REMARK    5  A    between atoms: O_18  and  C_19
REMARK                            x       y       z     vdW  Elec       q    Type
REMARK                         _______ _______ _______ _____ _____    ______ ____
ROOT
ATOM      1  C   UNL     1      44.634   4.461  11.227  0.00  0.00    +0.000 A 
ATOM      2  C   UNL     1      44.769   3.534  10.178  0.00  0.00    +0.000 A 
ATOM      3  C   UNL     1      45.409   3.856   8.989  0.00  0.00    +0.000 A 
ATOM      4  N   UNL     1      45.948   5.081   8.885  0.00  0.00    +0.000 NA
ATOM      5  N   UNL     1      45.813   6.026   9.899  0.00  0.00    +0.000 NA
ATOM      6  C   UNL     1      45.153   5.735  11.041  0.00  0.00    +0.000 A 
ENDROOT
BRANCH   3   7
ATOM      7  N   UNL     1      45.512   2.919   7.976  0.00  0.00    +0.000 N 
ATOM      8  C   UNL     1      45.471   1.487   8.301  0.00  0.00    +0.000 C 
ATOM      9  C   UNL     1      46.778   0.762   7.918  0.00  0.00    +0.000 C 
ATOM     10  N   UNL     1      47.217   1.026   6.531  0.00  0.00    +0.000 NA
ATOM     11  C   UNL     1      47.382   2.483   6.374  0.00  0.00    +0.000 C 
ATOM     12  C   UNL     1      46.102   3.291   6.682  0.00  0.00    +0.000 C 
ATOM     13  H   UNL     1      46.476   0.718   5.900  0.00  0.00    +0.000 HD
ENDBRANCH   3   7
BRANCH   1  15
ATOM     14  F   UNL     1      43.586   2.725  12.492  0.00  0.00    +0.000 F 
ATOM     15  C   UNL     1      43.918   4.052  12.474  0.00  0.00    +0.000 C 
ATOM     16  F   UNL     1      42.741   4.713  12.642  0.00  0.00    +0.000 F 
ATOM     17  F   UNL     1      44.642   4.263  13.601  0.00  0.00    +0.000 F 
ENDBRANCH   1  15
BRANCH   6  18
ATOM     18  C   UNL     1      44.998   6.867  12.031  0.00  0.00    +0.000 C 
BRANCH  18  19
ATOM     19  O   UNL     1      45.935   7.908  11.757  0.00  0.00    +0.000 OA
BRANCH  19  20
ATOM     20  C   UNL     1      47.055   7.945  12.548  0.00  0.00    +0.000 A 
ATOM     21  C   UNL     1      47.127   8.446  13.851  0.00  0.00    +0.000 A 
ATOM     22  C   UNL     1      48.329   8.379  14.569  0.00  0.00    +0.000 A 
ATOM     23  C   UNL     1      49.460   7.819  13.980  0.00  0.00    +0.000 A 
ATOM     24 CL   UNL     1      50.924   7.708  14.877  0.00  0.00    +0.000 Cl
ATOM     25  C   UNL     1      49.408   7.347  12.673  0.00  0.00    +0.000 A 
ATOM     26  C   UNL     1      48.208   7.415  11.959  0.00  0.00    +0.000 A 
ENDBRANCH  19  20
ENDBRANCH  18  19
ENDBRANCH   6  18
TORSDOF 5
ENDMDL
MODEL 4
REMARK VINA RESULT:    -6.534      3.306      7.078
REMARK INTER + INTRA:          -9.266
REMARK INTER:                  -8.673
REMARK INTRA:                  -0.593
REMARK UNBOUND:                -0.823
REMARK  Name = 
REMARK  5 active torsions:
REMARK  status: ('A' for Active; 'I' for Inactive)
REMARK    1  A    between atoms: C_2  and  C_5
REMARK    2  A    between atoms: C_7  and  N_8
REMARK    3  A    between atoms: C_16  and  C_17
REMARK    4  A    between atoms: C_17  and  O_18
REMARK    5  A    between atoms: O_18  and  C_19
REMARK                            x       y       z     vdW  Elec       q    Type
REMARK                         _______ _______ _______ _____ _____    ______ ____
ROOT
ATOM      1  C   UNL     1      47.166   6.245  12.949  0.00  0.00    +0.000 A 
ATOM      2  C   UNL     1      46.345   5.863  11.873  0.00  0.00    +0.000 A 
ATOM      3  C   UNL     1      45.452   4.804  11.969  0.00  0.00    +0.000 A 
ATOM      4  N   UNL     1      45.356   4.177  13.151  0.00  0.00    +0.000 NA
ATOM      5  N   UNL     1      46.169   4.520  14.228  0.00  0.00    +0.000 NA
ATOM      6  C   UNL     1      47.072   5.521  14.129  0.00  0.00    +0.000 A 
ENDROOT
BRANCH   3   7
ATOM      7  N   UNL     1      44.669   4.451  10.883  0.00  0.00    +0.000 N 
ATOM      8  C   UNL     1      43.938   3.178  10.896  0.00  0.00    +0.000 C 
ATOM      9  C   UNL     1      44.394   2.229   9.767  0.00  0.00    +0.000 C 
ATOM     10  N   UNL     1      44.419   2.867   8.434  0.00  0.00    +0.000 NA
ATOM     11  C   UNL     1      45.314   4.036   8.503  0.00  0.00    +0.000 C 
ATOM     12  C   UNL     1      44.901   5.073   9.571  0.00  0.00    +0.000 C 
ATOM     13  H   UNL     1      43.477   3.196   8.222  0.00  0.00    +0.000 HD
ENDBRANCH   3   7
BRANCH   1  15
ATOM     14  F   UNL     1      48.151   7.861  11.490  0.00  0.00    +0.000 F 
ATOM     15  C   UNL     1      48.117   7.385  12.771  0.00  0.00    +0.000 C 
ATOM     16  F   UNL     1      49.403   7.041  13.055  0.00  0.00    +0.000 F 
ATOM     17  F   UNL     1      47.824   8.455  13.552  0.00  0.00    +0.000 F 
ENDBRANCH   1  15
BRANCH   6  18
ATOM     18  C   UNL     1      47.956   5.745  15.335  0.00  0.00    +0.000 C 
BRANCH  18  19
ATOM     19  O   UNL     1      47.628   4.828  16.379  0.00  0.00    +0.000 OA
BRANCH  19  20
ATOM     20  C   UNL     1      48.580   3.893  16.690  0.00  0.00    +0.000 A 
ATOM     21  C   UNL     1      48.533   2.531  16.375  0.00  0.00    +0.000 A 
ATOM     22  C   UNL     1      49.602   1.690  16.713  0.00  0.00    +0.000 A 
ATOM     23  C   UNL     1      50.713   2.208  17.373  0.00  0.00    +0.000 A 
ATOM     24 CL   UNL     1      52.038   1.178  17.756  0.00  0.00    +0.000 Cl
ATOM     25  C   UNL     1      50.756   3.555  17.721  0.00  0.00    +0.000 A 
ATOM     26  C   UNL     1      49.689   4.392  17.383  0.00  0.00    +0.000 A 
ENDBRANCH  19  20
ENDBRANCH  18  19
ENDBRANCH   6  18
TORSDOF 5
ENDMDL
MODEL 5
REMARK VINA RESULT:    -6.519      4.163      7.634
REMARK INTER + INTRA:          -9.247
REMARK INTER:                  -8.633
REMARK INTRA:                  -0.614
REMARK UNBOUND:                -0.823
REMARK  Name = 
REMARK  5 active torsions:
REMARK  status: ('A' for Active; 'I' for Inactive)
REMARK    1  A    between atoms: C_2  and  C_5
REMARK    2  A    between atoms: C_7  and  N_8
REMARK    3  A    between atoms: C_16  and  C_17
REMARK    4  A    between atoms: C_17  and  O_18
REMARK    5  A    between atoms: O_18  and  C_19
REMARK                            x       y       z     vdW  Elec       q    Type
REMARK                         _______ _______ _______ _____ _____    ______ ____
ROOT
ATOM      1  C   UNL     1      47.894   5.947  14.842  0.00  0.00    +0.000 A 
ATOM      2  C   UNL     1      47.189   6.024  13.628  0.00  0.00    +0.000 A 
ATOM      3  C   UNL     1      46.294   5.039  13.233  0.00  0.00    +0.000 A 
ATOM      4  N   UNL     1      46.079   4.019  14.078  0.00  0.00    +0.000 NA
ATOM      5  N   UNL     1      46.777   3.905  15.278  0.00  0.00    +0.000 NA
ATOM      6  C   UNL     1      47.682   4.837  15.649  0.00  0.00    +0.000 A 
ENDROOT
BRANCH   3   7
ATOM      7  N   UNL     1      45.627   5.145  12.025  0.00  0.00    +0.000 N 
ATOM      8  C   UNL     1      45.242   6.469  11.520  0.00  0.00    +0.000 C 
ATOM      9  C   UNL     1      43.712   6.621  11.382  0.00  0.00    +0.000 C 
ATOM     10  N   UNL     1      43.072   5.512  10.642  0.00  0.00    +0.000 NA
ATOM     11  C   UNL     1      43.395   4.253  11.337  0.00  0.00    +0.000 C 
ATOM     12  C   UNL     1      44.911   3.987  11.471  0.00  0.00    +0.000 C 
ATOM     13  H   UNL     1      43.482   5.477   9.708  0.00  0.00    +0.000 HD
ENDBRANCH   3   7
BRANCH   1  15
ATOM     14  F   UNL     1      48.656   7.538  16.453  0.00  0.00    +0.000 F 
ATOM     15  C   UNL     1      48.855   7.035  15.197  0.00  0.00    +0.000 C 
ATOM     16  F   UNL     1      48.758   8.110  14.367  0.00  0.00    +0.000 F 
ATOM     17  F   UNL     1      50.151   6.639  15.163  0.00  0.00    +0.000 F 
ENDBRANCH   1  15
BRANCH   6  18
ATOM     18  C   UNL     1      48.438   4.563  16.930  0.00  0.00    +0.000 C 
BRANCH  18  19
ATOM     19  O   UNL     1      48.903   3.214  16.962  0.00  0.00    +0.000 OA
BRANCH  19  20
ATOM     20  C   UNL     1      50.204   3.027  17.350  0.00  0.00    +0.000 A 
ATOM     21  C   UNL     1      51.042   3.992  17.919  0.00  0.00    +0.000 A 
ATOM     22  C   UNL     1      52.343   3.653  18.316  0.00  0.00    +0.000 A 
ATOM     23  C   UNL     1      52.808   2.354  18.138  0.00  0.00    +0.000 A 
ATOM     24 CL   UNL     1      54.394   1.934  18.659  0.00  0.00    +0.000 Cl
ATOM     25  C   UNL     1      51.995   1.394  17.544  0.00  0.00    +0.000 A 
ATOM     26  C   UNL     1      50.698   1.734  17.147  0.00  0.00    +0.000 A 
ENDBRANCH  19  20
ENDBRANCH  18  19
ENDBRANCH   6  18
TORSDOF 5
ENDMDL
MODEL 6
REMARK VINA RESULT:    -6.464      3.617      7.526
REMARK INTER + INTRA:          -9.177
REMARK INTER:                  -8.631
REMARK INTRA:                  -0.545
REMARK UNBOUND:                -0.823
REMARK  Name = 
REMARK  5 active torsions:
REMARK  status: ('A' for Active; 'I' for Inactive)
REMARK    1  A    between atoms: C_2  and  C_5
REMARK    2  A    between atoms: C_7  and  N_8
REMARK    3  A    between atoms: C_16  and  C_17
REMARK    4  A    between atoms: C_17  and  O_18
REMARK    5  A    between atoms: O_18  and  C_19
REMARK                            x       y       z     vdW  Elec       q    Type
REMARK                         _______ _______ _______ _____ _____    ______ ____
ROOT
ATOM      1  C   UNL     1      45.839   5.495  12.199  0.00  0.00    +0.000 A 
ATOM      2  C   UNL     1      45.640   5.069  10.874  0.00  0.00    +0.000 A 
ATOM      3  C   UNL     1      45.405   3.738  10.556  0.00  0.00    +0.000 A 
ATOM      4  N   UNL     1      45.322   2.863  11.570  0.00  0.00    +0.000 NA
ATOM      5  N   UNL     1      45.534   3.252  12.890  0.00  0.00    +0.000 NA
ATOM      6  C   UNL     1      45.808   4.537  13.203  0.00  0.00    +0.000 A 
ENDROOT
BRANCH   3   7
ATOM      7  N   UNL     1      45.225   3.356   9.238  0.00  0.00    +0.000 N 
ATOM      8  C   UNL     1      45.184   1.930   8.892  0.00  0.00    +0.000 C 
ATOM      9  C   UNL     1      46.329   1.525   7.940  0.00  0.00    +0.000 C 
ATOM     10  N   UNL     1      46.453   2.402   6.757  0.00  0.00    +0.000 NA
ATOM     11  C   UNL     1      46.653   3.784   7.231  0.00  0.00    +0.000 C 
ATOM     12  C   UNL     1      45.521   4.298   8.149  0.00  0.00    +0.000 C 
ATOM     13  H   UNL     1      45.572   2.365   6.242  0.00  0.00    +0.000 HD
ENDBRANCH   3   7
BRANCH   1  15
ATOM     14  F   UNL     1      47.263   7.156  13.161  0.00  0.00    +0.000 F 
ATOM     15  C   UNL     1      46.104   6.942  12.467  0.00  0.00    +0.000 C 
ATOM     16  F   UNL     1      45.129   7.521  13.220  0.00  0.00    +0.000 F 
ATOM     17  F   UNL     1      46.211   7.686  11.339  0.00  0.00    +0.000 F 
ENDBRANCH   1  15
BRANCH   6  18
ATOM     18  C   UNL     1      46.103   4.823  14.658  0.00  0.00    +0.000 C 
BRANCH  18  19
ATOM     19  O   UNL     1      46.847   3.754  15.241  0.00  0.00    +0.000 OA
BRANCH  19  20
ATOM     20  C   UNL     1      47.581   4.060  16.357  0.00  0.00    +0.000 A 
ATOM     21  C   UNL     1      48.240   5.268  16.605  0.00  0.00    +0.000 A 
ATOM     22  C   UNL     1      48.919   5.468  17.815  0.00  0.00    +0.000 A 
ATOM     23  C   UNL     1      48.946   4.457  18.772  0.00  0.00    +0.000 A 
ATOM     24 CL   UNL     1      49.752   4.720  20.270  0.00  0.00    +0.000 Cl
ATOM     25  C   UNL     1      48.322   3.239  18.523  0.00  0.00    +0.000 A 
ATOM     26  C   UNL     1      47.646   3.042  17.315  0.00  0.00    +0.000 A 
ENDBRANCH  19  20
ENDBRANCH  18  19
ENDBRANCH   6  18
TORSDOF 5
ENDMDL
MODEL 7
REMARK VINA RESULT:    -6.406      4.459      6.208
REMARK INTER + INTRA:          -9.101
REMARK INTER:                  -8.359
REMARK INTRA:                  -0.742
REMARK UNBOUND:                -0.823
REMARK  Name = 
REMARK  5 active torsions:
REMARK  status: ('A' for Active; 'I' for Inactive)
REMARK    1  A    between atoms: C_2  and  C_5
REMARK    2  A    between atoms: C_7  and  N_8
REMARK    3  A    between atoms: C_16  and  C_17
REMARK    4  A    between atoms: C_17  and  O_18
REMARK    5  A    between atoms: O_18  and  C_19
REMARK                            x       y       z     vdW  Elec       q    Type
REMARK                         _______ _______ _______ _____ _____    ______ ____
ROOT
ATOM      1  C   UNL     1      49.188   4.083  17.310  0.00  0.00    +0.000 A 
ATOM      2  C   UNL     1      50.420   3.656  17.833  0.00  0.00    +0.000 A 
ATOM      3  C   UNL     1      50.994   2.445  17.472  0.00  0.00    +0.000 A 
ATOM      4  N   UNL     1      50.354   1.703  16.555  0.00  0.00    +0.000 NA
ATOM      5  N   UNL     1      49.122   2.090  16.033  0.00  0.00    +0.000 NA
ATOM      6  C   UNL     1      48.536   3.246  16.414  0.00  0.00    +0.000 A 
ENDROOT
BRANCH   3   7
ATOM      7  N   UNL     1      52.205   2.055  18.018  0.00  0.00    +0.000 N 
ATOM      8  C   UNL     1      53.191   3.073  18.405  0.00  0.00    +0.000 C 
ATOM      9  C   UNL     1      54.505   2.947  17.606  0.00  0.00    +0.000 C 
ATOM     10  N   UNL     1      55.063   1.578  17.595  0.00  0.00    +0.000 NA
ATOM     11  C   UNL     1      54.042   0.674  17.035  0.00  0.00    +0.000 C 
ATOM     12  C   UNL     1      52.704   0.689  17.808  0.00  0.00    +0.000 C 
ATOM     13  H   UNL     1      55.240   1.301  18.561  0.00  0.00    +0.000 HD
ENDBRANCH   3   7
BRANCH   1  15
ATOM     14  F   UNL     1      48.452   6.282  16.731  0.00  0.00    +0.000 F 
ATOM     15  C   UNL     1      48.619   5.392  17.756  0.00  0.00    +0.000 C 
ATOM     16  F   UNL     1      49.419   6.031  18.652  0.00  0.00    +0.000 F 
ATOM     17  F   UNL     1      47.401   5.276  18.341  0.00  0.00    +0.000 F 
ENDBRANCH   1  15
BRANCH   6  18
ATOM     18  C   UNL     1      47.162   3.518  15.844  0.00  0.00    +0.000 C 
BRANCH  18  19
ATOM     19  O   UNL     1      47.191   3.482  14.417  0.00  0.00    +0.000 OA
BRANCH  19  20
ATOM     20  C   UNL     1      46.598   4.534  13.768  0.00  0.00    +0.000 A 
ATOM     21  C   UNL     1      45.267   4.595  13.343  0.00  0.00    +0.000 A 
ATOM     22  C   UNL     1      44.774   5.755  12.731  0.00  0.00    +0.000 A 
ATOM     23  C   UNL     1      45.612   6.850  12.536  0.00  0.00    +0.000 A 
ATOM     24 CL   UNL     1      44.992   8.284  11.815  0.00  0.00    +0.000 Cl
ATOM     25  C   UNL     1      46.946   6.788  12.926  0.00  0.00    +0.000 A 
ATOM     26  C   UNL     1      47.436   5.630  13.536  0.00  0.00    +0.000 A 
ENDBRANCH  19  20
ENDBRANCH  18  19
ENDBRANCH   6  18
TORSDOF 5
ENDMDL
MODEL 8
REMARK VINA RESULT:    -6.210      2.709      3.210
REMARK INTER + INTRA:          -8.848
REMARK INTER:                  -8.118
REMARK INTRA:                  -0.730
REMARK UNBOUND:                -0.823
REMARK  Name = 
REMARK  5 active torsions:
REMARK  status: ('A' for Active; 'I' for Inactive)
REMARK    1  A    between atoms: C_2  and  C_5
REMARK    2  A    between atoms: C_7  and  N_8
REMARK    3  A    between atoms: C_16  and  C_17
REMARK    4  A    between atoms: C_17  and  O_18
REMARK    5  A    between atoms: O_18  and  C_19
REMARK                            x       y       z     vdW  Elec       q    Type
REMARK                         _______ _______ _______ _____ _____    ______ ____
ROOT
ATOM      1  C   UNL     1      45.127   5.102  12.300  0.00  0.00    +0.000 A 
ATOM      2  C   UNL     1      46.054   5.397  13.315  0.00  0.00    +0.000 A 
ATOM      3  C   UNL     1      47.192   6.154  13.075  0.00  0.00    +0.000 A 
ATOM      4  N   UNL     1      47.362   6.647  11.839  0.00  0.00    +0.000 NA
ATOM      5  N   UNL     1      46.472   6.356  10.808  0.00  0.00    +0.000 NA
ATOM      6  C   UNL     1      45.385   5.583  11.023  0.00  0.00    +0.000 A 
ENDROOT
BRANCH   3   7
ATOM      7  N   UNL     1      48.087   6.413  14.100  0.00  0.00    +0.000 N 
ATOM      8  C   UNL     1      48.205   5.471  15.219  0.00  0.00    +0.000 C 
ATOM      9  C   UNL     1      47.819   6.113  16.569  0.00  0.00    +0.000 C 
ATOM     10  N   UNL     1      48.496   7.402  16.825  0.00  0.00    +0.000 NA
ATOM     11  C   UNL     1      48.170   8.318  15.717  0.00  0.00    +0.000 C 
ATOM     12  C   UNL     1      48.575   7.781  14.326  0.00  0.00    +0.000 C 
ATOM     13  H   UNL     1      49.503   7.237  16.818  0.00  0.00    +0.000 HD
ENDBRANCH   3   7
BRANCH   1  15
ATOM     14  F   UNL     1      43.974   3.024  12.058  0.00  0.00    +0.000 F 
ATOM     15  C   UNL     1      43.931   4.268  12.624  0.00  0.00    +0.000 C 
ATOM     16  F   UNL     1      42.771   4.820  12.175  0.00  0.00    +0.000 F 
ATOM     17  F   UNL     1      43.767   4.058  13.954  0.00  0.00    +0.000 F 
ENDBRANCH   1  15
BRANCH   6  18
ATOM     18  C   UNL     1      44.540   5.267   9.810  0.00  0.00    +0.000 C 
BRANCH  18  19
ATOM     19  O   UNL     1      45.357   5.129   8.648  0.00  0.00    +0.000 OA
BRANCH  19  20
ATOM     20  C   UNL     1      45.730   3.853   8.313  0.00  0.00    +0.000 A 
ATOM     21  C   UNL     1      46.737   3.500   7.409  0.00  0.00    +0.000 A 
ATOM     22  C   UNL     1      47.051   2.151   7.193  0.00  0.00    +0.000 A 
ATOM     23  C   UNL     1      46.355   1.157   7.874  0.00  0.00    +0.000 A 
ATOM     24 CL   UNL     1      46.768  -0.496   7.632  0.00  0.00    +0.000 Cl
ATOM     25  C   UNL     1      45.330   1.496   8.752  0.00  0.00    +0.000 A 
ATOM     26  C   UNL     1      45.017   2.841   8.965  0.00  0.00    +0.000 A 
ENDBRANCH  19  20
ENDBRANCH  18  19
ENDBRANCH   6  18
TORSDOF 5
ENDMDL
MODEL 9
REMARK VINA RESULT:    -5.978      4.019      7.579
REMARK INTER + INTRA:          -8.548
REMARK INTER:                  -7.949
REMARK INTRA:                  -0.599
REMARK UNBOUND:                -0.823
REMARK  Name = 
REMARK  5 active torsions:
REMARK  status: ('A' for Active; 'I' for Inactive)
REMARK    1  A    between atoms: C_2  and  C_5
REMARK    2  A    between atoms: C_7  and  N_8
REMARK    3  A    between atoms: C_16  and  C_17
REMARK    4  A    between atoms: C_17  and  O_18
REMARK    5  A    between atoms: O_18  and  C_19
REMARK                            x       y       z     vdW  Elec       q    Type
REMARK                         _______ _______ _______ _____ _____    ______ ____
ROOT
ATOM      1  C   UNL     1      47.287   7.295  12.933  0.00  0.00    +0.000 A 
ATOM      2  C   UNL     1      46.195   6.713  12.266  0.00  0.00    +0.000 A 
ATOM      3  C   UNL     1      45.813   5.398  12.488  0.00  0.00    +0.000 A 
ATOM      4  N   UNL     1      46.495   4.699  13.408  0.00  0.00    +0.000 NA
ATOM      5  N   UNL     1      47.593   5.242  14.071  0.00  0.00    +0.000 NA
ATOM      6  C   UNL     1      47.998   6.508  13.828  0.00  0.00    +0.000 A 
ENDROOT
BRANCH   3   7
ATOM      7  N   UNL     1      44.738   4.857  11.803  0.00  0.00    +0.000 N 
ATOM      8  C   UNL     1      43.646   4.219  12.548  0.00  0.00    +0.000 C 
ATOM      9  C   UNL     1      43.498   2.722  12.204  0.00  0.00    +0.000 C 
ATOM     10  N   UNL     1      43.440   2.452  10.752  0.00  0.00    +0.000 NA
ATOM     11  C   UNL     1      44.666   2.994  10.137  0.00  0.00    +0.000 C 
ATOM     12  C   UNL     1      44.869   4.506  10.381  0.00  0.00    +0.000 C 
ATOM     13  H   UNL     1      42.640   2.956  10.368  0.00  0.00    +0.000 HD
ENDBRANCH   3   7
BRANCH   1  15
ATOM     14  F   UNL     1      46.731   9.352  11.852  0.00  0.00    +0.000 F 
ATOM     15  C   UNL     1      47.653   8.713  12.634  0.00  0.00    +0.000 C 
ATOM     16  F   UNL     1      48.827   8.818  11.953  0.00  0.00    +0.000 F 
ATOM     17  F   UNL     1      47.784   9.480  13.745  0.00  0.00    +0.000 F 
ENDBRANCH   1  15
BRANCH   6  18
ATOM     18  C   UNL     1      49.252   6.958  14.543  0.00  0.00    +0.000 C 
BRANCH  18  19
ATOM     19  O   UNL     1      49.510   6.130  15.677  0.00  0.00    +0.000 OA
BRANCH  19  20
ATOM     20  C   UNL     1      48.961   6.536  16.866  0.00  0.00    +0.000 A 
ATOM     21  C   UNL     1      48.614   5.709  17.939  0.00  0.00    +0.000 A 
ATOM     22  C   UNL     1      48.103   6.262  19.121  0.00  0.00    +0.000 A 
ATOM     23  C   UNL     1      47.931   7.639  19.227  0.00  0.00    +0.000 A 
ATOM     24 CL   UNL     1      47.335   8.316  20.693  0.00  0.00    +0.000 Cl
ATOM     25  C   UNL     1      48.243   8.468  18.154  0.00  0.00    +0.000 A 
ATOM     26  C   UNL     1      48.751   7.915  16.976  0.00  0.00    +0.000 A 
ENDBRANCH  19  20
ENDBRANCH  18  19
ENDBRANCH   6  18
TORSDOF 5
ENDMDL
