MODEL 1
REMARK VINA RESULT:    -7.612      0.000      0.000
REMARK INTER + INTRA:         -13.486
REMARK INTER:                 -11.839
REMARK INTRA:                  -1.647
REMARK UNBOUND:                -1.647
REMARK  Name = 
REMARK  10 active torsions:
REMARK  status: ('A' for Active; 'I' for Inactive)
REMARK    1  A    between atoms: N_1  and  C_2
REMARK    2  A    between atoms: C_2  and  C_3
REMARK    3  A    between atoms: C_3  and  O_4
REMARK    4  A    between atoms: O_4  and  C_5
REMARK    5  A    between atoms: C_7  and  N_8
REMARK    6  A    between atoms: N_8  and  C_9
REMARK    7  A    between atoms: C_9  and  C_10
REMARK    8  A    between atoms: C_18  and  C_19
REMARK    9  A    between atoms: C_19  and  N_20
REMARK   10  A    between atoms: C_21  and  C_23
REMARK                            x       y       z     vdW  Elec       q    Type
REMARK                         _______ _______ _______ _____ _____    ______ ____
ROOT
ATOM      1  C   UNL     1      46.478   5.844  12.949  0.00  0.00    +0.000 A 
ATOM      2  C   UNL     1      46.318   6.070  11.569  0.00  0.00    +0.000 A 
ATOM      3  C   UNL     1      45.528   5.237  10.771  0.00  0.00    +0.000 A 
ATOM      4  C   UNL     1      44.806   4.268  11.458  0.00  0.00    +0.000 A 
ATOM      5  N   UNL     1      44.949   3.970  12.765  0.00  0.00    +0.000 NA
ATOM      6  C   UNL     1      45.828   4.716  13.489  0.00  0.00    +0.000 A 
ENDROOT
BRANCH   3   7
ATOM      7  N   UNL     1      45.410   5.474   9.402  0.00  0.00    +0.000 N 
ATOM      8  H   UNL     1      45.236   6.442   9.154  0.00  0.00    +0.000 HD
BRANCH   7   9
ATOM      9  C   UNL     1      46.254   4.728   8.463  0.00  0.00    +0.000 C 
BRANCH   9  10
ATOM     10  C   UNL     1      45.436   3.833   7.511  0.00  0.00    +0.000 C 
ATOM     11  C   UNL     1      44.680   2.706   8.227  0.00  0.00    +0.000 C 
ATOM     12  C   UNL     1      45.638   1.673   8.815  0.00  0.00    +0.000 C 
ATOM     13  C   UNL     1      46.671   1.199   7.790  0.00  0.00    +0.000 C 
ATOM     14  N   UNL     1      47.350   2.309   7.116  0.00  0.00    +0.000 NA
ATOM     15  C   UNL     1      46.388   3.207   6.473  0.00  0.00    +0.000 C 
ATOM     16  H   UNL     1      47.993   1.937   6.418  0.00  0.00    +0.000 HD
ENDBRANCH   9  10
ENDBRANCH   7   9
ENDBRANCH   3   7
BRANCH   1  17
ATOM     17  O   UNL     1      47.259   6.802  13.569  0.00  0.00    +0.000 OA
BRANCH  17  18
ATOM     18  C   UNL     1      48.222   7.466  12.763  0.00  0.00    +0.000 C 
BRANCH  18  19
ATOM     19  C   UNL     1      49.649   7.509  13.290  0.00  0.00    +0.000 C 
BRANCH  19  20
ATOM     20  N   UNL     1      49.686   6.755  14.551  0.00  0.00    +0.000 NA
ATOM     21  H   UNL     1      49.607   5.757  14.380  0.00  0.00    +0.000 HD
ATOM     22  H   UNL     1      48.903   7.016  15.155  0.00  0.00    +0.000 HD
ENDBRANCH  19  20
ENDBRANCH  18  19
ENDBRANCH  17  18
ENDBRANCH   1  17
BRANCH   6  23
ATOM     23  C   UNL     1      45.998   4.233  14.905  0.00  0.00    +0.000 C 
BRANCH  23  24
ATOM     24  N   UNL     1      47.258   4.533  15.515  0.00  0.00    +0.000 N 
ATOM     25  C   UNL     1      47.522   4.048  16.771  0.00  0.00    +0.000 C 
ATOM     26  O   UNL     1      46.758   3.290  17.364  0.00  0.00    +0.000 OA
ATOM     27  H   UNL     1      47.782   5.288  15.088  0.00  0.00    +0.000 HD
BRANCH  25  28
ATOM     28  C   UNL     1      48.804   4.427  17.337  0.00  0.00    +0.000 A 
ATOM     29  C   UNL     1      48.992   5.699  17.859  0.00  0.00    +0.000 A 
ATOM     30  S   UNL     1      50.505   5.881  18.625  0.00  0.00    +0.000 S 
ATOM     31  C   UNL     1      50.964   4.288  18.224  0.00  0.00    +0.000 A 
ATOM     32  N   UNL     1      52.159   3.772  18.620  0.00  0.00    +0.000 NA
ATOM     33  C   UNL     1      52.372   2.562  18.225  0.00  0.00    +0.000 A 
ATOM     34  N   UNL     1      51.513   1.827  17.444  0.00  0.00    +0.000 N 
ATOM     35  C   UNL     1      50.320   2.319  16.986  0.00  0.00    +0.000 A 
ATOM     36  O   UNL     1      49.613   1.667  16.223  0.00  0.00    +0.000 OA
ATOM     37  C   UNL     1      49.997   3.639  17.474  0.00  0.00    +0.000 A 
ATOM     38  H   UNL     1      51.753   0.897  17.135  0.00  0.00    +0.000 HD
ENDBRANCH  25  28
ENDBRANCH  23  24
ENDBRANCH   6  23
TORSDOF 10
ENDMDL
MODEL 2
REMARK VINA RESULT:    -7.236      2.133      3.419
REMARK INTER + INTRA:         -12.902
REMARK INTER:                 -11.140
REMARK INTRA:                  -1.762
REMARK UNBOUND:                -1.647
REMARK  Name = 
REMARK  10 active torsions:
REMARK  status: ('A' for Active; 'I' for Inactive)
REMARK    1  A    between atoms: N_1  and  C_2
REMARK    2  A    between atoms: C_2  and  C_3
REMARK    3  A    between atoms: C_3  and  O_4
REMARK    4  A    between atoms: O_4  and  C_5
REMARK    5  A    between atoms: C_7  and  N_8
REMARK    6  A    between atoms: N_8  and  C_9
REMARK    7  A    between atoms: C_9  and  C_10
REMARK    8  A    between atoms: C_18  and  C_19
REMARK    9  A    between atoms: C_19  and  N_20
REMARK   10  A    between atoms: C_21  and  C_23
REMARK                            x       y       z     vdW  Elec       q    Type
REMARK                         _______ _______ _______ _____ _____    ______ ____
ROOT
ATOM      1  C   UNL     1      47.189   5.506  13.669  0.00  0.00    +0.000 A 
ATOM      2  C   UNL     1      46.250   4.721  12.976  0.00  0.00    +0.000 A 
ATOM      3  C   UNL     1      45.562   5.208  11.859  0.00  0.00    +0.000 A 
ATOM      4  C   UNL     1      45.975   6.455  11.405  0.00  0.00    +0.000 A 
ATOM      5  N   UNL     1      46.831   7.274  12.049  0.00  0.00    +0.000 NA
ATOM      6  C   UNL     1      47.385   6.823  13.207  0.00  0.00    +0.000 A 
ENDROOT
BRANCH   3   7
ATOM      7  N   UNL     1      44.619   4.413  11.208  0.00  0.00    +0.000 N 
ATOM      8  H   UNL     1      43.953   4.927  10.641  0.00  0.00    +0.000 HD
BRANCH   7   9
ATOM      9  C   UNL     1      45.018   3.105  10.678  0.00  0.00    +0.000 C 
BRANCH   9  10
ATOM     10  C   UNL     1      44.342   2.778   9.333  0.00  0.00    +0.000 C 
ATOM     11  C   UNL     1      44.967   1.578   8.608  0.00  0.00    +0.000 C 
ATOM     12  C   UNL     1      46.385   1.887   8.133  0.00  0.00    +0.000 C 
ATOM     13  C   UNL     1      46.457   3.207   7.362  0.00  0.00    +0.000 C 
ATOM     14  N   UNL     1      45.827   4.317   8.082  0.00  0.00    +0.000 NA
ATOM     15  C   UNL     1      44.434   4.011   8.414  0.00  0.00    +0.000 C 
ATOM     16  H   UNL     1      45.867   5.158   7.507  0.00  0.00    +0.000 HD
ENDBRANCH   9  10
ENDBRANCH   7   9
ENDBRANCH   3   7
BRANCH   1  17
ATOM     17  O   UNL     1      47.794   4.832  14.715  0.00  0.00    +0.000 OA
BRANCH  17  18
ATOM     18  C   UNL     1      46.941   4.102  15.587  0.00  0.00    +0.000 C 
BRANCH  18  19
ATOM     19  C   UNL     1      47.614   3.194  16.605  0.00  0.00    +0.000 C 
BRANCH  19  20
ATOM     20  N   UNL     1      46.681   3.000  17.724  0.00  0.00    +0.000 NA
ATOM     21  H   UNL     1      46.604   3.845  18.283  0.00  0.00    +0.000 HD
ATOM     22  H   UNL     1      47.010   2.260  18.348  0.00  0.00    +0.000 HD
ENDBRANCH  19  20
ENDBRANCH  18  19
ENDBRANCH  17  18
ENDBRANCH   1  17
BRANCH   6  23
ATOM     23  C   UNL     1      48.236   7.852  13.904  0.00  0.00    +0.000 C 
BRANCH  23  24
ATOM     24  N   UNL     1      48.203   7.816  15.335  0.00  0.00    +0.000 N 
ATOM     25  C   UNL     1      49.382   7.687  16.025  0.00  0.00    +0.000 C 
ATOM     26  O   UNL     1      50.478   7.688  15.470  0.00  0.00    +0.000 OA
ATOM     27  H   UNL     1      47.294   7.642  15.747  0.00  0.00    +0.000 HD
BRANCH  25  28
ATOM     28  C   UNL     1      49.263   7.620  17.470  0.00  0.00    +0.000 A 
ATOM     29  C   UNL     1      48.824   8.722  18.190  0.00  0.00    +0.000 A 
ATOM     30  S   UNL     1      48.593   8.380  19.845  0.00  0.00    +0.000 S 
ATOM     31  C   UNL     1      49.131   6.773  19.647  0.00  0.00    +0.000 A 
ATOM     32  N   UNL     1      49.150   5.897  20.687  0.00  0.00    +0.000 NA
ATOM     33  C   UNL     1      49.599   4.724  20.386  0.00  0.00    +0.000 A 
ATOM     34  N   UNL     1      50.060   4.353  19.146  0.00  0.00    +0.000 N 
ATOM     35  C   UNL     1      50.101   5.214  18.081  0.00  0.00    +0.000 A 
ATOM     36  O   UNL     1      50.595   4.875  17.009  0.00  0.00    +0.000 OA
ATOM     37  C   UNL     1      49.527   6.512  18.345  0.00  0.00    +0.000 A 
ATOM     38  H   UNL     1      50.435   3.432  18.982  0.00  0.00    +0.000 HD
ENDBRANCH  25  28
ENDBRANCH  23  24
ENDBRANCH   6  23
TORSDOF 10
ENDMDL
MODEL 3
REMARK VINA RESULT:    -6.998      2.348      3.716
REMARK INTER + INTRA:         -12.532
REMARK INTER:                 -10.863
REMARK INTRA:                  -1.670
REMARK UNBOUND:                -1.647
REMARK  Name = 
REMARK  10 active torsions:
REMARK  status: ('A' for Active; 'I' for Inactive)
REMARK    1  A    between atoms: N_1  and  C_2
REMARK    2  A    between atoms: C_2  and  C_3
REMARK    3  A    between atoms: C_3  and  O_4
REMARK    4  A    between atoms: O_4  and  C_5
REMARK    5  A    between atoms: C_7  and  N_8
REMARK    6  A    between atoms: N_8  and  C_9
REMARK    7  A    between atoms: C_9  and  C_10
REMARK    8  A    between atoms: C_18  and  C_19
REMARK    9  A    between atoms: C_19  and  N_20
REMARK   10  A    between atoms: C_21  and  C_23
REMARK                            x       y       z     vdW  Elec       q    Type
REMARK                         _______ _______ _______ _____ _____    ______ ____
ROOT
ATOM      1  C   UNL     1      47.424   5.667  13.893  0.00  0.00    +0.000 A 
ATOM      2  C   UNL     1      46.412   4.886  13.303  0.00  0.00    +0.000 A 
ATOM      3  C   UNL     1      45.774   5.276  12.121  0.00  0.00    +0.000 A 
ATOM      4  C   UNL     1      46.306   6.401  11.503  0.00  0.00    +0.000 A 
ATOM      5  N   UNL     1      47.238   7.217  12.037  0.00  0.00    +0.000 NA
ATOM      6  C   UNL     1      47.746   6.881  13.254  0.00  0.00    +0.000 A 
ENDROOT
BRANCH   3   7
ATOM      7  N   UNL     1      44.758   4.493  11.575  0.00  0.00    +0.000 N 
ATOM      8  H   UNL     1      44.025   5.016  11.108  0.00  0.00    +0.000 HD
BRANCH   7   9
ATOM      9  C   UNL     1      45.089   3.199  10.968  0.00  0.00    +0.000 C 
BRANCH   9  10
ATOM     10  C   UNL     1      44.297   2.930   9.674  0.00  0.00    +0.000 C 
ATOM     11  C   UNL     1      44.912   1.831   8.796  0.00  0.00    +0.000 C 
ATOM     12  C   UNL     1      46.252   2.268   8.208  0.00  0.00    +0.000 C 
ATOM     13  C   UNL     1      46.166   3.644   7.544  0.00  0.00    +0.000 C 
ATOM     14  N   UNL     1      45.552   4.653   8.411  0.00  0.00    +0.000 NA
ATOM     15  C   UNL     1      44.221   4.232   8.853  0.00  0.00    +0.000 C 
ATOM     16  H   UNL     1      45.483   5.535   7.905  0.00  0.00    +0.000 HD
ENDBRANCH   9  10
ENDBRANCH   7   9
ENDBRANCH   3   7
BRANCH   1  17
ATOM     17  O   UNL     1      47.961   5.090  15.030  0.00  0.00    +0.000 OA
BRANCH  17  18
ATOM     18  C   UNL     1      47.158   4.130  15.703  0.00  0.00    +0.000 C 
BRANCH  18  19
ATOM     19  C   UNL     1      47.151   4.186  17.224  0.00  0.00    +0.000 C 
BRANCH  19  20
ATOM     20  N   UNL     1      46.741   2.865  17.722  0.00  0.00    +0.000 NA
ATOM     21  H   UNL     1      45.847   2.590  17.325  0.00  0.00    +0.000 HD
ATOM     22  H   UNL     1      46.624   2.879  18.738  0.00  0.00    +0.000 HD
ENDBRANCH  19  20
ENDBRANCH  18  19
ENDBRANCH  17  18
ENDBRANCH   1  17
BRANCH   6  23
ATOM     23  C   UNL     1      48.693   7.910  13.812  0.00  0.00    +0.000 C 
BRANCH  23  24
ATOM     24  N   UNL     1      50.014   7.442  14.107  0.00  0.00    +0.000 N 
ATOM     25  C   UNL     1      50.569   7.740  15.326  0.00  0.00    +0.000 C 
ATOM     26  O   UNL     1      49.947   8.318  16.215  0.00  0.00    +0.000 OA
ATOM     27  H   UNL     1      50.555   7.129  13.310  0.00  0.00    +0.000 HD
BRANCH  25  28
ATOM     28  C   UNL     1      51.924   7.264  15.536  0.00  0.00    +0.000 A 
ATOM     29  C   UNL     1      52.989   7.867  14.882  0.00  0.00    +0.000 A 
ATOM     30  S   UNL     1      54.502   7.272  15.397  0.00  0.00    +0.000 S 
ATOM     31  C   UNL     1      53.767   6.156  16.457  0.00  0.00    +0.000 A 
ATOM     32  N   UNL     1      54.508   5.338  17.253  0.00  0.00    +0.000 NA
ATOM     33  C   UNL     1      53.810   4.537  17.986  0.00  0.00    +0.000 A 
ATOM     34  N   UNL     1      52.439   4.456  17.978  0.00  0.00    +0.000 N 
ATOM     35  C   UNL     1      51.654   5.227  17.163  0.00  0.00    +0.000 A 
ATOM     36  O   UNL     1      50.437   5.073  17.120  0.00  0.00    +0.000 OA
ATOM     37  C   UNL     1      52.384   6.202  16.386  0.00  0.00    +0.000 A 
ATOM     38  H   UNL     1      51.951   3.781  18.547  0.00  0.00    +0.000 HD
ENDBRANCH  25  28
ENDBRANCH  23  24
ENDBRANCH   6  23
TORSDOF 10
ENDMDL
MODEL 4
REMARK VINA RESULT:    -6.939      3.470      9.202
REMARK INTER + INTRA:         -12.439
REMARK INTER:                 -10.429
REMARK INTRA:                  -2.010
REMARK UNBOUND:                -1.647
REMARK  Name = 
REMARK  10 active torsions:
REMARK  status: ('A' for Active; 'I' for Inactive)
REMARK    1  A    between atoms: N_1  and  C_2
REMARK    2  A    between atoms: C_2  and  C_3
REMARK    3  A    between atoms: C_3  and  O_4
REMARK    4  A    between atoms: O_4  and  C_5
REMARK    5  A    between atoms: C_7  and  N_8
REMARK    6  A    between atoms: N_8  and  C_9
REMARK    7  A    between atoms: C_9  and  C_10
REMARK    8  A    between atoms: C_18  and  C_19
REMARK    9  A    between atoms: C_19  and  N_20
REMARK   10  A    between atoms: C_21  and  C_23
REMARK                            x       y       z     vdW  Elec       q    Type
REMARK                         _______ _______ _______ _____ _____    ______ ____
ROOT
ATOM      1  C   UNL     1      49.636   4.251  17.501  0.00  0.00    +0.000 A 
ATOM      2  C   UNL     1      50.974   4.012  17.866  0.00  0.00    +0.000 A 
ATOM      3  C   UNL     1      51.574   2.760  17.692  0.00  0.00    +0.000 A 
ATOM      4  C   UNL     1      50.806   1.824  17.008  0.00  0.00    +0.000 A 
ATOM      5  N   UNL     1      49.508   1.974  16.676  0.00  0.00    +0.000 NA
ATOM      6  C   UNL     1      48.913   3.160  16.979  0.00  0.00    +0.000 A 
ENDROOT
BRANCH   3   7
ATOM      7  N   UNL     1      52.894   2.548  18.086  0.00  0.00    +0.000 N 
ATOM      8  H   UNL     1      53.548   2.420  17.321  0.00  0.00    +0.000 HD
BRANCH   7   9
ATOM      9  C   UNL     1      53.424   3.261  19.253  0.00  0.00    +0.000 C 
BRANCH   9  10
ATOM     10  C   UNL     1      54.879   3.727  19.055  0.00  0.00    +0.000 C 
ATOM     11  C   UNL     1      55.221   5.014  19.816  0.00  0.00    +0.000 C 
ATOM     12  C   UNL     1      54.470   6.217  19.248  0.00  0.00    +0.000 C 
ATOM     13  C   UNL     1      54.613   6.317  17.728  0.00  0.00    +0.000 C 
ATOM     14  N   UNL     1      54.300   5.057  17.047  0.00  0.00    +0.000 NA
ATOM     15  C   UNL     1      55.129   3.961  17.552  0.00  0.00    +0.000 C 
ATOM     16  H   UNL     1      54.452   5.170  16.045  0.00  0.00    +0.000 HD
ENDBRANCH   9  10
ENDBRANCH   7   9
ENDBRANCH   3   7
BRANCH   1  17
ATOM     17  O   UNL     1      49.243   5.561  17.709  0.00  0.00    +0.000 OA
BRANCH  17  18
ATOM     18  C   UNL     1      48.772   5.891  19.008  0.00  0.00    +0.000 C 
BRANCH  18  19
ATOM     19  C   UNL     1      47.409   6.563  19.094  0.00  0.00    +0.000 C 
BRANCH  19  20
ATOM     20  N   UNL     1      46.384   5.539  18.850  0.00  0.00    +0.000 NA
ATOM     21  H   UNL     1      46.793   4.710  18.426  0.00  0.00    +0.000 HD
ATOM     22  H   UNL     1      45.672   5.883  18.202  0.00  0.00    +0.000 HD
ENDBRANCH  19  20
ENDBRANCH  18  19
ENDBRANCH  17  18
ENDBRANCH   1  17
BRANCH   6  23
ATOM     23  C   UNL     1      47.439   3.186  16.670  0.00  0.00    +0.000 C 
BRANCH  23  24
ATOM     24  N   UNL     1      46.992   4.289  15.873  0.00  0.00    +0.000 N 
ATOM     25  C   UNL     1      46.945   4.149  14.509  0.00  0.00    +0.000 C 
ATOM     26  O   UNL     1      47.186   3.085  13.943  0.00  0.00    +0.000 OA
ATOM     27  H   UNL     1      46.971   5.187  16.342  0.00  0.00    +0.000 HD
BRANCH  25  28
ATOM     28  C   UNL     1      46.519   5.322  13.768  0.00  0.00    +0.000 A 
ATOM     29  C   UNL     1      47.339   6.439  13.691  0.00  0.00    +0.000 A 
ATOM     30  S   UNL     1      46.730   7.634  12.638  0.00  0.00    +0.000 S 
ATOM     31  C   UNL     1      45.332   6.713  12.310  0.00  0.00    +0.000 A 
ATOM     32  N   UNL     1      44.384   7.147  11.435  0.00  0.00    +0.000 NA
ATOM     33  C   UNL     1      43.376   6.350  11.306  0.00  0.00    +0.000 A 
ATOM     34  N   UNL     1      43.212   5.172  11.993  0.00  0.00    +0.000 N 
ATOM     35  C   UNL     1      44.117   4.717  12.915  0.00  0.00    +0.000 A 
ATOM     36  O   UNL     1      43.901   3.702  13.571  0.00  0.00    +0.000 OA
ATOM     37  C   UNL     1      45.305   5.530  13.031  0.00  0.00    +0.000 A 
ATOM     38  H   UNL     1      42.383   4.610  11.876  0.00  0.00    +0.000 HD
ENDBRANCH  25  28
ENDBRANCH  23  24
ENDBRANCH   6  23
TORSDOF 10
ENDMDL
MODEL 5
REMARK VINA RESULT:    -6.892      2.102      2.505
REMARK INTER + INTRA:         -12.367
REMARK INTER:                 -10.685
REMARK INTRA:                  -1.682
REMARK UNBOUND:                -1.647
REMARK  Name = 
REMARK  10 active torsions:
REMARK  status: ('A' for Active; 'I' for Inactive)
REMARK    1  A    between atoms: N_1  and  C_2
REMARK    2  A    between atoms: C_2  and  C_3
REMARK    3  A    between atoms: C_3  and  O_4
REMARK    4  A    between atoms: O_4  and  C_5
REMARK    5  A    between atoms: C_7  and  N_8
REMARK    6  A    between atoms: N_8  and  C_9
REMARK    7  A    between atoms: C_9  and  C_10
REMARK    8  A    between atoms: C_18  and  C_19
REMARK    9  A    between atoms: C_19  and  N_20
REMARK   10  A    between atoms: C_21  and  C_23
REMARK                            x       y       z     vdW  Elec       q    Type
REMARK                         _______ _______ _______ _____ _____    ______ ____
ROOT
ATOM      1  C   UNL     1      46.707   5.670  13.104  0.00  0.00    +0.000 A 
ATOM      2  C   UNL     1      46.231   5.886  11.798  0.00  0.00    +0.000 A 
ATOM      3  C   UNL     1      45.467   4.928  11.123  0.00  0.00    +0.000 A 
ATOM      4  C   UNL     1      45.096   3.824  11.882  0.00  0.00    +0.000 A 
ATOM      5  N   UNL     1      45.556   3.536  13.116  0.00  0.00    +0.000 NA
ATOM      6  C   UNL     1      46.406   4.427  13.695  0.00  0.00    +0.000 A 
ENDROOT
BRANCH   3   7
ATOM      7  N   UNL     1      45.029   5.162   9.820  0.00  0.00    +0.000 N 
ATOM      8  H   UNL     1      44.491   6.014   9.702  0.00  0.00    +0.000 HD
BRANCH   7   9
ATOM      9  C   UNL     1      45.894   4.803   8.692  0.00  0.00    +0.000 C 
BRANCH   9  10
ATOM     10  C   UNL     1      45.195   3.879   7.677  0.00  0.00    +0.000 C 
ATOM     11  C   UNL     1      44.553   2.640   8.316  0.00  0.00    +0.000 C 
ATOM     12  C   UNL     1      45.608   1.686   8.871  0.00  0.00    +0.000 C 
ATOM     13  C   UNL     1      46.703   1.382   7.846  0.00  0.00    +0.000 C 
ATOM     14  N   UNL     1      47.268   2.593   7.246  0.00  0.00    +0.000 NA
ATOM     15  C   UNL     1      46.225   3.415   6.629  0.00  0.00    +0.000 C 
ATOM     16  H   UNL     1      47.959   2.330   6.544  0.00  0.00    +0.000 HD
ENDBRANCH   9  10
ENDBRANCH   7   9
ENDBRANCH   3   7
BRANCH   1  17
ATOM     17  O   UNL     1      47.403   6.752  13.614  0.00  0.00    +0.000 OA
BRANCH  17  18
ATOM     18  C   UNL     1      48.043   7.604  12.673  0.00  0.00    +0.000 C 
BRANCH  18  19
ATOM     19  C   UNL     1      49.509   7.323  12.378  0.00  0.00    +0.000 C 
BRANCH  19  20
ATOM     20  N   UNL     1      50.046   8.467  11.628  0.00  0.00    +0.000 NA
ATOM     21  H   UNL     1      50.986   8.695  11.937  0.00  0.00    +0.000 HD
ATOM     22  H   UNL     1      49.473   9.301  11.777  0.00  0.00    +0.000 HD
ENDBRANCH  19  20
ENDBRANCH  18  19
ENDBRANCH  17  18
ENDBRANCH   1  17
BRANCH   6  23
ATOM     23  C   UNL     1      46.950   3.961  15.021  0.00  0.00    +0.000 C 
BRANCH  23  24
ATOM     24  N   UNL     1      47.347   4.997  15.926  0.00  0.00    +0.000 N 
ATOM     25  C   UNL     1      47.643   4.668  17.225  0.00  0.00    +0.000 C 
ATOM     26  O   UNL     1      47.669   3.507  17.626  0.00  0.00    +0.000 OA
ATOM     27  H   UNL     1      47.149   5.943  15.622  0.00  0.00    +0.000 HD
BRANCH  25  28
ATOM     28  C   UNL     1      48.000   5.777  18.091  0.00  0.00    +0.000 A 
ATOM     29  C   UNL     1      47.230   6.072  19.207  0.00  0.00    +0.000 A 
ATOM     30  S   UNL     1      47.915   7.296  20.178  0.00  0.00    +0.000 S 
ATOM     31  C   UNL     1      49.220   7.500  19.099  0.00  0.00    +0.000 A 
ATOM     32  N   UNL     1      50.220   8.387  19.352  0.00  0.00    +0.000 NA
ATOM     33  C   UNL     1      51.127   8.442  18.435  0.00  0.00    +0.000 A 
ATOM     34  N   UNL     1      51.113   7.713  17.270  0.00  0.00    +0.000 N 
ATOM     35  C   UNL     1      50.105   6.842  16.952  0.00  0.00    +0.000 A 
ATOM     36  O   UNL     1      50.081   6.268  15.867  0.00  0.00    +0.000 OA
ATOM     37  C   UNL     1      49.112   6.680  17.987  0.00  0.00    +0.000 A 
ATOM     38  H   UNL     1      51.832   7.828  16.573  0.00  0.00    +0.000 HD
ENDBRANCH  25  28
ENDBRANCH  23  24
ENDBRANCH   6  23
TORSDOF 10
ENDMDL
MODEL 6
REMARK VINA RESULT:    -6.785      2.404      3.412
REMARK INTER + INTRA:         -12.201
REMARK INTER:                 -10.732
REMARK INTRA:                  -1.469
REMARK UNBOUND:                -1.647
REMARK  Name = 
REMARK  10 active torsions:
REMARK  status: ('A' for Active; 'I' for Inactive)
REMARK    1  A    between atoms: N_1  and  C_2
REMARK    2  A    between atoms: C_2  and  C_3
REMARK    3  A    between atoms: C_3  and  O_4
REMARK    4  A    between atoms: O_4  and  C_5
REMARK    5  A    between atoms: C_7  and  N_8
REMARK    6  A    between atoms: N_8  and  C_9
REMARK    7  A    between atoms: C_9  and  C_10
REMARK    8  A    between atoms: C_18  and  C_19
REMARK    9  A    between atoms: C_19  and  N_20
REMARK   10  A    between atoms: C_21  and  C_23
REMARK                            x       y       z     vdW  Elec       q    Type
REMARK                         _______ _______ _______ _____ _____    ______ ____
ROOT
ATOM      1  C   UNL     1      46.836   7.021  12.864  0.00  0.00    +0.000 A 
ATOM      2  C   UNL     1      45.825   6.229  12.289  0.00  0.00    +0.000 A 
ATOM      3  C   UNL     1      45.694   4.869  12.587  0.00  0.00    +0.000 A 
ATOM      4  C   UNL     1      46.533   4.397  13.589  0.00  0.00    +0.000 A 
ATOM      5  N   UNL     1      47.549   5.089  14.144  0.00  0.00    +0.000 NA
ATOM      6  C   UNL     1      47.735   6.373  13.735  0.00  0.00    +0.000 A 
ENDROOT
BRANCH   3   7
ATOM      7  N   UNL     1      44.696   4.106  11.981  0.00  0.00    +0.000 N 
ATOM      8  H   UNL     1      43.876   4.631  11.696  0.00  0.00    +0.000 HD
BRANCH   7   9
ATOM      9  C   UNL     1      45.070   2.997  11.097  0.00  0.00    +0.000 C 
BRANCH   9  10
ATOM     10  C   UNL     1      44.208   2.938   9.821  0.00  0.00    +0.000 C 
ATOM     11  C   UNL     1      44.727   1.942   8.775  0.00  0.00    +0.000 C 
ATOM     12  C   UNL     1      46.059   2.395   8.183  0.00  0.00    +0.000 C 
ATOM     13  C   UNL     1      46.012   3.850   7.711  0.00  0.00    +0.000 C 
ATOM     14  N   UNL     1      45.488   4.760   8.734  0.00  0.00    +0.000 NA
ATOM     15  C   UNL     1      44.159   4.340   9.184  0.00  0.00    +0.000 C 
ATOM     16  H   UNL     1      45.440   5.704   8.352  0.00  0.00    +0.000 HD
ENDBRANCH   9  10
ENDBRANCH   7   9
ENDBRANCH   3   7
BRANCH   1  17
ATOM     17  O   UNL     1      46.770   8.348  12.480  0.00  0.00    +0.000 OA
BRANCH  17  18
ATOM     18  C   UNL     1      45.580   9.053  12.806  0.00  0.00    +0.000 C 
BRANCH  18  19
ATOM     19  C   UNL     1      44.986   9.938  11.719  0.00  0.00    +0.000 C 
BRANCH  19  20
ATOM     20  N   UNL     1      43.661  10.382  12.174  0.00  0.00    +0.000 NA
ATOM     21  H   UNL     1      43.048  10.565  11.384  0.00  0.00    +0.000 HD
ATOM     22  H   UNL     1      43.731  11.253  12.704  0.00  0.00    +0.000 HD
ENDBRANCH  19  20
ENDBRANCH  18  19
ENDBRANCH  17  18
ENDBRANCH   1  17
BRANCH   6  23
ATOM     23  C   UNL     1      48.959   7.019  14.328  0.00  0.00    +0.000 C 
BRANCH  23  24
ATOM     24  N   UNL     1      49.071   6.942  15.754  0.00  0.00    +0.000 N 
ATOM     25  C   UNL     1      50.319   6.865  16.320  0.00  0.00    +0.000 C 
ATOM     26  O   UNL     1      51.353   6.949  15.660  0.00  0.00    +0.000 OA
ATOM     27  H   UNL     1      48.220   6.702  16.247  0.00  0.00    +0.000 HD
BRANCH  25  28
ATOM     28  C   UNL     1      50.350   6.751  17.766  0.00  0.00    +0.000 A 
ATOM     29  C   UNL     1      50.956   7.734  18.535  0.00  0.00    +0.000 A 
ATOM     30  S   UNL     1      50.732   7.495  20.209  0.00  0.00    +0.000 S 
ATOM     31  C   UNL     1      49.873   6.045  19.945  0.00  0.00    +0.000 A 
ATOM     32  N   UNL     1      49.349   5.331  20.978  0.00  0.00    +0.000 NA
ATOM     33  C   UNL     1      48.743   4.248  20.622  0.00  0.00    +0.000 A 
ATOM     34  N   UNL     1      48.637   3.795  19.329  0.00  0.00    +0.000 N 
ATOM     35  C   UNL     1      49.185   4.457  18.262  0.00  0.00    +0.000 A 
ATOM     36  O   UNL     1      49.143   3.984  17.131  0.00  0.00    +0.000 OA
ATOM     37  C   UNL     1      49.798   5.720  18.600  0.00  0.00    +0.000 A 
ATOM     38  H   UNL     1      48.183   2.920  19.118  0.00  0.00    +0.000 HD
ENDBRANCH  25  28
ENDBRANCH  23  24
ENDBRANCH   6  23
TORSDOF 10
ENDMDL
MODEL 7
REMARK VINA RESULT:    -6.673      2.494      4.027
REMARK INTER + INTRA:         -12.026
REMARK INTER:                 -10.334
REMARK INTRA:                  -1.692
REMARK UNBOUND:                -1.647
REMARK  Name = 
REMARK  10 active torsions:
REMARK  status: ('A' for Active; 'I' for Inactive)
REMARK    1  A    between atoms: N_1  and  C_2
REMARK    2  A    between atoms: C_2  and  C_3
REMARK    3  A    between atoms: C_3  and  O_4
REMARK    4  A    between atoms: O_4  and  C_5
REMARK    5  A    between atoms: C_7  and  N_8
REMARK    6  A    between atoms: N_8  and  C_9
REMARK    7  A    between atoms: C_9  and  C_10
REMARK    8  A    between atoms: C_18  and  C_19
REMARK    9  A    between atoms: C_19  and  N_20
REMARK   10  A    between atoms: C_21  and  C_23
REMARK                            x       y       z     vdW  Elec       q    Type
REMARK                         _______ _______ _______ _____ _____    ______ ____
ROOT
ATOM      1  C   UNL     1      48.225   5.871  14.757  0.00  0.00    +0.000 A 
ATOM      2  C   UNL     1      47.350   5.854  13.655  0.00  0.00    +0.000 A 
ATOM      3  C   UNL     1      47.272   6.924  12.758  0.00  0.00    +0.000 A 
ATOM      4  C   UNL     1      48.212   7.930  12.951  0.00  0.00    +0.000 A 
ATOM      5  N   UNL     1      49.042   8.028  14.009  0.00  0.00    +0.000 NA
ATOM      6  C   UNL     1      49.001   7.034  14.937  0.00  0.00    +0.000 A 
ENDROOT
BRANCH   3   7
ATOM      7  N   UNL     1      46.377   6.887  11.690  0.00  0.00    +0.000 N 
ATOM      8  H   UNL     1      46.530   7.600  10.985  0.00  0.00    +0.000 HD
BRANCH   7   9
ATOM      9  C   UNL     1      45.910   5.593  11.182  0.00  0.00    +0.000 C 
BRANCH   9  10
ATOM     10  C   UNL     1      44.383   5.551  10.977  0.00  0.00    +0.000 C 
ATOM     11  C   UNL     1      43.586   5.576  12.288  0.00  0.00    +0.000 C 
ATOM     12  C   UNL     1      43.788   4.293  13.091  0.00  0.00    +0.000 C 
ATOM     13  C   UNL     1      43.574   3.042  12.237  0.00  0.00    +0.000 C 
ATOM     14  N   UNL     1      44.336   3.074  10.985  0.00  0.00    +0.000 NA
ATOM     15  C   UNL     1      44.018   4.270  10.202  0.00  0.00    +0.000 C 
ATOM     16  H   UNL     1      44.123   2.239  10.440  0.00  0.00    +0.000 HD
ENDBRANCH   9  10
ENDBRANCH   7   9
ENDBRANCH   3   7
BRANCH   1  17
ATOM     17  O   UNL     1      48.189   4.703  15.498  0.00  0.00    +0.000 OA
BRANCH  17  18
ATOM     18  C   UNL     1      46.961   4.389  16.141  0.00  0.00    +0.000 C 
BRANCH  18  19
ATOM     19  C   UNL     1      47.020   4.107  17.635  0.00  0.00    +0.000 C 
BRANCH  19  20
ATOM     20  N   UNL     1      46.717   2.683  17.838  0.00  0.00    +0.000 NA
ATOM     21  H   UNL     1      47.101   2.352  18.718  0.00  0.00    +0.000 HD
ATOM     22  H   UNL     1      47.134   2.114  17.098  0.00  0.00    +0.000 HD
ENDBRANCH  19  20
ENDBRANCH  18  19
ENDBRANCH  17  18
ENDBRANCH   1  17
BRANCH   6  23
ATOM     23  C   UNL     1      49.881   7.293  16.131  0.00  0.00    +0.000 C 
BRANCH  23  24
ATOM     24  N   UNL     1      50.917   6.331  16.359  0.00  0.00    +0.000 N 
ATOM     25  C   UNL     1      50.876   5.567  17.498  0.00  0.00    +0.000 C 
ATOM     26  O   UNL     1      49.940   5.610  18.293  0.00  0.00    +0.000 OA
ATOM     27  H   UNL     1      51.748   6.440  15.790  0.00  0.00    +0.000 HD
BRANCH  25  28
ATOM     28  C   UNL     1      51.981   4.642  17.677  0.00  0.00    +0.000 A 
ATOM     29  C   UNL     1      53.261   5.117  17.923  0.00  0.00    +0.000 A 
ATOM     30  S   UNL     1      54.372   3.870  18.271  0.00  0.00    +0.000 S 
ATOM     31  C   UNL     1      53.183   2.668  18.041  0.00  0.00    +0.000 A 
ATOM     32  N   UNL     1      53.461   1.349  18.224  0.00  0.00    +0.000 NA
ATOM     33  C   UNL     1      52.465   0.560  17.995  0.00  0.00    +0.000 A 
ATOM     34  N   UNL     1      51.223   0.964  17.571  0.00  0.00    +0.000 N 
ATOM     35  C   UNL     1      50.910   2.276  17.331  0.00  0.00    +0.000 A 
ATOM     36  O   UNL     1      49.816   2.595  16.874  0.00  0.00    +0.000 OA
ATOM     37  C   UNL     1      51.965   3.206  17.657  0.00  0.00    +0.000 A 
ATOM     38  H   UNL     1      50.495   0.295  17.372  0.00  0.00    +0.000 HD
ENDBRANCH  25  28
ENDBRANCH  23  24
ENDBRANCH   6  23
TORSDOF 10
ENDMDL
MODEL 8
REMARK VINA RESULT:    -6.655      3.059      8.882
REMARK INTER + INTRA:         -11.998
REMARK INTER:                 -10.454
REMARK INTRA:                  -1.544
REMARK UNBOUND:                -1.647
REMARK  Name = 
REMARK  10 active torsions:
REMARK  status: ('A' for Active; 'I' for Inactive)
REMARK    1  A    between atoms: N_1  and  C_2
REMARK    2  A    between atoms: C_2  and  C_3
REMARK    3  A    between atoms: C_3  and  O_4
REMARK    4  A    between atoms: O_4  and  C_5
REMARK    5  A    between atoms: C_7  and  N_8
REMARK    6  A    between atoms: N_8  and  C_9
REMARK    7  A    between atoms: C_9  and  C_10
REMARK    8  A    between atoms: C_18  and  C_19
REMARK    9  A    between atoms: C_19  and  N_20
REMARK   10  A    between atoms: C_21  and  C_23
REMARK                            x       y       z     vdW  Elec       q    Type
REMARK                         _______ _______ _______ _____ _____    ______ ____
ROOT
ATOM      1  C   UNL     1      49.177   4.903  17.098  0.00  0.00    +0.000 A 
ATOM      2  C   UNL     1      49.857   3.852  17.740  0.00  0.00    +0.000 A 
ATOM      3  C   UNL     1      51.249   3.847  17.876  0.00  0.00    +0.000 A 
ATOM      4  C   UNL     1      51.889   5.010  17.464  0.00  0.00    +0.000 A 
ATOM      5  N   UNL     1      51.305   6.028  16.801  0.00  0.00    +0.000 NA
ATOM      6  C   UNL     1      49.967   5.942  16.566  0.00  0.00    +0.000 A 
ENDROOT
BRANCH   3   7
ATOM      7  N   UNL     1      51.894   2.778  18.497  0.00  0.00    +0.000 N 
ATOM      8  H   UNL     1      51.417   2.414  19.315  0.00  0.00    +0.000 HD
BRANCH   7   9
ATOM      9  C   UNL     1      52.591   1.780  17.679  0.00  0.00    +0.000 C 
BRANCH   9  10
ATOM     10  C   UNL     1      54.124   1.913  17.755  0.00  0.00    +0.000 C 
ATOM     11  C   UNL     1      54.861   1.169  16.633  0.00  0.00    +0.000 C 
ATOM     12  C   UNL     1      54.712  -0.344  16.772  0.00  0.00    +0.000 C 
ATOM     13  C   UNL     1      55.046  -0.826  18.185  0.00  0.00    +0.000 C 
ATOM     14  N   UNL     1      54.338  -0.071  19.223  0.00  0.00    +0.000 NA
ATOM     15  C   UNL     1      54.607   1.364  19.111  0.00  0.00    +0.000 C 
ATOM     16  H   UNL     1      54.629  -0.406  20.141  0.00  0.00    +0.000 HD
ENDBRANCH   9  10
ENDBRANCH   7   9
ENDBRANCH   3   7
BRANCH   1  17
ATOM     17  O   UNL     1      47.803   4.746  17.105  0.00  0.00    +0.000 OA
BRANCH  17  18
ATOM     18  C   UNL     1      47.157   4.809  18.369  0.00  0.00    +0.000 C 
BRANCH  18  19
ATOM     19  C   UNL     1      47.350   6.083  19.178  0.00  0.00    +0.000 C 
BRANCH  19  20
ATOM     20  N   UNL     1      47.122   5.759  20.593  0.00  0.00    +0.000 NA
ATOM     21  H   UNL     1      47.905   6.062  21.165  0.00  0.00    +0.000 HD
ATOM     22  H   UNL     1      47.031   4.749  20.725  0.00  0.00    +0.000 HD
ENDBRANCH  19  20
ENDBRANCH  18  19
ENDBRANCH  17  18
ENDBRANCH   1  17
BRANCH   6  23
ATOM     23  C   UNL     1      49.434   7.071  15.724  0.00  0.00    +0.000 C 
BRANCH  23  24
ATOM     24  N   UNL     1      48.207   6.804  15.035  0.00  0.00    +0.000 N 
ATOM     25  C   UNL     1      48.227   6.661  13.670  0.00  0.00    +0.000 C 
ATOM     26  O   UNL     1      49.269   6.663  13.018  0.00  0.00    +0.000 OA
ATOM     27  H   UNL     1      47.361   6.980  15.565  0.00  0.00    +0.000 HD
BRANCH  25  28
ATOM     28  C   UNL     1      46.940   6.430  13.041  0.00  0.00    +0.000 A 
ATOM     29  C   UNL     1      46.207   7.493  12.532  0.00  0.00    +0.000 A 
ATOM     30  S   UNL     1      44.813   6.990  11.687  0.00  0.00    +0.000 S 
ATOM     31  C   UNL     1      45.126   5.350  12.034  0.00  0.00    +0.000 A 
ATOM     32  N   UNL     1      44.321   4.359  11.564  0.00  0.00    +0.000 NA
ATOM     33  C   UNL     1      44.675   3.171  11.925  0.00  0.00    +0.000 A 
ATOM     34  N   UNL     1      45.744   2.882  12.738  0.00  0.00    +0.000 N 
ATOM     35  C   UNL     1      46.555   3.849  13.271  0.00  0.00    +0.000 A 
ATOM     36  O   UNL     1      47.451   3.564  14.059  0.00  0.00    +0.000 OA
ATOM     37  C   UNL     1      46.252   5.188  12.825  0.00  0.00    +0.000 A 
ATOM     38  H   UNL     1      45.948   1.935  13.017  0.00  0.00    +0.000 HD
ENDBRANCH  25  28
ENDBRANCH  23  24
ENDBRANCH   6  23
TORSDOF 10
ENDMDL
MODEL 9
REMARK VINA RESULT:    -6.580      2.826      4.582
REMARK INTER + INTRA:         -11.881
REMARK INTER:                 -10.080
REMARK INTRA:                  -1.801
REMARK UNBOUND:                -1.647
REMARK  Name = 
REMARK  10 active torsions:
REMARK  status: ('A' for Active; 'I' for Inactive)
REMARK    1  A    between atoms: N_1  and  C_2
REMARK    2  A    between atoms: C_2  and  C_3
REMARK    3  A    between atoms: C_3  and  O_4
REMARK    4  A    between atoms: O_4  and  C_5
REMARK    5  A    between atoms: C_7  and  N_8
REMARK    6  A    between atoms: N_8  and  C_9
REMARK    7  A    between atoms: C_9  and  C_10
REMARK    8  A    between atoms: C_18  and  C_19
REMARK    9  A    between atoms: C_19  and  N_20
REMARK   10  A    between atoms: C_21  and  C_23
REMARK                            x       y       z     vdW  Elec       q    Type
REMARK                         _______ _______ _______ _____ _____    ______ ____
ROOT
ATOM      1  C   UNL     1      47.254   5.463  14.029  0.00  0.00    +0.000 A 
ATOM      2  C   UNL     1      46.327   4.654  13.347  0.00  0.00    +0.000 A 
ATOM      3  C   UNL     1      45.645   5.108  12.214  0.00  0.00    +0.000 A 
ATOM      4  C   UNL     1      46.051   6.347  11.733  0.00  0.00    +0.000 A 
ATOM      5  N   UNL     1      46.896   7.188  12.363  0.00  0.00    +0.000 NA
ATOM      6  C   UNL     1      47.444   6.770  13.537  0.00  0.00    +0.000 A 
ENDROOT
BRANCH   3   7
ATOM      7  N   UNL     1      44.714   4.290  11.574  0.00  0.00    +0.000 N 
ATOM      8  H   UNL     1      43.943   4.787  11.140  0.00  0.00    +0.000 HD
BRANCH   7   9
ATOM      9  C   UNL     1      45.171   3.094  10.860  0.00  0.00    +0.000 C 
BRANCH   9  10
ATOM     10  C   UNL     1      44.397   2.851   9.550  0.00  0.00    +0.000 C 
ATOM     11  C   UNL     1      45.028   1.775   8.656  0.00  0.00    +0.000 C 
ATOM     12  C   UNL     1      46.374   2.229   8.096  0.00  0.00    +0.000 C 
ATOM     13  C   UNL     1      46.292   3.620   7.463  0.00  0.00    +0.000 C 
ATOM     14  N   UNL     1      45.662   4.607   8.344  0.00  0.00    +0.000 NA
ATOM     15  C   UNL     1      44.327   4.171   8.759  0.00  0.00    +0.000 C 
ATOM     16  H   UNL     1      45.596   5.500   7.857  0.00  0.00    +0.000 HD
ENDBRANCH   9  10
ENDBRANCH   7   9
ENDBRANCH   3   7
BRANCH   1  17
ATOM     17  O   UNL     1      47.856   4.819  15.095  0.00  0.00    +0.000 OA
BRANCH  17  18
ATOM     18  C   UNL     1      47.208   3.655  15.591  0.00  0.00    +0.000 C 
BRANCH  18  19
ATOM     19  C   UNL     1      47.460   3.296  17.048  0.00  0.00    +0.000 C 
BRANCH  19  20
ATOM     20  N   UNL     1      46.809   4.316  17.883  0.00  0.00    +0.000 NA
ATOM     21  H   UNL     1      47.487   4.993  18.223  0.00  0.00    +0.000 HD
ATOM     22  H   UNL     1      46.377   3.890  18.706  0.00  0.00    +0.000 HD
ENDBRANCH  19  20
ENDBRANCH  18  19
ENDBRANCH  17  18
ENDBRANCH   1  17
BRANCH   6  23
ATOM     23  C   UNL     1      48.280   7.822  14.215  0.00  0.00    +0.000 C 
BRANCH  23  24
ATOM     24  N   UNL     1      48.272   7.792  15.647  0.00  0.00    +0.000 N 
ATOM     25  C   UNL     1      49.438   7.507  16.313  0.00  0.00    +0.000 C 
ATOM     26  O   UNL     1      50.513   7.363  15.737  0.00  0.00    +0.000 OA
ATOM     27  H   UNL     1      47.357   7.739  16.078  0.00  0.00    +0.000 HD
BRANCH  25  28
ATOM     28  C   UNL     1      49.341   7.457  17.761  0.00  0.00    +0.000 A 
ATOM     29  C   UNL     1      49.775   6.336  18.455  0.00  0.00    +0.000 A 
ATOM     30  S   UNL     1      49.732   6.549  20.146  0.00  0.00    +0.000 S 
ATOM     31  C   UNL     1      49.077   8.117  19.990  0.00  0.00    +0.000 A 
ATOM     32  N   UNL     1      48.825   8.893  21.078  0.00  0.00    +0.000 NA
ATOM     33  C   UNL     1      48.314  10.046  20.800  0.00  0.00    +0.000 A 
ATOM     34  N   UNL     1      48.002  10.485  19.536  0.00  0.00    +0.000 N 
ATOM     35  C   UNL     1      48.197   9.721  18.416  0.00  0.00    +0.000 A 
ATOM     36  O   UNL     1      47.833  10.110  17.310  0.00  0.00    +0.000 OA
ATOM     37  C   UNL     1      48.849   8.457  18.666  0.00  0.00    +0.000 A 
ATOM     38  H   UNL     1      47.569  11.382  19.387  0.00  0.00    +0.000 HD
ENDBRANCH  25  28
ENDBRANCH  23  24
ENDBRANCH   6  23
TORSDOF 10
ENDMDL
