MODEL 1
REMARK VINA RESULT:    -8.286      0.000      0.000
REMARK INTER + INTRA:         -13.160
REMARK INTER:                 -11.919
REMARK INTRA:                  -1.241
REMARK UNBOUND:                -1.241
REMARK  Name = 
REMARK  8 active torsions:
REMARK  status: ('A' for Active; 'I' for Inactive)
REMARK    1  A    between atoms: C_2  and  C_21
REMARK    2  A    between atoms: N_3  and  C_4
REMARK    3  A    between atoms: C_4  and  C_5
REMARK    4  A    between atoms: C_8  and  C_9
REMARK    5  A    between atoms: C_9  and  C_10
REMARK    6  A    between atoms: C_10  and  C_11
REMARK    7  A    between atoms: C_11  and  O_12
REMARK    8  A    between atoms: C_11  and  C_13
REMARK                            x       y       z     vdW  Elec       q    Type
REMARK                         _______ _______ _______ _____ _____    ______ ____
ROOT
ATOM      1  C   UNL     1      46.202   7.101  12.479  0.00  0.00    +0.000 A 
ATOM      2  C   UNL     1      46.661   6.641  11.244  0.00  0.00    +0.000 A 
ATOM      3  C   UNL     1      45.872   5.778  10.490  0.00  0.00    +0.000 A 
ATOM      4  C   UNL     1      44.621   5.413  10.978  0.00  0.00    +0.000 A 
ATOM      5  N   UNL     1      44.139   5.875  12.155  0.00  0.00    +0.000 NA
ATOM      6  C   UNL     1      44.931   6.703  12.874  0.00  0.00    +0.000 A 
ENDROOT
BRANCH   1   7
ATOM      7  C   UNL     1      47.044   7.999  13.334  0.00  0.00    +0.000 C 
BRANCH   7  10
ATOM      8  O   UNL     1      49.619   6.949  13.784  0.00  0.00    +0.000 OA
ATOM      9  C   UNL     1      48.780   6.871  14.677  0.00  0.00    +0.000 C 
ATOM     10  N   UNL     1      47.498   7.329  14.524  0.00  0.00    +0.000 N 
ATOM     11  H   UNL     1      46.901   7.408  15.339  0.00  0.00    +0.000 HD
BRANCH   9  12
ATOM     12  C   UNL     1      49.082   6.223  15.958  0.00  0.00    +0.000 A 
ATOM     13  C   UNL     1      50.067   6.745  16.784  0.00  0.00    +0.000 A 
ATOM     14  S   UNL     1      50.284   5.861  18.228  0.00  0.00    +0.000 S 
ATOM     15  C   UNL     1      49.040   4.776  17.817  0.00  0.00    +0.000 A 
ATOM     16  N   UNL     1      48.678   3.768  18.656  0.00  0.00    +0.000 NA
ATOM     17  C   UNL     1      47.696   3.046  18.235  0.00  0.00    +0.000 A 
ATOM     18  N   UNL     1      47.049   3.227  17.037  0.00  0.00    +0.000 N 
ATOM     19  C   UNL     1      47.432   4.177  16.127  0.00  0.00    +0.000 A 
ATOM     20  O   UNL     1      46.930   4.224  15.007  0.00  0.00    +0.000 OA
ATOM     21  C   UNL     1      48.494   5.059  16.579  0.00  0.00    +0.000 A 
ATOM     22  H   UNL     1      46.310   2.599  16.752  0.00  0.00    +0.000 HD
ENDBRANCH   9  12
ENDBRANCH   7  10
ENDBRANCH   1   7
BRANCH   4  23
ATOM     23  C   UNL     1      43.752   4.446  10.217  0.00  0.00    +0.000 C 
BRANCH  23  24
ATOM     24  C   UNL     1      44.297   4.088   8.831  0.00  0.00    +0.000 C 
BRANCH  24  25
ATOM     25  C   UNL     1      44.777   2.638   8.674  0.00  0.00    +0.000 C 
BRANCH  25  26
ATOM     26  C   UNL     1      45.924   2.504   7.696  0.00  0.00    +0.000 A 
ATOM     27  C   UNL     1      46.757   1.390   7.728  0.00  0.00    +0.000 A 
ATOM     28  N   UNL     1      47.765   1.200   6.844  0.00  0.00    +0.000 NA
ATOM     29  C   UNL     1      47.929   2.185   5.934  0.00  0.00    +0.000 A 
ATOM     30  C   UNL     1      47.129   3.314   5.913  0.00  0.00    +0.000 A 
ATOM     31  N   UNL     1      46.116   3.504   6.791  0.00  0.00    +0.000 NA
ENDBRANCH  25  26
BRANCH  25  32
ATOM     32  O   UNL     1      45.220   2.185   9.962  0.00  0.00    +0.000 OA
ATOM     33  H   UNL     1      45.588   2.973  10.407  0.00  0.00    +0.000 HD
ENDBRANCH  25  32
ENDBRANCH  24  25
ENDBRANCH  23  24
ENDBRANCH   4  23
TORSDOF 8
ENDMDL
MODEL 2
REMARK VINA RESULT:    -7.875      2.895      3.816
REMARK INTER + INTRA:         -12.569
REMARK INTER:                 -11.527
REMARK INTRA:                  -1.042
REMARK UNBOUND:                -1.241
REMARK  Name = 
REMARK  8 active torsions:
REMARK  status: ('A' for Active; 'I' for Inactive)
REMARK    1  A    between atoms: C_2  and  C_21
REMARK    2  A    between atoms: N_3  and  C_4
REMARK    3  A    between atoms: C_4  and  C_5
REMARK    4  A    between atoms: C_8  and  C_9
REMARK    5  A    between atoms: C_9  and  C_10
REMARK    6  A    between atoms: C_10  and  C_11
REMARK    7  A    between atoms: C_11  and  O_12
REMARK    8  A    between atoms: C_11  and  C_13
REMARK                            x       y       z     vdW  Elec       q    Type
REMARK                         _______ _______ _______ _____ _____    ______ ____
ROOT
ATOM      1  C   UNL     1      48.085   5.829  15.231  0.00  0.00    +0.000 A 
ATOM      2  C   UNL     1      47.854   6.261  13.925  0.00  0.00    +0.000 A 
ATOM      3  C   UNL     1      47.044   5.508  13.080  0.00  0.00    +0.000 A 
ATOM      4  C   UNL     1      46.456   4.346  13.572  0.00  0.00    +0.000 A 
ATOM      5  N   UNL     1      46.637   3.927  14.846  0.00  0.00    +0.000 NA
ATOM      6  C   UNL     1      47.439   4.670  15.642  0.00  0.00    +0.000 A 
ENDROOT
BRANCH   1   7
ATOM      7  C   UNL     1      48.985   6.595  16.153  0.00  0.00    +0.000 C 
BRANCH   7  10
ATOM      8  O   UNL     1      49.446   5.903  18.844  0.00  0.00    +0.000 OA
ATOM      9  C   UNL     1      50.196   5.460  17.979  0.00  0.00    +0.000 C 
ATOM     10  N   UNL     1      50.057   5.775  16.653  0.00  0.00    +0.000 N 
ATOM     11  H   UNL     1      50.579   5.248  15.962  0.00  0.00    +0.000 HD
BRANCH   9  12
ATOM     12  C   UNL     1      51.336   4.601  18.320  0.00  0.00    +0.000 A 
ATOM     13  C   UNL     1      52.377   5.102  19.087  0.00  0.00    +0.000 A 
ATOM     14  S   UNL     1      53.615   3.964  19.381  0.00  0.00    +0.000 S 
ATOM     15  C   UNL     1      52.781   2.752  18.526  0.00  0.00    +0.000 A 
ATOM     16  N   UNL     1      53.284   1.493  18.420  0.00  0.00    +0.000 NA
ATOM     17  C   UNL     1      52.529   0.666  17.778  0.00  0.00    +0.000 A 
ATOM     18  N   UNL     1      51.319   0.989  17.213  0.00  0.00    +0.000 N 
ATOM     19  C   UNL     1      50.814   2.262  17.227  0.00  0.00    +0.000 A 
ATOM     20  O   UNL     1      49.803   2.552  16.593  0.00  0.00    +0.000 OA
ATOM     21  C   UNL     1      51.594   3.218  17.991  0.00  0.00    +0.000 A 
ATOM     22  H   UNL     1      50.796   0.299  16.691  0.00  0.00    +0.000 HD
ENDBRANCH   9  12
ENDBRANCH   7  10
ENDBRANCH   1   7
BRANCH   4  23
ATOM     23  C   UNL     1      45.609   3.477  12.680  0.00  0.00    +0.000 C 
BRANCH  23  24
ATOM     24  C   UNL     1      44.264   4.105  12.307  0.00  0.00    +0.000 C 
BRANCH  24  25
ATOM     25  C   UNL     1      43.537   3.437  11.130  0.00  0.00    +0.000 C 
BRANCH  25  26
ATOM     26  C   UNL     1      44.404   3.319   9.896  0.00  0.00    +0.000 A 
ATOM     27  C   UNL     1      44.769   4.451   9.174  0.00  0.00    +0.000 A 
ATOM     28  N   UNL     1      45.583   4.403   8.093  0.00  0.00    +0.000 NA
ATOM     29  C   UNL     1      46.003   3.168   7.740  0.00  0.00    +0.000 A 
ATOM     30  C   UNL     1      45.620   2.031   8.430  0.00  0.00    +0.000 A 
ATOM     31  N   UNL     1      44.812   2.076   9.516  0.00  0.00    +0.000 NA
ENDBRANCH  25  26
BRANCH  25  32
ATOM     32  O   UNL     1      43.155   2.118  11.548  0.00  0.00    +0.000 OA
ATOM     33  H   UNL     1      43.549   1.998  12.434  0.00  0.00    +0.000 HD
ENDBRANCH  25  32
ENDBRANCH  24  25
ENDBRANCH  23  24
ENDBRANCH   4  23
TORSDOF 8
ENDMDL
MODEL 3
REMARK VINA RESULT:    -7.695      2.137      2.626
REMARK INTER + INTRA:         -12.310
REMARK INTER:                 -11.154
REMARK INTRA:                  -1.156
REMARK UNBOUND:                -1.241
REMARK  Name = 
REMARK  8 active torsions:
REMARK  status: ('A' for Active; 'I' for Inactive)
REMARK    1  A    between atoms: C_2  and  C_21
REMARK    2  A    between atoms: N_3  and  C_4
REMARK    3  A    between atoms: C_4  and  C_5
REMARK    4  A    between atoms: C_8  and  C_9
REMARK    5  A    between atoms: C_9  and  C_10
REMARK    6  A    between atoms: C_10  and  C_11
REMARK    7  A    between atoms: C_11  and  O_12
REMARK    8  A    between atoms: C_11  and  C_13
REMARK                            x       y       z     vdW  Elec       q    Type
REMARK                         _______ _______ _______ _____ _____    ______ ____
ROOT
ATOM      1  C   UNL     1      46.789   6.637  13.032  0.00  0.00    +0.000 A 
ATOM      2  C   UNL     1      45.949   7.455  12.276  0.00  0.00    +0.000 A 
ATOM      3  C   UNL     1      44.928   6.888  11.519  0.00  0.00    +0.000 A 
ATOM      4  C   UNL     1      44.752   5.508  11.556  0.00  0.00    +0.000 A 
ATOM      5  N   UNL     1      45.531   4.698  12.310  0.00  0.00    +0.000 NA
ATOM      6  C   UNL     1      46.523   5.274  13.027  0.00  0.00    +0.000 A 
ENDROOT
BRANCH   1   7
ATOM      7  C   UNL     1      47.922   7.213  13.826  0.00  0.00    +0.000 C 
BRANCH   7  10
ATOM      8  O   UNL     1      50.145   6.542  15.419  0.00  0.00    +0.000 OA
ATOM      9  C   UNL     1      49.023   6.492  15.913  0.00  0.00    +0.000 C 
ATOM     10  N   UNL     1      47.890   6.773  15.196  0.00  0.00    +0.000 N 
ATOM     11  H   UNL     1      47.012   6.896  15.686  0.00  0.00    +0.000 HD
BRANCH   9  12
ATOM     12  C   UNL     1      48.815   6.070  17.303  0.00  0.00    +0.000 A 
ATOM     13  C   UNL     1      49.110   4.769  17.684  0.00  0.00    +0.000 A 
ATOM     14  S   UNL     1      48.804   4.456  19.334  0.00  0.00    +0.000 S 
ATOM     15  C   UNL     1      48.304   6.061  19.603  0.00  0.00    +0.000 A 
ATOM     16  N   UNL     1      47.932   6.483  20.841  0.00  0.00    +0.000 NA
ATOM     17  C   UNL     1      47.614   7.732  20.907  0.00  0.00    +0.000 A 
ATOM     18  N   UNL     1      47.617   8.599  19.841  0.00  0.00    +0.000 N 
ATOM     19  C   UNL     1      47.908   8.197  18.564  0.00  0.00    +0.000 A 
ATOM     20  O   UNL     1      47.765   8.957  17.611  0.00  0.00    +0.000 OA
ATOM     21  C   UNL     1      48.334   6.814  18.444  0.00  0.00    +0.000 A 
ATOM     22  H   UNL     1      47.321   9.558  19.958  0.00  0.00    +0.000 HD
ENDBRANCH   9  12
ENDBRANCH   7  10
ENDBRANCH   1   7
BRANCH   4  23
ATOM     23  C   UNL     1      43.690   4.846  10.718  0.00  0.00    +0.000 C 
BRANCH  23  24
ATOM     24  C   UNL     1      44.205   4.318   9.376  0.00  0.00    +0.000 C 
BRANCH  24  25
ATOM     25  C   UNL     1      44.426   2.800   9.314  0.00  0.00    +0.000 C 
BRANCH  25  26
ATOM     26  C   UNL     1      45.579   2.412   8.414  0.00  0.00    +0.000 A 
ATOM     27  C   UNL     1      46.266   3.377   7.684  0.00  0.00    +0.000 A 
ATOM     28  N   UNL     1      47.334   3.086   6.904  0.00  0.00    +0.000 NA
ATOM     29  C   UNL     1      47.679   1.781   6.859  0.00  0.00    +0.000 A 
ATOM     30  C   UNL     1      46.983   0.807   7.553  0.00  0.00    +0.000 A 
ATOM     31  N   UNL     1      45.918   1.094   8.339  0.00  0.00    +0.000 NA
ENDBRANCH  25  26
BRANCH  25  32
ATOM     32  O   UNL     1      44.714   2.348  10.645  0.00  0.00    +0.000 OA
ATOM     33  H   UNL     1      43.899   2.506  11.160  0.00  0.00    +0.000 HD
ENDBRANCH  25  32
ENDBRANCH  24  25
ENDBRANCH  23  24
ENDBRANCH   4  23
TORSDOF 8
ENDMDL
MODEL 4
REMARK VINA RESULT:    -6.964      1.694      2.126
REMARK INTER + INTRA:         -11.258
REMARK INTER:                 -10.157
REMARK INTRA:                  -1.102
REMARK UNBOUND:                -1.241
REMARK  Name = 
REMARK  8 active torsions:
REMARK  status: ('A' for Active; 'I' for Inactive)
REMARK    1  A    between atoms: C_2  and  C_21
REMARK    2  A    between atoms: N_3  and  C_4
REMARK    3  A    between atoms: C_4  and  C_5
REMARK    4  A    between atoms: C_8  and  C_9
REMARK    5  A    between atoms: C_9  and  C_10
REMARK    6  A    between atoms: C_10  and  C_11
REMARK    7  A    between atoms: C_11  and  O_12
REMARK    8  A    between atoms: C_11  and  C_13
REMARK                            x       y       z     vdW  Elec       q    Type
REMARK                         _______ _______ _______ _____ _____    ______ ____
ROOT
ATOM      1  C   UNL     1      46.714   7.439  13.102  0.00  0.00    +0.000 A 
ATOM      2  C   UNL     1      46.716   6.062  13.324  0.00  0.00    +0.000 A 
ATOM      3  C   UNL     1      45.863   5.241  12.592  0.00  0.00    +0.000 A 
ATOM      4  C   UNL     1      45.041   5.816  11.628  0.00  0.00    +0.000 A 
ATOM      5  N   UNL     1      45.047   7.145  11.370  0.00  0.00    +0.000 NA
ATOM      6  C   UNL     1      45.877   7.921  12.104  0.00  0.00    +0.000 A 
ENDROOT
BRANCH   1   7
ATOM      7  C   UNL     1      47.591   8.354  13.902  0.00  0.00    +0.000 C 
BRANCH   7  10
ATOM      8  O   UNL     1      49.261   9.298  15.964  0.00  0.00    +0.000 OA
ATOM      9  C   UNL     1      49.442   8.167  15.523  0.00  0.00    +0.000 C 
ATOM     10  N   UNL     1      48.693   7.648  14.500  0.00  0.00    +0.000 N 
ATOM     11  H   UNL     1      48.755   6.657  14.295  0.00  0.00    +0.000 HD
BRANCH   9  12
ATOM     12  C   UNL     1      50.520   7.310  16.029  0.00  0.00    +0.000 A 
ATOM     13  C   UNL     1      51.839   7.729  15.939  0.00  0.00    +0.000 A 
ATOM     14  S   UNL     1      52.956   6.605  16.574  0.00  0.00    +0.000 S 
ATOM     15  C   UNL     1      51.709   5.539  17.028  0.00  0.00    +0.000 A 
ATOM     16  N   UNL     1      51.981   4.371  17.669  0.00  0.00    +0.000 NA
ATOM     17  C   UNL     1      50.940   3.679  17.988  0.00  0.00    +0.000 A 
ATOM     18  N   UNL     1      49.644   4.041  17.708  0.00  0.00    +0.000 N 
ATOM     19  C   UNL     1      49.330   5.168  16.995  0.00  0.00    +0.000 A 
ATOM     20  O   UNL     1      48.178   5.393  16.637  0.00  0.00    +0.000 OA
ATOM     21  C   UNL     1      50.463   6.015  16.666  0.00  0.00    +0.000 A 
ATOM     22  H   UNL     1      48.876   3.432  17.955  0.00  0.00    +0.000 HD
ENDBRANCH   9  12
ENDBRANCH   7  10
ENDBRANCH   1   7
BRANCH   4  23
ATOM     23  C   UNL     1      44.069   4.973  10.844  0.00  0.00    +0.000 C 
BRANCH  23  24
ATOM     24  C   UNL     1      44.619   4.493   9.499  0.00  0.00    +0.000 C 
BRANCH  24  25
ATOM     25  C   UNL     1      44.547   2.976   9.269  0.00  0.00    +0.000 C 
BRANCH  25  26
ATOM     26  C   UNL     1      45.665   2.463   8.387  0.00  0.00    +0.000 A 
ATOM     27  C   UNL     1      46.392   3.335   7.584  0.00  0.00    +0.000 A 
ATOM     28  N   UNL     1      47.432   2.933   6.816  0.00  0.00    +0.000 NA
ATOM     29  C   UNL     1      47.706   1.610   6.860  0.00  0.00    +0.000 A 
ATOM     30  C   UNL     1      46.968   0.727   7.628  0.00  0.00    +0.000 A 
ATOM     31  N   UNL     1      45.932   1.127   8.403  0.00  0.00    +0.000 NA
ENDBRANCH  25  26
BRANCH  25  32
ATOM     32  O   UNL     1      44.647   2.337  10.551  0.00  0.00    +0.000 OA
ATOM     33  H   UNL     1      44.543   1.381  10.377  0.00  0.00    +0.000 HD
ENDBRANCH  25  32
ENDBRANCH  24  25
ENDBRANCH  23  24
ENDBRANCH   4  23
TORSDOF 8
ENDMDL
MODEL 5
REMARK VINA RESULT:    -6.893      2.873      8.364
REMARK INTER + INTRA:         -11.155
REMARK INTER:                  -9.662
REMARK INTRA:                  -1.493
REMARK UNBOUND:                -1.241
REMARK  Name = 
REMARK  8 active torsions:
REMARK  status: ('A' for Active; 'I' for Inactive)
REMARK    1  A    between atoms: C_2  and  C_21
REMARK    2  A    between atoms: N_3  and  C_4
REMARK    3  A    between atoms: C_4  and  C_5
REMARK    4  A    between atoms: C_8  and  C_9
REMARK    5  A    between atoms: C_9  and  C_10
REMARK    6  A    between atoms: C_10  and  C_11
REMARK    7  A    between atoms: C_11  and  O_12
REMARK    8  A    between atoms: C_11  and  C_13
REMARK                            x       y       z     vdW  Elec       q    Type
REMARK                         _______ _______ _______ _____ _____    ______ ____
ROOT
ATOM      1  C   UNL     1      48.443   8.098  13.022  0.00  0.00    +0.000 A 
ATOM      2  C   UNL     1      48.511   9.280  13.760  0.00  0.00    +0.000 A 
ATOM      3  C   UNL     1      49.227   9.312  14.952  0.00  0.00    +0.000 A 
ATOM      4  C   UNL     1      49.888   8.160  15.370  0.00  0.00    +0.000 A 
ATOM      5  N   UNL     1      49.867   7.013  14.652  0.00  0.00    +0.000 NA
ATOM      6  C   UNL     1      49.154   7.006  13.503  0.00  0.00    +0.000 A 
ENDROOT
BRANCH   1   7
ATOM      7  C   UNL     1      47.647   8.020  11.754  0.00  0.00    +0.000 C 
BRANCH   7  10
ATOM      8  O   UNL     1      44.857   7.719  11.991  0.00  0.00    +0.000 OA
ATOM      9  C   UNL     1      45.545   6.728  11.762  0.00  0.00    +0.000 C 
ATOM     10  N   UNL     1      46.910   6.787  11.664  0.00  0.00    +0.000 N 
ATOM     11  H   UNL     1      47.415   5.988  11.297  0.00  0.00    +0.000 HD
BRANCH   9  12
ATOM     12  C   UNL     1      44.948   5.394  11.633  0.00  0.00    +0.000 A 
ATOM     13  C   UNL     1      44.267   4.833  12.703  0.00  0.00    +0.000 A 
ATOM     14  S   UNL     1      43.644   3.278  12.374  0.00  0.00    +0.000 S 
ATOM     15  C   UNL     1      44.230   3.320  10.777  0.00  0.00    +0.000 A 
ATOM     16  N   UNL     1      44.006   2.289   9.918  0.00  0.00    +0.000 NA
ATOM     17  C   UNL     1      44.473   2.472   8.729  0.00  0.00    +0.000 A 
ATOM     18  N   UNL     1      45.163   3.588   8.322  0.00  0.00    +0.000 N 
ATOM     19  C   UNL     1      45.481   4.611   9.175  0.00  0.00    +0.000 A 
ATOM     20  O   UNL     1      46.219   5.527   8.823  0.00  0.00    +0.000 OA
ATOM     21  C   UNL     1      44.924   4.485  10.510  0.00  0.00    +0.000 A 
ATOM     22  H   UNL     1      45.534   3.648   7.384  0.00  0.00    +0.000 HD
ENDBRANCH   9  12
ENDBRANCH   7  10
ENDBRANCH   1   7
BRANCH   4  23
ATOM     23  C   UNL     1      50.638   8.135  16.676  0.00  0.00    +0.000 C 
BRANCH  23  24
ATOM     24  C   UNL     1      49.931   7.337  17.775  0.00  0.00    +0.000 C 
BRANCH  24  25
ATOM     25  C   UNL     1      50.387   5.877  17.916  0.00  0.00    +0.000 C 
BRANCH  25  26
ATOM     26  C   UNL     1      49.269   4.888  17.665  0.00  0.00    +0.000 A 
ATOM     27  C   UNL     1      47.960   5.189  18.027  0.00  0.00    +0.000 A 
ATOM     28  N   UNL     1      46.920   4.359  17.779  0.00  0.00    +0.000 NA
ATOM     29  C   UNL     1      47.240   3.194  17.173  0.00  0.00    +0.000 A 
ATOM     30  C   UNL     1      48.543   2.869  16.838  0.00  0.00    +0.000 A 
ATOM     31  N   UNL     1      49.585   3.699  17.078  0.00  0.00    +0.000 NA
ENDBRANCH  25  26
BRANCH  25  32
ATOM     32  O   UNL     1      51.423   5.650  16.949  0.00  0.00    +0.000 OA
ATOM     33  H   UNL     1      52.162   5.246  17.445  0.00  0.00    +0.000 HD
ENDBRANCH  25  32
ENDBRANCH  24  25
ENDBRANCH  23  24
ENDBRANCH   4  23
TORSDOF 8
ENDMDL
MODEL 6
REMARK VINA RESULT:    -6.659      1.624      2.183
REMARK INTER + INTRA:         -10.820
REMARK INTER:                  -9.801
REMARK INTRA:                  -1.018
REMARK UNBOUND:                -1.241
REMARK  Name = 
REMARK  8 active torsions:
REMARK  status: ('A' for Active; 'I' for Inactive)
REMARK    1  A    between atoms: C_2  and  C_21
REMARK    2  A    between atoms: N_3  and  C_4
REMARK    3  A    between atoms: C_4  and  C_5
REMARK    4  A    between atoms: C_8  and  C_9
REMARK    5  A    between atoms: C_9  and  C_10
REMARK    6  A    between atoms: C_10  and  C_11
REMARK    7  A    between atoms: C_11  and  O_12
REMARK    8  A    between atoms: C_11  and  C_13
REMARK                            x       y       z     vdW  Elec       q    Type
REMARK                         _______ _______ _______ _____ _____    ______ ____
ROOT
ATOM      1  C   UNL     1      47.697   7.237  13.349  0.00  0.00    +0.000 A 
ATOM      2  C   UNL     1      46.798   7.910  12.522  0.00  0.00    +0.000 A 
ATOM      3  C   UNL     1      45.735   7.220  11.947  0.00  0.00    +0.000 A 
ATOM      4  C   UNL     1      45.579   5.867  12.234  0.00  0.00    +0.000 A 
ATOM      5  N   UNL     1      46.417   5.201  13.062  0.00  0.00    +0.000 NA
ATOM      6  C   UNL     1      47.448   5.893  13.599  0.00  0.00    +0.000 A 
ENDROOT
BRANCH   1   7
ATOM      7  C   UNL     1      48.874   7.942  13.951  0.00  0.00    +0.000 C 
BRANCH   7  10
ATOM      8  O   UNL     1      51.275   7.315  15.284  0.00  0.00    +0.000 OA
ATOM      9  C   UNL     1      50.232   7.368  15.930  0.00  0.00    +0.000 C 
ATOM     10  N   UNL     1      49.020   7.635  15.350  0.00  0.00    +0.000 N 
ATOM     11  H   UNL     1      48.225   7.846  15.941  0.00  0.00    +0.000 HD
BRANCH   9  12
ATOM     12  C   UNL     1      50.207   7.088  17.370  0.00  0.00    +0.000 A 
ATOM     13  C   UNL     1      50.783   7.983  18.260  0.00  0.00    +0.000 A 
ATOM     14  S   UNL     1      50.663   7.494  19.891  0.00  0.00    +0.000 S 
ATOM     15  C   UNL     1      49.801   6.090  19.465  0.00  0.00    +0.000 A 
ATOM     16  N   UNL     1      49.353   5.224  20.413  0.00  0.00    +0.000 NA
ATOM     17  C   UNL     1      48.683   4.223  19.951  0.00  0.00    +0.000 A 
ATOM     18  N   UNL     1      48.431   3.997  18.620  0.00  0.00    +0.000 N 
ATOM     19  C   UNL     1      48.931   4.799  17.628  0.00  0.00    +0.000 A 
ATOM     20  O   UNL     1      48.812   4.495  16.444  0.00  0.00    +0.000 OA
ATOM     21  C   UNL     1      49.641   5.975  18.097  0.00  0.00    +0.000 A 
ATOM     22  H   UNL     1      47.929   3.171  18.325  0.00  0.00    +0.000 HD
ENDBRANCH   9  12
ENDBRANCH   7  10
ENDBRANCH   1   7
BRANCH   4  23
ATOM     23  C   UNL     1      44.471   5.069  11.598  0.00  0.00    +0.000 C 
BRANCH  23  24
ATOM     24  C   UNL     1      44.838   3.605  11.338  0.00  0.00    +0.000 C 
BRANCH  24  25
ATOM     25  C   UNL     1      44.219   2.993  10.073  0.00  0.00    +0.000 C 
BRANCH  25  26
ATOM     26  C   UNL     1      45.212   2.862   8.939  0.00  0.00    +0.000 A 
ATOM     27  C   UNL     1      45.547   3.964   8.158  0.00  0.00    +0.000 A 
ATOM     28  N   UNL     1      46.466   3.908   7.166  0.00  0.00    +0.000 NA
ATOM     29  C   UNL     1      47.026   2.695   6.962  0.00  0.00    +0.000 A 
ATOM     30  C   UNL     1      46.677   1.585   7.710  0.00  0.00    +0.000 A 
ATOM     31  N   UNL     1      45.763   1.637   8.708  0.00  0.00    +0.000 NA
ENDBRANCH  25  26
BRANCH  25  32
ATOM     32  O   UNL     1      43.739   1.684  10.414  0.00  0.00    +0.000 OA
ATOM     33  H   UNL     1      44.513   1.091  10.335  0.00  0.00    +0.000 HD
ENDBRANCH  25  32
ENDBRANCH  24  25
ENDBRANCH  23  24
ENDBRANCH   4  23
TORSDOF 8
ENDMDL
MODEL 7
REMARK VINA RESULT:    -6.603      4.422      9.580
REMARK INTER + INTRA:         -10.739
REMARK INTER:                  -9.875
REMARK INTRA:                  -0.864
REMARK UNBOUND:                -1.241
REMARK  Name = 
REMARK  8 active torsions:
REMARK  status: ('A' for Active; 'I' for Inactive)
REMARK    1  A    between atoms: C_2  and  C_21
REMARK    2  A    between atoms: N_3  and  C_4
REMARK    3  A    between atoms: C_4  and  C_5
REMARK    4  A    between atoms: C_8  and  C_9
REMARK    5  A    between atoms: C_9  and  C_10
REMARK    6  A    between atoms: C_10  and  C_11
REMARK    7  A    between atoms: C_11  and  O_12
REMARK    8  A    between atoms: C_11  and  C_13
REMARK                            x       y       z     vdW  Elec       q    Type
REMARK                         _______ _______ _______ _____ _____    ______ ____
ROOT
ATOM      1  C   UNL     1      48.617   3.514  17.141  0.00  0.00    +0.000 A 
ATOM      2  C   UNL     1      49.447   2.393  17.117  0.00  0.00    +0.000 A 
ATOM      3  C   UNL     1      50.807   2.532  17.378  0.00  0.00    +0.000 A 
ATOM      4  C   UNL     1      51.305   3.795  17.687  0.00  0.00    +0.000 A 
ATOM      5  N   UNL     1      50.513   4.890  17.752  0.00  0.00    +0.000 NA
ATOM      6  C   UNL     1      49.198   4.729  17.482  0.00  0.00    +0.000 A 
ENDROOT
BRANCH   1   7
ATOM      7  C   UNL     1      47.156   3.404  16.824  0.00  0.00    +0.000 C 
BRANCH   7  10
ATOM      8  O   UNL     1      47.206   3.064  14.029  0.00  0.00    +0.000 OA
ATOM      9  C   UNL     1      46.778   4.117  14.492  0.00  0.00    +0.000 C 
ATOM     10  N   UNL     1      46.751   4.371  15.838  0.00  0.00    +0.000 N 
ATOM     11  H   UNL     1      46.227   5.168  16.181  0.00  0.00    +0.000 HD
BRANCH   9  12
ATOM     12  C   UNL     1      46.317   5.206  13.624  0.00  0.00    +0.000 A 
ATOM     13  C   UNL     1      47.154   6.277  13.351  0.00  0.00    +0.000 A 
ATOM     14  S   UNL     1      46.451   7.448  12.327  0.00  0.00    +0.000 S 
ATOM     15  C   UNL     1      45.019   6.541  12.181  0.00  0.00    +0.000 A 
ATOM     16  N   UNL     1      43.991   6.968  11.398  0.00  0.00    +0.000 NA
ATOM     17  C   UNL     1      42.984   6.164  11.350  0.00  0.00    +0.000 A 
ATOM     18  N   UNL     1      42.900   4.972  12.028  0.00  0.00    +0.000 N 
ATOM     19  C   UNL     1      43.876   4.543  12.889  0.00  0.00    +0.000 A 
ATOM     20  O   UNL     1      43.713   3.548  13.589  0.00  0.00    +0.000 OA
ATOM     21  C   UNL     1      45.061   5.381  12.933  0.00  0.00    +0.000 A 
ATOM     22  H   UNL     1      42.064   4.408  11.974  0.00  0.00    +0.000 HD
ENDBRANCH   9  12
ENDBRANCH   7  10
ENDBRANCH   1   7
BRANCH   4  23
ATOM     23  C   UNL     1      52.777   4.000  17.932  0.00  0.00    +0.000 C 
BRANCH  23  24
ATOM     24  C   UNL     1      53.290   3.320  19.204  0.00  0.00    +0.000 C 
BRANCH  24  25
ATOM     25  C   UNL     1      54.679   2.676  19.085  0.00  0.00    +0.000 C 
BRANCH  25  26
ATOM     26  C   UNL     1      54.626   1.267  18.537  0.00  0.00    +0.000 A 
ATOM     27  C   UNL     1      54.570   1.040  17.166  0.00  0.00    +0.000 A 
ATOM     28  N   UNL     1      54.571  -0.202  16.626  0.00  0.00    +0.000 NA
ATOM     29  C   UNL     1      54.606  -1.219  17.514  0.00  0.00    +0.000 A 
ATOM     30  C   UNL     1      54.627  -1.007  18.882  0.00  0.00    +0.000 A 
ATOM     31  N   UNL     1      54.633   0.233  19.425  0.00  0.00    +0.000 NA
ENDBRANCH  25  26
BRANCH  25  32
ATOM     32  O   UNL     1      55.457   3.485  18.190  0.00  0.00    +0.000 OA
ATOM     33  H   UNL     1      55.746   2.884  17.475  0.00  0.00    +0.000 HD
ENDBRANCH  25  32
ENDBRANCH  24  25
ENDBRANCH  23  24
ENDBRANCH   4  23
TORSDOF 8
ENDMDL
MODEL 8
REMARK VINA RESULT:    -6.580      2.466      2.847
REMARK INTER + INTRA:         -10.705
REMARK INTER:                  -9.795
REMARK INTRA:                  -0.910
REMARK UNBOUND:                -1.241
REMARK  Name = 
REMARK  8 active torsions:
REMARK  status: ('A' for Active; 'I' for Inactive)
REMARK    1  A    between atoms: C_2  and  C_21
REMARK    2  A    between atoms: N_3  and  C_4
REMARK    3  A    between atoms: C_4  and  C_5
REMARK    4  A    between atoms: C_8  and  C_9
REMARK    5  A    between atoms: C_9  and  C_10
REMARK    6  A    between atoms: C_10  and  C_11
REMARK    7  A    between atoms: C_11  and  O_12
REMARK    8  A    between atoms: C_11  and  C_13
REMARK                            x       y       z     vdW  Elec       q    Type
REMARK                         _______ _______ _______ _____ _____    ______ ____
ROOT
ATOM      1  C   UNL     1      47.450   8.237  13.496  0.00  0.00    +0.000 A 
ATOM      2  C   UNL     1      48.225   7.133  13.140  0.00  0.00    +0.000 A 
ATOM      3  C   UNL     1      47.631   6.044  12.510  0.00  0.00    +0.000 A 
ATOM      4  C   UNL     1      46.270   6.095  12.222  0.00  0.00    +0.000 A 
ATOM      5  N   UNL     1      45.505   7.170  12.525  0.00  0.00    +0.000 NA
ATOM      6  C   UNL     1      46.105   8.210  13.148  0.00  0.00    +0.000 A 
ENDROOT
BRANCH   1   7
ATOM      7  C   UNL     1      48.051   9.408  14.213  0.00  0.00    +0.000 C 
BRANCH   7  10
ATOM      8  O   UNL     1      49.803   8.269  16.102  0.00  0.00    +0.000 OA
ATOM      9  C   UNL     1      48.758   8.782  16.492  0.00  0.00    +0.000 C 
ATOM     10  N   UNL     1      47.840   9.328  15.634  0.00  0.00    +0.000 N 
ATOM     11  H   UNL     1      47.089   9.896  16.009  0.00  0.00    +0.000 HD
BRANCH   9  12
ATOM     12  C   UNL     1      48.394   8.792  17.914  0.00  0.00    +0.000 A 
ATOM     13  C   UNL     1      48.273   9.996  18.590  0.00  0.00    +0.000 A 
ATOM     14  S   UNL     1      47.847   9.815  20.234  0.00  0.00    +0.000 S 
ATOM     15  C   UNL     1      47.770   8.122  20.084  0.00  0.00    +0.000 A 
ATOM     16  N   UNL     1      47.417   7.338  21.139  0.00  0.00    +0.000 NA
ATOM     17  C   UNL     1      47.362   6.076  20.874  0.00  0.00    +0.000 A 
ATOM     18  N   UNL     1      47.647   5.520  19.650  0.00  0.00    +0.000 N 
ATOM     19  C   UNL     1      48.083   6.263  18.585  0.00  0.00    +0.000 A 
ATOM     20  O   UNL     1      48.466   5.727  17.549  0.00  0.00    +0.000 OA
ATOM     21  C   UNL     1      48.102   7.698  18.811  0.00  0.00    +0.000 A 
ATOM     22  H   UNL     1      47.619   4.518  19.522  0.00  0.00    +0.000 HD
ENDBRANCH   9  12
ENDBRANCH   7  10
ENDBRANCH   1   7
BRANCH   4  23
ATOM     23  C   UNL     1      45.576   4.922  11.582  0.00  0.00    +0.000 C 
BRANCH  23  24
ATOM     24  C   UNL     1      44.562   5.320  10.505  0.00  0.00    +0.000 C 
BRANCH  24  25
ATOM     25  C   UNL     1      44.027   4.159   9.653  0.00  0.00    +0.000 C 
BRANCH  25  26
ATOM     26  C   UNL     1      45.102   3.503   8.815  0.00  0.00    +0.000 A 
ATOM     27  C   UNL     1      45.342   2.136   8.912  0.00  0.00    +0.000 A 
ATOM     28  N   UNL     1      46.258   1.495   8.148  0.00  0.00    +0.000 NA
ATOM     29  C   UNL     1      46.951   2.279   7.294  0.00  0.00    +0.000 A 
ATOM     30  C   UNL     1      46.746   3.645   7.213  0.00  0.00    +0.000 A 
ATOM     31  N   UNL     1      45.826   4.290   7.970  0.00  0.00    +0.000 NA
ENDBRANCH  25  26
BRANCH  25  32
ATOM     32  O   UNL     1      43.483   3.178  10.548  0.00  0.00    +0.000 OA
ATOM     33  H   UNL     1      44.241   2.848  11.070  0.00  0.00    +0.000 HD
ENDBRANCH  25  32
ENDBRANCH  24  25
ENDBRANCH  23  24
ENDBRANCH   4  23
TORSDOF 8
ENDMDL
MODEL 9
REMARK VINA RESULT:    -6.479      3.440      7.972
REMARK INTER + INTRA:         -10.561
REMARK INTER:                  -9.913
REMARK INTRA:                  -0.648
REMARK UNBOUND:                -1.241
REMARK  Name = 
REMARK  8 active torsions:
REMARK  status: ('A' for Active; 'I' for Inactive)
REMARK    1  A    between atoms: C_2  and  C_21
REMARK    2  A    between atoms: N_3  and  C_4
REMARK    3  A    between atoms: C_4  and  C_5
REMARK    4  A    between atoms: C_8  and  C_9
REMARK    5  A    between atoms: C_9  and  C_10
REMARK    6  A    between atoms: C_10  and  C_11
REMARK    7  A    between atoms: C_11  and  O_12
REMARK    8  A    between atoms: C_11  and  C_13
REMARK                            x       y       z     vdW  Elec       q    Type
REMARK                         _______ _______ _______ _____ _____    ______ ____
ROOT
ATOM      1  C   UNL     1      48.119   8.022  13.851  0.00  0.00    +0.000 A 
ATOM      2  C   UNL     1      48.885   6.891  14.134  0.00  0.00    +0.000 A 
ATOM      3  C   UNL     1      49.332   6.664  15.432  0.00  0.00    +0.000 A 
ATOM      4  C   UNL     1      48.978   7.565  16.432  0.00  0.00    +0.000 A 
ATOM      5  N   UNL     1      48.206   8.650  16.189  0.00  0.00    +0.000 NA
ATOM      6  C   UNL     1      47.794   8.853  14.916  0.00  0.00    +0.000 A 
ENDROOT
BRANCH   1   7
ATOM      7  C   UNL     1      47.656   8.316  12.457  0.00  0.00    +0.000 C 
BRANCH   7  10
ATOM      8  O   UNL     1      45.019   8.050  11.505  0.00  0.00    +0.000 OA
ATOM      9  C   UNL     1      45.800   7.113  11.364  0.00  0.00    +0.000 C 
ATOM     10  N   UNL     1      47.088   7.153  11.828  0.00  0.00    +0.000 N 
ATOM     11  H   UNL     1      47.743   6.439  11.531  0.00  0.00    +0.000 HD
BRANCH   9  12
ATOM     12  C   UNL     1      45.382   5.855  10.735  0.00  0.00    +0.000 A 
ATOM     13  C   UNL     1      45.741   5.583   9.424  0.00  0.00    +0.000 A 
ATOM     14  S   UNL     1      45.166   4.078   8.858  0.00  0.00    +0.000 S 
ATOM     15  C   UNL     1      44.453   3.723  10.361  0.00  0.00    +0.000 A 
ATOM     16  N   UNL     1      43.810   2.543  10.574  0.00  0.00    +0.000 NA
ATOM     17  C   UNL     1      43.352   2.390  11.770  0.00  0.00    +0.000 A 
ATOM     18  N   UNL     1      43.461   3.321  12.775  0.00  0.00    +0.000 N 
ATOM     19  C   UNL     1      44.028   4.553  12.582  0.00  0.00    +0.000 A 
ATOM     20  O   UNL     1      43.985   5.416  13.453  0.00  0.00    +0.000 OA
ATOM     21  C   UNL     1      44.617   4.752  11.269  0.00  0.00    +0.000 A 
ATOM     22  H   UNL     1      43.045   3.151  13.680  0.00  0.00    +0.000 HD
ENDBRANCH   9  12
ENDBRANCH   7  10
ENDBRANCH   1   7
BRANCH   4  23
ATOM     23  C   UNL     1      49.477   7.384  17.841  0.00  0.00    +0.000 C 
BRANCH  23  24
ATOM     24  C   UNL     1      48.668   6.369  18.654  0.00  0.00    +0.000 C 
BRANCH  24  25
ATOM     25  C   UNL     1      47.908   5.326  17.823  0.00  0.00    +0.000 C 
BRANCH  25  26
ATOM     26  C   UNL     1      48.744   4.104  17.510  0.00  0.00    +0.000 A 
ATOM     27  C   UNL     1      48.295   3.151  16.601  0.00  0.00    +0.000 A 
ATOM     28  N   UNL     1      49.028   2.067  16.251  0.00  0.00    +0.000 NA
ATOM     29  C   UNL     1      50.225   1.954  16.867  0.00  0.00    +0.000 A 
ATOM     30  C   UNL     1      50.668   2.877  17.798  0.00  0.00    +0.000 A 
ATOM     31  N   UNL     1      49.941   3.966  18.146  0.00  0.00    +0.000 NA
ENDBRANCH  25  26
BRANCH  25  32
ATOM     32  O   UNL     1      46.764   4.913  18.584  0.00  0.00    +0.000 OA
ATOM     33  H   UNL     1      45.986   5.241  18.091  0.00  0.00    +0.000 HD
ENDBRANCH  25  32
ENDBRANCH  24  25
ENDBRANCH  23  24
ENDBRANCH   4  23
TORSDOF 8
ENDMDL
