MODEL 1
REMARK VINA RESULT:    -8.066      0.000      0.000
REMARK INTER + INTRA:         -12.481
REMARK INTER:                 -11.367
REMARK INTRA:                  -1.114
REMARK UNBOUND:                -1.114
REMARK  Name = 
REMARK  8 active torsions:
REMARK  status: ('A' for Active; 'I' for Inactive)
REMARK    1  A    between atoms: C_1  and  C_2
REMARK    2  A    between atoms: C_2  and  N_3
REMARK    3  A    between atoms: C_2  and  C_25
REMARK    4  A    between atoms: N_3  and  C_4
REMARK    5  A    between atoms: C_4  and  C_5
REMARK    6  A    between atoms: C_8  and  C_9
REMARK    7  A    between atoms: C_9  and  N_10
REMARK    8  A    between atoms: C_11  and  C_13
REMARK                            x       y       z     vdW  Elec       q    Type
REMARK                         _______ _______ _______ _____ _____    ______ ____
ROOT
ATOM      1  C   UNL     1      44.703   6.148  11.335  0.00  0.00    +0.000 A 
ATOM      2  C   UNL     1      44.348   7.429  11.758  0.00  0.00    +0.000 A 
ATOM      3  C   UNL     1      45.267   8.179  12.490  0.00  0.00    +0.000 A 
ATOM      4  C   UNL     1      46.521   7.644  12.784  0.00  0.00    +0.000 A 
ATOM      5  C   UNL     1      46.783   6.355  12.338  0.00  0.00    +0.000 A 
ATOM      6  N   UNL     1      45.911   5.602  11.630  0.00  0.00    +0.000 NA
ENDROOT
BRANCH   1   7
ATOM      7  C   UNL     1      43.721   5.288  10.558  0.00  0.00    +0.000 C 
BRANCH   7   8
ATOM      8  N   UNL     1      44.263   4.786   9.292  0.00  0.00    +0.000 NA
ATOM      9  H   UNL     1      43.743   5.163   8.498  0.00  0.00    +0.000 HD
BRANCH   8  11
ATOM     10  C   UNL     1      44.608   2.621  10.488  0.00  0.00    +0.000 C 
ATOM     11  C   UNL     1      44.254   3.319   9.171  0.00  0.00    +0.000 C 
BRANCH  11  12
ATOM     12  C   UNL     1      45.226   2.864   8.023  0.00  0.00    +0.000 C 
ATOM     13  C   UNL     1      46.079   1.642   8.419  0.00  0.00    +0.000 C 
ATOM     14  C   UNL     1      47.005   1.214   7.284  0.00  0.00    +0.000 C 
ATOM     15  C   UNL     1      47.833   2.394   6.793  0.00  0.00    +0.000 C 
ATOM     16  C   UNL     1      46.948   3.593   6.470  0.00  0.00    +0.000 C 
ATOM     17  N   UNL     1      46.115   3.981   7.613  0.00  0.00    +0.000 NA
ATOM     18  H   UNL     1      45.542   4.780   7.346  0.00  0.00    +0.000 HD
ENDBRANCH  11  12
ENDBRANCH   8  11
ENDBRANCH   7   8
ENDBRANCH   1   7
BRANCH   4  19
ATOM     19  C   UNL     1      47.530   8.386  13.607  0.00  0.00    +0.000 C 
BRANCH  19  20
ATOM     20  N   UNL     1      47.853   7.653  14.806  0.00  0.00    +0.000 N 
ATOM     21  C   UNL     1      49.056   7.012  14.948  0.00  0.00    +0.000 C 
ATOM     22  O   UNL     1      49.932   7.077  14.091  0.00  0.00    +0.000 OA
ATOM     23  H   UNL     1      47.083   7.402  15.418  0.00  0.00    +0.000 HD
BRANCH  21  24
ATOM     24  C   UNL     1      49.268   6.291  16.210  0.00  0.00    +0.000 A 
ATOM     25  C   UNL     1      50.264   6.712  17.081  0.00  0.00    +0.000 A 
ATOM     26  S   UNL     1      50.351   5.795  18.516  0.00  0.00    +0.000 S 
ATOM     27  C   UNL     1      49.095   4.769  18.004  0.00  0.00    +0.000 A 
ATOM     28  N   UNL     1      48.684   3.728  18.773  0.00  0.00    +0.000 NA
ATOM     29  C   UNL     1      47.745   3.012  18.249  0.00  0.00    +0.000 A 
ATOM     30  N   UNL     1      47.174   3.251  17.026  0.00  0.00    +0.000 N 
ATOM     31  C   UNL     1      47.532   4.310  16.228  0.00  0.00    +0.000 A 
ATOM     32  O   UNL     1      46.968   4.527  15.161  0.00  0.00    +0.000 OA
ATOM     33  C   UNL     1      48.600   5.135  16.762  0.00  0.00    +0.000 A 
ATOM     34  H   UNL     1      46.434   2.658  16.678  0.00  0.00    +0.000 HD
ENDBRANCH  21  24
ENDBRANCH  19  20
ENDBRANCH   4  19
TORSDOF 7
ENDMDL
MODEL 2
REMARK VINA RESULT:    -7.639      2.378      3.012
REMARK INTER + INTRA:         -11.879
REMARK INTER:                 -10.822
REMARK INTRA:                  -1.057
REMARK UNBOUND:                -1.114
REMARK  Name = 
REMARK  8 active torsions:
REMARK  status: ('A' for Active; 'I' for Inactive)
REMARK    1  A    between atoms: C_1  and  C_2
REMARK    2  A    between atoms: C_2  and  N_3
REMARK    3  A    between atoms: C_2  and  C_25
REMARK    4  A    between atoms: N_3  and  C_4
REMARK    5  A    between atoms: C_4  and  C_5
REMARK    6  A    between atoms: C_8  and  C_9
REMARK    7  A    between atoms: C_9  and  N_10
REMARK    8  A    between atoms: C_11  and  C_13
REMARK                            x       y       z     vdW  Elec       q    Type
REMARK                         _______ _______ _______ _____ _____    ______ ____
ROOT
ATOM      1  C   UNL     1      45.352   5.586  11.782  0.00  0.00    +0.000 A 
ATOM      2  C   UNL     1      45.592   4.824  12.925  0.00  0.00    +0.000 A 
ATOM      3  C   UNL     1      46.657   5.168  13.756  0.00  0.00    +0.000 A 
ATOM      4  C   UNL     1      47.459   6.264  13.438  0.00  0.00    +0.000 A 
ATOM      5  C   UNL     1      47.157   6.956  12.273  0.00  0.00    +0.000 A 
ATOM      6  N   UNL     1      46.134   6.644  11.445  0.00  0.00    +0.000 NA
ENDROOT
BRANCH   1   7
ATOM      7  C   UNL     1      44.218   5.228  10.836  0.00  0.00    +0.000 C 
BRANCH   7   8
ATOM      8  N   UNL     1      44.675   4.872   9.489  0.00  0.00    +0.000 NA
ATOM      9  H   UNL     1      44.308   5.525   8.796  0.00  0.00    +0.000 HD
BRANCH   8  11
ATOM     10  C   UNL     1      44.257   2.524  10.232  0.00  0.00    +0.000 C 
ATOM     11  C   UNL     1      44.297   3.515   9.063  0.00  0.00    +0.000 C 
BRANCH  11  12
ATOM     12  C   UNL     1      45.272   3.008   7.940  0.00  0.00    +0.000 C 
ATOM     13  C   UNL     1      46.074   1.762   8.369  0.00  0.00    +0.000 C 
ATOM     14  C   UNL     1      47.004   1.285   7.258  0.00  0.00    +0.000 C 
ATOM     15  C   UNL     1      47.881   2.427   6.764  0.00  0.00    +0.000 C 
ATOM     16  C   UNL     1      47.045   3.652   6.406  0.00  0.00    +0.000 C 
ATOM     17  N   UNL     1      46.206   4.086   7.529  0.00  0.00    +0.000 NA
ATOM     18  H   UNL     1      45.666   4.901   7.239  0.00  0.00    +0.000 HD
ENDBRANCH  11  12
ENDBRANCH   8  11
ENDBRANCH   7   8
ENDBRANCH   1   7
BRANCH   4  19
ATOM     19  C   UNL     1      48.645   6.651  14.270  0.00  0.00    +0.000 C 
BRANCH  19  20
ATOM     20  N   UNL     1      48.269   6.814  15.653  0.00  0.00    +0.000 N 
ATOM     21  C   UNL     1      48.999   6.241  16.662  0.00  0.00    +0.000 C 
ATOM     22  O   UNL     1      50.030   5.613  16.442  0.00  0.00    +0.000 OA
ATOM     23  H   UNL     1      47.323   7.129  15.843  0.00  0.00    +0.000 HD
BRANCH  21  24
ATOM     24  C   UNL     1      48.515   6.470  18.030  0.00  0.00    +0.000 A 
ATOM     25  C   UNL     1      48.444   5.406  18.918  0.00  0.00    +0.000 A 
ATOM     26  S   UNL     1      47.903   5.848  20.473  0.00  0.00    +0.000 S 
ATOM     27  C   UNL     1      47.695   7.469  20.003  0.00  0.00    +0.000 A 
ATOM     28  N   UNL     1      47.220   8.395  20.875  0.00  0.00    +0.000 NA
ATOM     29  C   UNL     1      47.081   9.579  20.376  0.00  0.00    +0.000 A 
ATOM     30  N   UNL     1      47.385   9.920  19.083  0.00  0.00    +0.000 N 
ATOM     31  C   UNL     1      47.899   9.027  18.176  0.00  0.00    +0.000 A 
ATOM     32  O   UNL     1      48.208   9.373  17.041  0.00  0.00    +0.000 OA
ATOM     33  C   UNL     1      48.054   7.675  18.680  0.00  0.00    +0.000 A 
ATOM     34  H   UNL     1      47.264  10.869  18.759  0.00  0.00    +0.000 HD
ENDBRANCH  21  24
ENDBRANCH  19  20
ENDBRANCH   4  19
TORSDOF 7
ENDMDL
MODEL 3
REMARK VINA RESULT:    -7.612      2.719      3.349
REMARK INTER + INTRA:         -11.841
REMARK INTER:                 -10.822
REMARK INTRA:                  -1.019
REMARK UNBOUND:                -1.114
REMARK  Name = 
REMARK  8 active torsions:
REMARK  status: ('A' for Active; 'I' for Inactive)
REMARK    1  A    between atoms: C_1  and  C_2
REMARK    2  A    between atoms: C_2  and  N_3
REMARK    3  A    between atoms: C_2  and  C_25
REMARK    4  A    between atoms: N_3  and  C_4
REMARK    5  A    between atoms: C_4  and  C_5
REMARK    6  A    between atoms: C_8  and  C_9
REMARK    7  A    between atoms: C_9  and  N_10
REMARK    8  A    between atoms: C_11  and  C_13
REMARK                            x       y       z     vdW  Elec       q    Type
REMARK                         _______ _______ _______ _____ _____    ______ ____
ROOT
ATOM      1  C   UNL     1      46.516   4.689  13.427  0.00  0.00    +0.000 A 
ATOM      2  C   UNL     1      47.162   5.854  13.013  0.00  0.00    +0.000 A 
ATOM      3  C   UNL     1      48.003   6.516  13.905  0.00  0.00    +0.000 A 
ATOM      4  C   UNL     1      48.190   6.005  15.190  0.00  0.00    +0.000 A 
ATOM      5  C   UNL     1      47.496   4.850  15.523  0.00  0.00    +0.000 A 
ATOM      6  N   UNL     1      46.670   4.188  14.680  0.00  0.00    +0.000 NA
ENDROOT
BRANCH   1   7
ATOM      7  C   UNL     1      45.570   3.952  12.494  0.00  0.00    +0.000 C 
BRANCH   7   8
ATOM      8  N   UNL     1      45.229   4.717  11.291  0.00  0.00    +0.000 NA
ATOM      9  H   UNL     1      44.929   5.663  11.533  0.00  0.00    +0.000 HD
BRANCH   8  11
ATOM     10  C   UNL     1      43.383   3.035  11.234  0.00  0.00    +0.000 C 
ATOM     11  C   UNL     1      44.165   4.112  10.473  0.00  0.00    +0.000 C 
BRANCH  11  12
ATOM     12  C   UNL     1      44.768   3.525   9.146  0.00  0.00    +0.000 C 
ATOM     13  C   UNL     1      45.390   2.128   9.344  0.00  0.00    +0.000 C 
ATOM     14  C   UNL     1      45.958   1.578   8.040  0.00  0.00    +0.000 C 
ATOM     15  C   UNL     1      46.915   2.578   7.406  0.00  0.00    +0.000 C 
ATOM     16  C   UNL     1      46.271   3.956   7.284  0.00  0.00    +0.000 C 
ATOM     17  N   UNL     1      45.785   4.447   8.578  0.00  0.00    +0.000 NA
ATOM     18  H   UNL     1      45.362   5.365   8.443  0.00  0.00    +0.000 HD
ENDBRANCH  11  12
ENDBRANCH   8  11
ENDBRANCH   7   8
ENDBRANCH   1   7
BRANCH   4  19
ATOM     19  C   UNL     1      49.046   6.700  16.206  0.00  0.00    +0.000 C 
BRANCH  19  20
ATOM     20  N   UNL     1      50.105   5.834  16.662  0.00  0.00    +0.000 N 
ATOM     21  C   UNL     1      50.175   5.420  17.966  0.00  0.00    +0.000 C 
ATOM     22  O   UNL     1      49.316   5.720  18.791  0.00  0.00    +0.000 OA
ATOM     23  H   UNL     1      50.928   5.757  16.073  0.00  0.00    +0.000 HD
BRANCH  21  24
ATOM     24  C   UNL     1      51.303   4.546  18.316  0.00  0.00    +0.000 A 
ATOM     25  C   UNL     1      52.354   5.052  19.068  0.00  0.00    +0.000 A 
ATOM     26  S   UNL     1      53.560   3.900  19.421  0.00  0.00    +0.000 S 
ATOM     27  C   UNL     1      52.746   2.694  18.539  0.00  0.00    +0.000 A 
ATOM     28  N   UNL     1      53.266   1.446  18.415  0.00  0.00    +0.000 NA
ATOM     29  C   UNL     1      52.561   0.640  17.692  0.00  0.00    +0.000 A 
ATOM     30  N   UNL     1      51.375   0.971  17.089  0.00  0.00    +0.000 N 
ATOM     31  C   UNL     1      50.793   2.209  17.213  0.00  0.00    +0.000 A 
ATOM     32  O   UNL     1      49.707   2.461  16.702  0.00  0.00    +0.000 OA
ATOM     33  C   UNL     1      51.558   3.160  17.998  0.00  0.00    +0.000 A 
ATOM     34  H   UNL     1      50.865   0.289  16.545  0.00  0.00    +0.000 HD
ENDBRANCH  21  24
ENDBRANCH  19  20
ENDBRANCH   4  19
TORSDOF 7
ENDMDL
MODEL 4
REMARK VINA RESULT:    -7.466      1.491      1.842
REMARK INTER + INTRA:         -11.634
REMARK INTER:                 -10.522
REMARK INTRA:                  -1.112
REMARK UNBOUND:                -1.114
REMARK  Name = 
REMARK  8 active torsions:
REMARK  status: ('A' for Active; 'I' for Inactive)
REMARK    1  A    between atoms: C_1  and  C_2
REMARK    2  A    between atoms: C_2  and  N_3
REMARK    3  A    between atoms: C_2  and  C_25
REMARK    4  A    between atoms: N_3  and  C_4
REMARK    5  A    between atoms: C_4  and  C_5
REMARK    6  A    between atoms: C_8  and  C_9
REMARK    7  A    between atoms: C_9  and  N_10
REMARK    8  A    between atoms: C_11  and  C_13
REMARK                            x       y       z     vdW  Elec       q    Type
REMARK                         _______ _______ _______ _____ _____    ______ ____
ROOT
ATOM      1  C   UNL     1      45.522   5.865  11.890  0.00  0.00    +0.000 A 
ATOM      2  C   UNL     1      45.830   5.235  13.096  0.00  0.00    +0.000 A 
ATOM      3  C   UNL     1      47.019   5.563  13.747  0.00  0.00    +0.000 A 
ATOM      4  C   UNL     1      47.875   6.514  13.190  0.00  0.00    +0.000 A 
ATOM      5  C   UNL     1      47.496   7.079  11.979  0.00  0.00    +0.000 A 
ATOM      6  N   UNL     1      46.353   6.778  11.323  0.00  0.00    +0.000 NA
ENDROOT
BRANCH   1   7
ATOM      7  C   UNL     1      44.250   5.517  11.137  0.00  0.00    +0.000 C 
BRANCH   7   8
ATOM      8  N   UNL     1      44.490   5.110   9.749  0.00  0.00    +0.000 NA
ATOM      9  H   UNL     1      44.014   5.738   9.099  0.00  0.00    +0.000 HD
BRANCH   8  11
ATOM     10  C   UNL     1      44.049   2.833  10.675  0.00  0.00    +0.000 C 
ATOM     11  C   UNL     1      44.056   3.738   9.438  0.00  0.00    +0.000 C 
BRANCH  11  12
ATOM     12  C   UNL     1      44.961   3.127   8.309  0.00  0.00    +0.000 C 
ATOM     13  C   UNL     1      45.719   1.866   8.773  0.00  0.00    +0.000 C 
ATOM     14  C   UNL     1      46.580   1.287   7.656  0.00  0.00    +0.000 C 
ATOM     15  C   UNL     1      47.492   2.357   7.071  0.00  0.00    +0.000 C 
ATOM     16  C   UNL     1      46.702   3.602   6.679  0.00  0.00    +0.000 C 
ATOM     17  N   UNL     1      45.930   4.134   7.807  0.00  0.00    +0.000 NA
ATOM     18  H   UNL     1      45.419   4.959   7.495  0.00  0.00    +0.000 HD
ENDBRANCH  11  12
ENDBRANCH   8  11
ENDBRANCH   7   8
ENDBRANCH   1   7
BRANCH   4  19
ATOM     19  C   UNL     1      49.186   6.871  13.821  0.00  0.00    +0.000 C 
BRANCH  19  20
ATOM     20  N   UNL     1      49.090   6.831  15.260  0.00  0.00    +0.000 N 
ATOM     21  C   UNL     1      50.181   7.070  16.054  0.00  0.00    +0.000 C 
ATOM     22  O   UNL     1      51.271   7.382  15.584  0.00  0.00    +0.000 OA
ATOM     23  H   UNL     1      48.280   6.368  15.658  0.00  0.00    +0.000 HD
BRANCH  21  24
ATOM     24  C   UNL     1      49.963   6.994  17.505  0.00  0.00    +0.000 A 
ATOM     25  C   UNL     1      50.190   8.115  18.291  0.00  0.00    +0.000 A 
ATOM     26  S   UNL     1      49.852   7.871  19.944  0.00  0.00    +0.000 S 
ATOM     27  C   UNL     1      49.437   6.243  19.677  0.00  0.00    +0.000 A 
ATOM     28  N   UNL     1      49.070   5.437  20.707  0.00  0.00    +0.000 NA
ATOM     29  C   UNL     1      48.814   4.217  20.367  0.00  0.00    +0.000 A 
ATOM     30  N   UNL     1      48.883   3.734  19.085  0.00  0.00    +0.000 N 
ATOM     31  C   UNL     1      49.217   4.519  18.008  0.00  0.00    +0.000 A 
ATOM     32  O   UNL     1      49.222   4.071  16.867  0.00  0.00    +0.000 OA
ATOM     33  C   UNL     1      49.536   5.895  18.339  0.00  0.00    +0.000 A 
ATOM     34  H   UNL     1      48.658   2.770  18.885  0.00  0.00    +0.000 HD
ENDBRANCH  21  24
ENDBRANCH  19  20
ENDBRANCH   4  19
TORSDOF 7
ENDMDL
MODEL 5
REMARK VINA RESULT:    -7.463      2.877      3.888
REMARK INTER + INTRA:         -11.630
REMARK INTER:                 -10.562
REMARK INTRA:                  -1.068
REMARK UNBOUND:                -1.114
REMARK  Name = 
REMARK  8 active torsions:
REMARK  status: ('A' for Active; 'I' for Inactive)
REMARK    1  A    between atoms: C_1  and  C_2
REMARK    2  A    between atoms: C_2  and  N_3
REMARK    3  A    between atoms: C_2  and  C_25
REMARK    4  A    between atoms: N_3  and  C_4
REMARK    5  A    between atoms: C_4  and  C_5
REMARK    6  A    between atoms: C_8  and  C_9
REMARK    7  A    between atoms: C_9  and  N_10
REMARK    8  A    between atoms: C_11  and  C_13
REMARK                            x       y       z     vdW  Elec       q    Type
REMARK                         _______ _______ _______ _____ _____    ______ ____
ROOT
ATOM      1  C   UNL     1      46.893   4.743  13.789  0.00  0.00    +0.000 A 
ATOM      2  C   UNL     1      47.622   5.932  13.779  0.00  0.00    +0.000 A 
ATOM      3  C   UNL     1      48.225   6.366  14.957  0.00  0.00    +0.000 A 
ATOM      4  C   UNL     1      48.098   5.609  16.122  0.00  0.00    +0.000 A 
ATOM      5  C   UNL     1      47.341   4.447  16.045  0.00  0.00    +0.000 A 
ATOM      6  N   UNL     1      46.740   4.002  14.918  0.00  0.00    +0.000 NA
ENDROOT
BRANCH   1   7
ATOM      7  C   UNL     1      46.198   4.248  12.532  0.00  0.00    +0.000 C 
BRANCH   7   8
ATOM      8  N   UNL     1      44.754   4.504  12.527  0.00  0.00    +0.000 NA
ATOM      9  H   UNL     1      44.330   4.210  13.408  0.00  0.00    +0.000 HD
BRANCH   8  11
ATOM     10  C   UNL     1      43.302   2.567  11.913  0.00  0.00    +0.000 C 
ATOM     11  C   UNL     1      44.026   3.832  11.439  0.00  0.00    +0.000 C 
BRANCH  11  12
ATOM     12  C   UNL     1      45.005   3.500  10.256  0.00  0.00    +0.000 C 
ATOM     13  C   UNL     1      45.006   4.590   9.164  0.00  0.00    +0.000 C 
ATOM     14  C   UNL     1      45.972   4.250   8.034  0.00  0.00    +0.000 C 
ATOM     15  C   UNL     1      45.694   2.854   7.492  0.00  0.00    +0.000 C 
ATOM     16  C   UNL     1      45.648   1.824   8.617  0.00  0.00    +0.000 C 
ATOM     17  N   UNL     1      44.671   2.187   9.649  0.00  0.00    +0.000 NA
ATOM     18  H   UNL     1      44.681   1.473  10.376  0.00  0.00    +0.000 HD
ENDBRANCH  11  12
ENDBRANCH   8  11
ENDBRANCH   7   8
ENDBRANCH   1   7
BRANCH   4  19
ATOM     19  C   UNL     1      48.686   6.051  17.428  0.00  0.00    +0.000 C 
BRANCH  19  20
ATOM     20  N   UNL     1      49.768   5.183  17.822  0.00  0.00    +0.000 N 
ATOM     21  C   UNL     1      51.046   5.388  17.370  0.00  0.00    +0.000 C 
ATOM     22  O   UNL     1      51.339   6.344  16.658  0.00  0.00    +0.000 OA
ATOM     23  H   UNL     1      49.521   4.282  18.216  0.00  0.00    +0.000 HD
BRANCH  21  24
ATOM     24  C   UNL     1      52.064   4.435  17.833  0.00  0.00    +0.000 A 
ATOM     25  C   UNL     1      53.237   4.908  18.404  0.00  0.00    +0.000 A 
ATOM     26  S   UNL     1      54.292   3.675  18.924  0.00  0.00    +0.000 S 
ATOM     27  C   UNL     1      53.242   2.461  18.360  0.00  0.00    +0.000 A 
ATOM     28  N   UNL     1      53.567   1.147  18.472  0.00  0.00    +0.000 NA
ATOM     29  C   UNL     1      52.695   0.335  17.972  0.00  0.00    +0.000 A 
ATOM     30  N   UNL     1      51.521   0.721  17.379  0.00  0.00    +0.000 N 
ATOM     31  C   UNL     1      51.134   2.035  17.273  0.00  0.00    +0.000 A 
ATOM     32  O   UNL     1      50.055   2.347  16.781  0.00  0.00    +0.000 OA
ATOM     33  C   UNL     1      52.091   2.991  17.799  0.00  0.00    +0.000 A 
ATOM     34  H   UNL     1      50.875   0.033  17.018  0.00  0.00    +0.000 HD
ENDBRANCH  21  24
ENDBRANCH  19  20
ENDBRANCH   4  19
TORSDOF 7
ENDMDL
MODEL 6
REMARK VINA RESULT:    -7.349      2.861      8.324
REMARK INTER + INTRA:         -11.470
REMARK INTER:                  -9.768
REMARK INTRA:                  -1.702
REMARK UNBOUND:                -1.114
REMARK  Name = 
REMARK  8 active torsions:
REMARK  status: ('A' for Active; 'I' for Inactive)
REMARK    1  A    between atoms: C_1  and  C_2
REMARK    2  A    between atoms: C_2  and  N_3
REMARK    3  A    between atoms: C_2  and  C_25
REMARK    4  A    between atoms: N_3  and  C_4
REMARK    5  A    between atoms: C_4  and  C_5
REMARK    6  A    between atoms: C_8  and  C_9
REMARK    7  A    between atoms: C_9  and  N_10
REMARK    8  A    between atoms: C_11  and  C_13
REMARK                            x       y       z     vdW  Elec       q    Type
REMARK                         _______ _______ _______ _____ _____    ______ ____
ROOT
ATOM      1  C   UNL     1      50.528   7.343  15.160  0.00  0.00    +0.000 A 
ATOM      2  C   UNL     1      50.875   8.237  14.148  0.00  0.00    +0.000 A 
ATOM      3  C   UNL     1      49.997   8.427  13.083  0.00  0.00    +0.000 A 
ATOM      4  C   UNL     1      48.789   7.730  13.047  0.00  0.00    +0.000 A 
ATOM      5  C   UNL     1      48.532   6.849  14.089  0.00  0.00    +0.000 A 
ATOM      6  N   UNL     1      49.366   6.640  15.133  0.00  0.00    +0.000 NA
ENDROOT
BRANCH   1   7
ATOM      7  C   UNL     1      51.470   7.086  16.325  0.00  0.00    +0.000 C 
BRANCH   7   8
ATOM      8  N   UNL     1      50.781   6.965  17.613  0.00  0.00    +0.000 NA
ATOM      9  H   UNL     1      51.092   7.689  18.262  0.00  0.00    +0.000 HD
BRANCH   8  11
ATOM     10  C   UNL     1      52.082   4.832  17.629  0.00  0.00    +0.000 C 
ATOM     11  C   UNL     1      50.971   5.665  18.278  0.00  0.00    +0.000 C 
BRANCH  11  12
ATOM     12  C   UNL     1      49.618   4.865  18.299  0.00  0.00    +0.000 C 
ATOM     13  C   UNL     1      49.628   3.659  17.338  0.00  0.00    +0.000 C 
ATOM     14  C   UNL     1      48.309   2.894  17.386  0.00  0.00    +0.000 C 
ATOM     15  C   UNL     1      47.133   3.836  17.160  0.00  0.00    +0.000 C 
ATOM     16  C   UNL     1      47.202   5.039  18.095  0.00  0.00    +0.000 C 
ATOM     17  N   UNL     1      48.476   5.755  17.970  0.00  0.00    +0.000 NA
ATOM     18  H   UNL     1      48.473   6.544  18.616  0.00  0.00    +0.000 HD
ENDBRANCH  11  12
ENDBRANCH   8  11
ENDBRANCH   7   8
ENDBRANCH   1   7
BRANCH   4  19
ATOM     19  C   UNL     1      47.828   7.861  11.904  0.00  0.00    +0.000 C 
BRANCH  19  20
ATOM     20  N   UNL     1      47.067   6.647  11.733  0.00  0.00    +0.000 N 
ATOM     21  C   UNL     1      45.698   6.648  11.805  0.00  0.00    +0.000 C 
ATOM     22  O   UNL     1      45.056   7.682  11.962  0.00  0.00    +0.000 OA
ATOM     23  H   UNL     1      47.567   5.769  11.824  0.00  0.00    +0.000 HD
BRANCH  21  24
ATOM     24  C   UNL     1      45.033   5.351  11.623  0.00  0.00    +0.000 A 
ATOM     25  C   UNL     1      44.330   4.787  12.678  0.00  0.00    +0.000 A 
ATOM     26  S   UNL     1      43.585   3.304  12.290  0.00  0.00    +0.000 S 
ATOM     27  C   UNL     1      44.215   3.336  10.710  0.00  0.00    +0.000 A 
ATOM     28  N   UNL     1      43.972   2.323   9.839  0.00  0.00    +0.000 NA
ATOM     29  C   UNL     1      44.539   2.460   8.686  0.00  0.00    +0.000 A 
ATOM     30  N   UNL     1      45.319   3.527   8.324  0.00  0.00    +0.000 N 
ATOM     31  C   UNL     1      45.565   4.591   9.158  0.00  0.00    +0.000 A 
ATOM     32  O   UNL     1      46.226   5.555   8.788  0.00  0.00    +0.000 OA
ATOM     33  C   UNL     1      44.969   4.475  10.476  0.00  0.00    +0.000 A 
ATOM     34  H   UNL     1      45.724   3.579   7.400  0.00  0.00    +0.000 HD
ENDBRANCH  21  24
ENDBRANCH  19  20
ENDBRANCH   4  19
TORSDOF 7
ENDMDL
MODEL 7
REMARK VINA RESULT:    -7.082      3.178      7.964
REMARK INTER + INTRA:         -11.094
REMARK INTER:                  -9.765
REMARK INTRA:                  -1.329
REMARK UNBOUND:                -1.114
REMARK  Name = 
REMARK  8 active torsions:
REMARK  status: ('A' for Active; 'I' for Inactive)
REMARK    1  A    between atoms: C_1  and  C_2
REMARK    2  A    between atoms: C_2  and  N_3
REMARK    3  A    between atoms: C_2  and  C_25
REMARK    4  A    between atoms: N_3  and  C_4
REMARK    5  A    between atoms: C_4  and  C_5
REMARK    6  A    between atoms: C_8  and  C_9
REMARK    7  A    between atoms: C_9  and  N_10
REMARK    8  A    between atoms: C_11  and  C_13
REMARK                            x       y       z     vdW  Elec       q    Type
REMARK                         _______ _______ _______ _____ _____    ______ ____
ROOT
ATOM      1  C   UNL     1      48.764   7.890  16.116  0.00  0.00    +0.000 A 
ATOM      2  C   UNL     1      49.385   6.935  15.311  0.00  0.00    +0.000 A 
ATOM      3  C   UNL     1      49.264   7.035  13.927  0.00  0.00    +0.000 A 
ATOM      4  C   UNL     1      48.533   8.084  13.368  0.00  0.00    +0.000 A 
ATOM      5  C   UNL     1      47.935   8.979  14.245  0.00  0.00    +0.000 A 
ATOM      6  N   UNL     1      48.031   8.906  15.592  0.00  0.00    +0.000 NA
ENDROOT
BRANCH   1   7
ATOM      7  C   UNL     1      48.849   7.801  17.631  0.00  0.00    +0.000 C 
BRANCH   7   8
ATOM      8  N   UNL     1      47.748   7.042  18.232  0.00  0.00    +0.000 NA
ATOM      9  H   UNL     1      47.031   7.670  18.599  0.00  0.00    +0.000 HD
BRANCH   8  11
ATOM     10  C   UNL     1      49.460   6.605  19.997  0.00  0.00    +0.000 C 
ATOM     11  C   UNL     1      48.158   6.149  19.328  0.00  0.00    +0.000 C 
BRANCH  11  12
ATOM     12  C   UNL     1      48.291   4.674  18.804  0.00  0.00    +0.000 C 
ATOM     13  C   UNL     1      49.601   4.437  18.025  0.00  0.00    +0.000 C 
ATOM     14  C   UNL     1      49.710   2.996  17.538  0.00  0.00    +0.000 C 
ATOM     15  C   UNL     1      48.464   2.597  16.757  0.00  0.00    +0.000 C 
ATOM     16  C   UNL     1      47.196   2.903  17.548  0.00  0.00    +0.000 C 
ATOM     17  N   UNL     1      47.131   4.313  17.950  0.00  0.00    +0.000 NA
ATOM     18  H   UNL     1      46.271   4.465  18.476  0.00  0.00    +0.000 HD
ENDBRANCH  11  12
ENDBRANCH   8  11
ENDBRANCH   7   8
ENDBRANCH   1   7
BRANCH   4  19
ATOM     19  C   UNL     1      48.331   8.214  11.889  0.00  0.00    +0.000 C 
BRANCH  19  20
ATOM     20  N   UNL     1      47.632   7.067  11.364  0.00  0.00    +0.000 N 
ATOM     21  C   UNL     1      46.262   7.013  11.347  0.00  0.00    +0.000 C 
ATOM     22  O   UNL     1      45.570   7.954  11.724  0.00  0.00    +0.000 OA
ATOM     23  H   UNL     1      48.163   6.209  11.258  0.00  0.00    +0.000 HD
BRANCH  21  24
ATOM     24  C   UNL     1      45.663   5.791  10.796  0.00  0.00    +0.000 A 
ATOM     25  C   UNL     1      45.825   5.495   9.450  0.00  0.00    +0.000 A 
ATOM     26  S   UNL     1      45.104   4.023   8.981  0.00  0.00    +0.000 S 
ATOM     27  C   UNL     1      44.504   3.751  10.549  0.00  0.00    +0.000 A 
ATOM     28  N   UNL     1      43.756   2.654  10.832  0.00  0.00    +0.000 NA
ATOM     29  C   UNL     1      43.339   2.589  12.053  0.00  0.00    +0.000 A 
ATOM     30  N   UNL     1      43.613   3.523  13.020  0.00  0.00    +0.000 N 
ATOM     31  C   UNL     1      44.392   4.630  12.790  0.00  0.00    +0.000 A 
ATOM     32  O   UNL     1      44.660   5.422  13.687  0.00  0.00    +0.000 OA
ATOM     33  C   UNL     1      44.868   4.762  11.426  0.00  0.00    +0.000 A 
ATOM     34  H   UNL     1      43.265   3.407  13.961  0.00  0.00    +0.000 HD
ENDBRANCH  21  24
ENDBRANCH  19  20
ENDBRANCH   4  19
TORSDOF 7
ENDMDL
MODEL 8
REMARK VINA RESULT:    -7.041      4.393      9.509
REMARK INTER + INTRA:         -11.036
REMARK INTER:                 -10.101
REMARK INTRA:                  -0.935
REMARK UNBOUND:                -1.114
REMARK  Name = 
REMARK  8 active torsions:
REMARK  status: ('A' for Active; 'I' for Inactive)
REMARK    1  A    between atoms: C_1  and  C_2
REMARK    2  A    between atoms: C_2  and  N_3
REMARK    3  A    between atoms: C_2  and  C_25
REMARK    4  A    between atoms: N_3  and  C_4
REMARK    5  A    between atoms: C_4  and  C_5
REMARK    6  A    between atoms: C_8  and  C_9
REMARK    7  A    between atoms: C_9  and  N_10
REMARK    8  A    between atoms: C_11  and  C_13
REMARK                            x       y       z     vdW  Elec       q    Type
REMARK                         _______ _______ _______ _____ _____    ______ ____
ROOT
ATOM      1  C   UNL     1      51.272   3.610  18.054  0.00  0.00    +0.000 A 
ATOM      2  C   UNL     1      50.816   2.465  17.402  0.00  0.00    +0.000 A 
ATOM      3  C   UNL     1      49.474   2.387  17.031  0.00  0.00    +0.000 A 
ATOM      4  C   UNL     1      48.614   3.449  17.311  0.00  0.00    +0.000 A 
ATOM      5  C   UNL     1      49.151   4.543  17.977  0.00  0.00    +0.000 A 
ATOM      6  N   UNL     1      50.446   4.646  18.354  0.00  0.00    +0.000 NA
ENDROOT
BRANCH   1   7
ATOM      7  C   UNL     1      52.721   3.724  18.499  0.00  0.00    +0.000 C 
BRANCH   7   8
ATOM      8  N   UNL     1      53.187   2.563  19.263  0.00  0.00    +0.000 NA
ATOM      9  H   UNL     1      52.871   2.615  20.233  0.00  0.00    +0.000 HD
BRANCH   8  11
ATOM     10  C   UNL     1      55.384   3.659  18.808  0.00  0.00    +0.000 C 
ATOM     11  C   UNL     1      54.650   2.401  19.282  0.00  0.00    +0.000 C 
BRANCH  11  12
ATOM     12  C   UNL     1      55.068   1.156  18.419  0.00  0.00    +0.000 C 
ATOM     13  C   UNL     1      55.085   1.461  16.907  0.00  0.00    +0.000 C 
ATOM     14  C   UNL     1      55.504   0.241  16.095  0.00  0.00    +0.000 C 
ATOM     15  C   UNL     1      54.648  -0.966  16.456  0.00  0.00    +0.000 C 
ATOM     16  C   UNL     1      54.620  -1.190  17.965  0.00  0.00    +0.000 C 
ATOM     17  N   UNL     1      54.168   0.005  18.686  0.00  0.00    +0.000 NA
ATOM     18  H   UNL     1      54.170  -0.194  19.686  0.00  0.00    +0.000 HD
ENDBRANCH  11  12
ENDBRANCH   8  11
ENDBRANCH   7   8
ENDBRANCH   1   7
BRANCH   4  19
ATOM     19  C   UNL     1      47.154   3.400  16.977  0.00  0.00    +0.000 C 
BRANCH  19  20
ATOM     20  N   UNL     1      46.827   4.375  15.966  0.00  0.00    +0.000 N 
ATOM     21  C   UNL     1      46.983   4.098  14.632  0.00  0.00    +0.000 C 
ATOM     22  O   UNL     1      47.353   2.996  14.236  0.00  0.00    +0.000 OA
ATOM     23  H   UNL     1      46.737   5.341  16.263  0.00  0.00    +0.000 HD
BRANCH  21  24
ATOM     24  C   UNL     1      46.624   5.171  13.695  0.00  0.00    +0.000 A 
ATOM     25  C   UNL     1      47.532   6.189  13.440  0.00  0.00    +0.000 A 
ATOM     26  S   UNL     1      46.979   7.329  12.300  0.00  0.00    +0.000 S 
ATOM     27  C   UNL     1      45.485   6.532  12.142  0.00  0.00    +0.000 A 
ATOM     28  N   UNL     1      44.516   7.016  11.322  0.00  0.00    +0.000 NA
ATOM     29  C   UNL     1      43.421   6.330  11.324  0.00  0.00    +0.000 A 
ATOM     30  N   UNL     1      43.213   5.197  12.066  0.00  0.00    +0.000 N 
ATOM     31  C   UNL     1      44.173   4.651  12.883  0.00  0.00    +0.000 A 
ATOM     32  O   UNL     1      43.974   3.609  13.497  0.00  0.00    +0.000 OA
ATOM     33  C   UNL     1      45.417   5.397  12.935  0.00  0.00    +0.000 A 
ATOM     34  H   UNL     1      42.335   4.700  12.013  0.00  0.00    +0.000 HD
ENDBRANCH  21  24
ENDBRANCH  19  20
ENDBRANCH   4  19
TORSDOF 7
ENDMDL
MODEL 9
REMARK VINA RESULT:    -6.529      4.746      9.678
REMARK INTER + INTRA:         -10.315
REMARK INTER:                  -9.117
REMARK INTRA:                  -1.198
REMARK UNBOUND:                -1.114
REMARK  Name = 
REMARK  8 active torsions:
REMARK  status: ('A' for Active; 'I' for Inactive)
REMARK    1  A    between atoms: C_1  and  C_2
REMARK    2  A    between atoms: C_2  and  N_3
REMARK    3  A    between atoms: C_2  and  C_25
REMARK    4  A    between atoms: N_3  and  C_4
REMARK    5  A    between atoms: C_4  and  C_5
REMARK    6  A    between atoms: C_8  and  C_9
REMARK    7  A    between atoms: C_9  and  N_10
REMARK    8  A    between atoms: C_11  and  C_13
REMARK                            x       y       z     vdW  Elec       q    Type
REMARK                         _______ _______ _______ _____ _____    ______ ____
ROOT
ATOM      1  C   UNL     1      51.391   3.237  17.900  0.00  0.00    +0.000 A 
ATOM      2  C   UNL     1      50.760   2.156  17.283  0.00  0.00    +0.000 A 
ATOM      3  C   UNL     1      49.420   2.273  16.920  0.00  0.00    +0.000 A 
ATOM      4  C   UNL     1      48.734   3.462  17.170  0.00  0.00    +0.000 A 
ATOM      5  C   UNL     1      49.436   4.480  17.802  0.00  0.00    +0.000 A 
ATOM      6  N   UNL     1      50.735   4.395  18.171  0.00  0.00    +0.000 NA
ENDROOT
BRANCH   1   7
ATOM      7  C   UNL     1      52.844   3.140  18.337  0.00  0.00    +0.000 C 
BRANCH   7   8
ATOM      8  N   UNL     1      53.294   1.763  18.556  0.00  0.00    +0.000 NA
ATOM      9  H   UNL     1      53.069   1.452  19.502  0.00  0.00    +0.000 HD
BRANCH   8  11
ATOM     10  C   UNL     1      55.244   2.201  17.057  0.00  0.00    +0.000 C 
ATOM     11  C   UNL     1      54.739   1.562  18.355  0.00  0.00    +0.000 C 
BRANCH  11  12
ATOM     12  C   UNL     1      55.082   0.029  18.389  0.00  0.00    +0.000 C 
ATOM     13  C   UNL     1      54.673  -0.700  17.092  0.00  0.00    +0.000 C 
ATOM     14  C   UNL     1      55.027  -2.182  17.147  0.00  0.00    +0.000 C 
ATOM     15  C   UNL     1      54.458  -2.825  18.405  0.00  0.00    +0.000 C 
ATOM     16  C   UNL     1      54.845  -2.035  19.652  0.00  0.00    +0.000 C 
ATOM     17  N   UNL     1      54.439  -0.629  19.555  0.00  0.00    +0.000 NA
ATOM     18  H   UNL     1      54.722  -0.146  20.407  0.00  0.00    +0.000 HD
ENDBRANCH  11  12
ENDBRANCH   8  11
ENDBRANCH   7   8
ENDBRANCH   1   7
BRANCH   4  19
ATOM     19  C   UNL     1      47.281   3.627  16.843  0.00  0.00    +0.000 C 
BRANCH  19  20
ATOM     20  N   UNL     1      47.095   4.644  15.837  0.00  0.00    +0.000 N 
ATOM     21  C   UNL     1      47.132   4.340  14.501  0.00  0.00    +0.000 C 
ATOM     22  O   UNL     1      47.269   3.188  14.100  0.00  0.00    +0.000 OA
ATOM     23  H   UNL     1      47.202   5.610  16.128  0.00  0.00    +0.000 HD
BRANCH  21  24
ATOM     24  C   UNL     1      46.937   5.459  13.570  0.00  0.00    +0.000 A 
ATOM     25  C   UNL     1      45.856   5.446  12.699  0.00  0.00    +0.000 A 
ATOM     26  S   UNL     1      45.752   6.836  11.717  0.00  0.00    +0.000 S 
ATOM     27  C   UNL     1      47.177   7.483  12.383  0.00  0.00    +0.000 A 
ATOM     28  N   UNL     1      47.674   8.671  11.952  0.00  0.00    +0.000 NA
ATOM     29  C   UNL     1      48.778   9.028  12.520  0.00  0.00    +0.000 A 
ATOM     30  N   UNL     1      49.425   8.305  13.489  0.00  0.00    +0.000 N 
ATOM     31  C   UNL     1      48.943   7.116  13.980  0.00  0.00    +0.000 A 
ATOM     32  O   UNL     1      49.518   6.516  14.882  0.00  0.00    +0.000 OA
ATOM     33  C   UNL     1      47.715   6.659  13.359  0.00  0.00    +0.000 A 
ATOM     34  H   UNL     1      50.281   8.647  13.902  0.00  0.00    +0.000 HD
ENDBRANCH  21  24
ENDBRANCH  19  20
ENDBRANCH   4  19
TORSDOF 7
ENDMDL
