MODEL 1
REMARK VINA RESULT:    -6.520      0.000      0.000
REMARK INTER + INTRA:          -9.441
REMARK INTER:                  -8.807
REMARK INTRA:                  -0.634
REMARK UNBOUND:                -0.634
REMARK  Name = 
REMARK  9 active torsions:
REMARK  status: ('A' for Active; 'I' for Inactive)
REMARK    1  A    between atoms: C_1  and  C_2
REMARK    2  A    between atoms: C_2  and  N_3
REMARK    3  A    between atoms: N_3  and  C_4
REMARK    4  A    between atoms: N_3  and  C_5
REMARK    5  A    between atoms: C_5  and  C_6
REMARK    6  A    between atoms: C_5  and  C_7
REMARK    7  A    between atoms: C_10  and  O_11
REMARK    8  A    between atoms: O_11  and  C_12
REMARK    9  A    between atoms: C_12  and  C_13
REMARK                            x       y       z     vdW  Elec       q    Type
REMARK                         _______ _______ _______ _____ _____    ______ ____
ROOT
ATOM      1  C   UNL     1      45.917   5.370  12.328  0.00  0.00    +0.000 A 
ATOM      2  C   UNL     1      45.404   4.097  12.610  0.00  0.00    +0.000 A 
ATOM      3  C   UNL     1      44.860   3.339  11.576  0.00  0.00    +0.000 A 
ATOM      4  C   UNL     1      44.845   3.867  10.287  0.00  0.00    +0.000 A 
ATOM      5  C   UNL     1      45.323   5.157  10.113  0.00  0.00    +0.000 A 
ATOM      6  N   UNL     1      45.866   5.909  11.089  0.00  0.00    +0.000 NA
ENDROOT
BRANCH   1   7
ATOM      7  C   UNL     1      46.550   6.220  13.434  0.00  0.00    +0.000 C 
ATOM      8  C   UNL     1      47.341   5.247  14.332  0.00  0.00    +0.000 C 
BRANCH   7   9
ATOM      9  N   UNL     1      47.387   7.334  12.913  0.00  0.00    +0.000 NA
ATOM     10  C   UNL     1      47.159   8.591  13.632  0.00  0.00    +0.000 C 
BRANCH   9  12
ATOM     11  C   UNL     1      49.570   7.630  11.648  0.00  0.00    +0.000 C 
ATOM     12  C   UNL     1      48.823   7.025  12.834  0.00  0.00    +0.000 C 
ENDBRANCH   9  12
ENDBRANCH   7   9
ENDBRANCH   1   7
BRANCH   4  13
ATOM     13  O   UNL     1      44.373   3.093   9.267  0.00  0.00    +0.000 OA
BRANCH  13  14
ATOM     14  C   UNL     1      45.128   1.886   9.055  0.00  0.00    +0.000 C 
BRANCH  14  15
ATOM     15  C   UNL     1      46.049   2.059   7.901  0.00  0.00    +0.000 A 
ATOM     16  C   UNL     1      46.007   3.164   7.072  0.00  0.00    +0.000 A 
ATOM     17  N   UNL     1      46.832   3.341   6.026  0.00  0.00    +0.000 NA
ATOM     18  C   UNL     1      47.731   2.366   5.825  0.00  0.00    +0.000 A 
ATOM     19  N   UNL     1      47.886   1.261   6.574  0.00  0.00    +0.000 NA
ATOM     20  C   UNL     1      47.032   1.140   7.604  0.00  0.00    +0.000 A 
ENDBRANCH  14  15
ENDBRANCH  13  14
ENDBRANCH   4  13
TORSDOF 6
ENDMDL
MODEL 2
REMARK VINA RESULT:    -6.261      0.968      1.399
REMARK INTER + INTRA:          -9.092
REMARK INTER:                  -8.378
REMARK INTRA:                  -0.714
REMARK UNBOUND:                -0.634
REMARK  Name = 
REMARK  9 active torsions:
REMARK  status: ('A' for Active; 'I' for Inactive)
REMARK    1  A    between atoms: C_1  and  C_2
REMARK    2  A    between atoms: C_2  and  N_3
REMARK    3  A    between atoms: N_3  and  C_4
REMARK    4  A    between atoms: N_3  and  C_5
REMARK    5  A    between atoms: C_5  and  C_6
REMARK    6  A    between atoms: C_5  and  C_7
REMARK    7  A    between atoms: C_10  and  O_11
REMARK    8  A    between atoms: O_11  and  C_12
REMARK    9  A    between atoms: C_12  and  C_13
REMARK                            x       y       z     vdW  Elec       q    Type
REMARK                         _______ _______ _______ _____ _____    ______ ____
ROOT
ATOM      1  C   UNL     1      46.299   5.947  12.638  0.00  0.00    +0.000 A 
ATOM      2  C   UNL     1      45.804   4.708  13.066  0.00  0.00    +0.000 A 
ATOM      3  C   UNL     1      45.076   3.922  12.176  0.00  0.00    +0.000 A 
ATOM      4  C   UNL     1      44.865   4.387  10.881  0.00  0.00    +0.000 A 
ATOM      5  C   UNL     1      45.343   5.650  10.564  0.00  0.00    +0.000 A 
ATOM      6  N   UNL     1      46.060   6.427  11.397  0.00  0.00    +0.000 NA
ENDROOT
BRANCH   1   7
ATOM      7  C   UNL     1      47.128   6.825  13.579  0.00  0.00    +0.000 C 
ATOM      8  C   UNL     1      47.919   5.863  14.488  0.00  0.00    +0.000 C 
BRANCH   7   9
ATOM      9  N   UNL     1      48.003   7.792  12.863  0.00  0.00    +0.000 NA
ATOM     10  C   UNL     1      47.881   9.155  13.388  0.00  0.00    +0.000 C 
BRANCH   9  12
ATOM     11  C   UNL     1      50.138   7.748  11.487  0.00  0.00    +0.000 C 
ATOM     12  C   UNL     1      49.414   7.384  12.781  0.00  0.00    +0.000 C 
ENDBRANCH   9  12
ENDBRANCH   7   9
ENDBRANCH   1   7
BRANCH   4  13
ATOM     13  O   UNL     1      44.210   3.583   9.994  0.00  0.00    +0.000 OA
BRANCH  13  14
ATOM     14  C   UNL     1      44.501   3.880   8.616  0.00  0.00    +0.000 C 
BRANCH  14  15
ATOM     15  C   UNL     1      45.569   2.976   8.116  0.00  0.00    +0.000 A 
ATOM     16  C   UNL     1      45.629   1.635   8.449  0.00  0.00    +0.000 A 
ATOM     17  N   UNL     1      46.584   0.800   8.006  0.00  0.00    +0.000 NA
ATOM     18  C   UNL     1      47.501   1.347   7.193  0.00  0.00    +0.000 A 
ATOM     19  N   UNL     1      47.535   2.625   6.779  0.00  0.00    +0.000 NA
ATOM     20  C   UNL     1      46.554   3.411   7.256  0.00  0.00    +0.000 A 
ENDBRANCH  14  15
ENDBRANCH  13  14
ENDBRANCH   4  13
TORSDOF 6
ENDMDL
MODEL 3
REMARK VINA RESULT:    -6.055      3.669      7.496
REMARK INTER + INTRA:          -8.814
REMARK INTER:                  -8.274
REMARK INTRA:                  -0.540
REMARK UNBOUND:                -0.634
REMARK  Name = 
REMARK  9 active torsions:
REMARK  status: ('A' for Active; 'I' for Inactive)
REMARK    1  A    between atoms: C_1  and  C_2
REMARK    2  A    between atoms: C_2  and  N_3
REMARK    3  A    between atoms: N_3  and  C_4
REMARK    4  A    between atoms: N_3  and  C_5
REMARK    5  A    between atoms: C_5  and  C_6
REMARK    6  A    between atoms: C_5  and  C_7
REMARK    7  A    between atoms: C_10  and  O_11
REMARK    8  A    between atoms: O_11  and  C_12
REMARK    9  A    between atoms: C_12  and  C_13
REMARK                            x       y       z     vdW  Elec       q    Type
REMARK                         _______ _______ _______ _____ _____    ______ ____
ROOT
ATOM      1  C   UNL     1      45.355   4.063  12.025  0.00  0.00    +0.000 A 
ATOM      2  C   UNL     1      45.695   5.409  12.210  0.00  0.00    +0.000 A 
ATOM      3  C   UNL     1      46.511   5.763  13.281  0.00  0.00    +0.000 A 
ATOM      4  C   UNL     1      46.973   4.766  14.137  0.00  0.00    +0.000 A 
ATOM      5  C   UNL     1      46.539   3.469  13.909  0.00  0.00    +0.000 A 
ATOM      6  N   UNL     1      45.762   3.094  12.876  0.00  0.00    +0.000 NA
ENDROOT
BRANCH   1   7
ATOM      7  C   UNL     1      44.484   3.632  10.841  0.00  0.00    +0.000 C 
ATOM      8  C   UNL     1      43.580   4.835  10.505  0.00  0.00    +0.000 C 
BRANCH   7   9
ATOM      9  N   UNL     1      45.273   3.159   9.671  0.00  0.00    +0.000 NA
ATOM     10  C   UNL     1      44.740   1.919   9.099  0.00  0.00    +0.000 C 
BRANCH   9  12
ATOM     11  C   UNL     1      46.357   3.760   7.454  0.00  0.00    +0.000 C 
ATOM     12  C   UNL     1      45.475   4.176   8.628  0.00  0.00    +0.000 C 
ENDBRANCH   9  12
ENDBRANCH   7   9
ENDBRANCH   1   7
BRANCH   4  13
ATOM     13  O   UNL     1      47.827   5.110  15.144  0.00  0.00    +0.000 OA
BRANCH  13  14
ATOM     14  C   UNL     1      47.601   4.390  16.370  0.00  0.00    +0.000 C 
BRANCH  14  15
ATOM     15  C   UNL     1      48.820   3.623  16.740  0.00  0.00    +0.000 A 
ATOM     16  C   UNL     1      49.023   2.311  16.352  0.00  0.00    +0.000 A 
ATOM     17  N   UNL     1      50.118   1.602  16.673  0.00  0.00    +0.000 NA
ATOM     18  C   UNL     1      51.036   2.251  17.405  0.00  0.00    +0.000 A 
ATOM     19  N   UNL     1      50.964   3.527  17.819  0.00  0.00    +0.000 NA
ATOM     20  C   UNL     1      49.846   4.185  17.468  0.00  0.00    +0.000 A 
ENDBRANCH  14  15
ENDBRANCH  13  14
ENDBRANCH   4  13
TORSDOF 6
ENDMDL
MODEL 4
REMARK VINA RESULT:    -6.052      3.174      4.731
REMARK INTER + INTRA:          -8.809
REMARK INTER:                  -8.267
REMARK INTRA:                  -0.542
REMARK UNBOUND:                -0.634
REMARK  Name = 
REMARK  9 active torsions:
REMARK  status: ('A' for Active; 'I' for Inactive)
REMARK    1  A    between atoms: C_1  and  C_2
REMARK    2  A    between atoms: C_2  and  N_3
REMARK    3  A    between atoms: N_3  and  C_4
REMARK    4  A    between atoms: N_3  and  C_5
REMARK    5  A    between atoms: C_5  and  C_6
REMARK    6  A    between atoms: C_5  and  C_7
REMARK    7  A    between atoms: C_10  and  O_11
REMARK    8  A    between atoms: O_11  and  C_12
REMARK    9  A    between atoms: C_12  and  C_13
REMARK                            x       y       z     vdW  Elec       q    Type
REMARK                         _______ _______ _______ _____ _____    ______ ____
ROOT
ATOM      1  C   UNL     1      47.681   4.828  15.556  0.00  0.00    +0.000 A 
ATOM      2  C   UNL     1      48.189   5.996  14.971  0.00  0.00    +0.000 A 
ATOM      3  C   UNL     1      47.718   6.390  13.721  0.00  0.00    +0.000 A 
ATOM      4  C   UNL     1      46.749   5.614  13.088  0.00  0.00    +0.000 A 
ATOM      5  C   UNL     1      46.348   4.445  13.718  0.00  0.00    +0.000 A 
ATOM      6  N   UNL     1      46.774   4.045  14.930  0.00  0.00    +0.000 NA
ENDROOT
BRANCH   1   7
ATOM      7  C   UNL     1      48.153   4.380  16.943  0.00  0.00    +0.000 C 
ATOM      8  C   UNL     1      47.143   3.319  17.425  0.00  0.00    +0.000 C 
BRANCH   7   9
ATOM      9  N   UNL     1      49.557   3.887  16.955  0.00  0.00    +0.000 NA
ATOM     10  C   UNL     1      50.429   4.698  17.809  0.00  0.00    +0.000 C 
BRANCH   9  12
ATOM     11  C   UNL     1      51.117   1.908  17.275  0.00  0.00    +0.000 C 
ATOM     12  C   UNL     1      49.692   2.457  17.272  0.00  0.00    +0.000 C 
ENDBRANCH   9  12
ENDBRANCH   7   9
ENDBRANCH   1   7
BRANCH   4  13
ATOM     13  O   UNL     1      46.243   6.041  11.895  0.00  0.00    +0.000 OA
BRANCH  13  14
ATOM     14  C   UNL     1      44.944   5.502  11.589  0.00  0.00    +0.000 C 
BRANCH  14  15
ATOM     15  C   UNL     1      45.012   4.690  10.346  0.00  0.00    +0.000 A 
ATOM     16  C   UNL     1      44.404   3.454  10.227  0.00  0.00    +0.000 A 
ATOM     17  N   UNL     1      44.450   2.706   9.112  0.00  0.00    +0.000 NA
ATOM     18  C   UNL     1      45.131   3.237   8.085  0.00  0.00    +0.000 A 
ATOM     19  N   UNL     1      45.741   4.434   8.070  0.00  0.00    +0.000 NA
ATOM     20  C   UNL     1      45.660   5.135   9.214  0.00  0.00    +0.000 A 
ENDBRANCH  14  15
ENDBRANCH  13  14
ENDBRANCH   4  13
TORSDOF 6
ENDMDL
MODEL 5
REMARK VINA RESULT:    -5.856      2.097      3.389
REMARK INTER + INTRA:          -8.544
REMARK INTER:                  -8.272
REMARK INTRA:                  -0.272
REMARK UNBOUND:                -0.634
REMARK  Name = 
REMARK  9 active torsions:
REMARK  status: ('A' for Active; 'I' for Inactive)
REMARK    1  A    between atoms: C_1  and  C_2
REMARK    2  A    between atoms: C_2  and  N_3
REMARK    3  A    between atoms: N_3  and  C_4
REMARK    4  A    between atoms: N_3  and  C_5
REMARK    5  A    between atoms: C_5  and  C_6
REMARK    6  A    between atoms: C_5  and  C_7
REMARK    7  A    between atoms: C_10  and  O_11
REMARK    8  A    between atoms: O_11  and  C_12
REMARK    9  A    between atoms: C_12  and  C_13
REMARK                            x       y       z     vdW  Elec       q    Type
REMARK                         _______ _______ _______ _____ _____    ______ ____
ROOT
ATOM      1  C   UNL     1      46.986   4.918  13.728  0.00  0.00    +0.000 A 
ATOM      2  C   UNL     1      46.648   5.967  12.863  0.00  0.00    +0.000 A 
ATOM      3  C   UNL     1      45.697   5.750  11.869  0.00  0.00    +0.000 A 
ATOM      4  C   UNL     1      45.103   4.494  11.766  0.00  0.00    +0.000 A 
ATOM      5  C   UNL     1      45.541   3.500  12.628  0.00  0.00    +0.000 A 
ATOM      6  N   UNL     1      46.448   3.683  13.606  0.00  0.00    +0.000 NA
ENDROOT
BRANCH   1   7
ATOM      7  C   UNL     1      48.005   5.128  14.851  0.00  0.00    +0.000 C 
ATOM      8  C   UNL     1      48.352   6.630  14.850  0.00  0.00    +0.000 C 
BRANCH   7   9
ATOM      9  N   UNL     1      47.528   4.648  16.177  0.00  0.00    +0.000 NA
ATOM     10  C   UNL     1      47.812   3.227  16.394  0.00  0.00    +0.000 C 
BRANCH   9  12
ATOM     11  C   UNL     1      47.057   5.499  18.523  0.00  0.00    +0.000 C 
ATOM     12  C   UNL     1      47.989   5.458  17.315  0.00  0.00    +0.000 C 
ENDBRANCH   9  12
ENDBRANCH   7   9
ENDBRANCH   1   7
BRANCH   4  13
ATOM     13  O   UNL     1      44.123   4.307  10.834  0.00  0.00    +0.000 OA
BRANCH  13  14
ATOM     14  C   UNL     1      44.128   2.996  10.241  0.00  0.00    +0.000 C 
BRANCH  14  15
ATOM     15  C   UNL     1      45.068   2.963   9.090  0.00  0.00    +0.000 A 
ATOM     16  C   UNL     1      45.718   1.810   8.689  0.00  0.00    +0.000 A 
ATOM     17  N   UNL     1      46.568   1.759   7.650  0.00  0.00    +0.000 NA
ATOM     18  C   UNL     1      46.756   2.915   6.996  0.00  0.00    +0.000 A 
ATOM     19  N   UNL     1      46.166   4.090   7.274  0.00  0.00    +0.000 NA
ATOM     20  C   UNL     1      45.327   4.079   8.324  0.00  0.00    +0.000 A 
ENDBRANCH  14  15
ENDBRANCH  13  14
ENDBRANCH   4  13
TORSDOF 6
ENDMDL
MODEL 6
REMARK VINA RESULT:    -5.586      3.449      8.245
REMARK INTER + INTRA:          -8.179
REMARK INTER:                  -7.668
REMARK INTRA:                  -0.511
REMARK UNBOUND:                -0.634
REMARK  Name = 
REMARK  9 active torsions:
REMARK  status: ('A' for Active; 'I' for Inactive)
REMARK    1  A    between atoms: C_1  and  C_2
REMARK    2  A    between atoms: C_2  and  N_3
REMARK    3  A    between atoms: N_3  and  C_4
REMARK    4  A    between atoms: N_3  and  C_5
REMARK    5  A    between atoms: C_5  and  C_6
REMARK    6  A    between atoms: C_5  and  C_7
REMARK    7  A    between atoms: C_10  and  O_11
REMARK    8  A    between atoms: O_11  and  C_12
REMARK    9  A    between atoms: C_12  and  C_13
REMARK                            x       y       z     vdW  Elec       q    Type
REMARK                         _______ _______ _______ _____ _____    ______ ____
ROOT
ATOM      1  C   UNL     1      45.324   4.103  11.971  0.00  0.00    +0.000 A 
ATOM      2  C   UNL     1      45.594   5.470  12.119  0.00  0.00    +0.000 A 
ATOM      3  C   UNL     1      46.441   5.889  13.142  0.00  0.00    +0.000 A 
ATOM      4  C   UNL     1      47.001   4.935  13.988  0.00  0.00    +0.000 A 
ATOM      5  C   UNL     1      46.632   3.611  13.802  0.00  0.00    +0.000 A 
ATOM      6  N   UNL     1      45.827   3.175  12.815  0.00  0.00    +0.000 NA
ENDROOT
BRANCH   1   7
ATOM      7  C   UNL     1      44.421   3.603  10.839  0.00  0.00    +0.000 C 
ATOM      8  C   UNL     1      43.451   4.756  10.514  0.00  0.00    +0.000 C 
BRANCH   7   9
ATOM      9  N   UNL     1      45.178   3.133   9.647  0.00  0.00    +0.000 NA
ATOM     10  C   UNL     1      44.648   1.879   9.105  0.00  0.00    +0.000 C 
BRANCH   9  12
ATOM     11  C   UNL     1      46.102   3.702   7.351  0.00  0.00    +0.000 C 
ATOM     12  C   UNL     1      45.326   4.144   8.588  0.00  0.00    +0.000 C 
ENDBRANCH   9  12
ENDBRANCH   7   9
ENDBRANCH   1   7
BRANCH   4  13
ATOM     13  O   UNL     1      47.883   5.345  14.946  0.00  0.00    +0.000 OA
BRANCH  13  14
ATOM     14  C   UNL     1      47.857   4.544  16.141  0.00  0.00    +0.000 C 
BRANCH  14  15
ATOM     15  C   UNL     1      48.125   5.396  17.329  0.00  0.00    +0.000 A 
ATOM     16  C   UNL     1      47.412   5.277  18.508  0.00  0.00    +0.000 A 
ATOM     17  N   UNL     1      47.641   6.034  19.595  0.00  0.00    +0.000 NA
ATOM     18  C   UNL     1      48.628   6.935  19.477  0.00  0.00    +0.000 A 
ATOM     19  N   UNL     1      49.404   7.127  18.397  0.00  0.00    +0.000 NA
ATOM     20  C   UNL     1      49.128   6.340  17.342  0.00  0.00    +0.000 A 
ENDBRANCH  14  15
ENDBRANCH  13  14
ENDBRANCH   4  13
TORSDOF 6
ENDMDL
MODEL 7
REMARK VINA RESULT:    -5.487      3.058      4.359
REMARK INTER + INTRA:          -8.046
REMARK INTER:                  -7.410
REMARK INTRA:                  -0.637
REMARK UNBOUND:                -0.634
REMARK  Name = 
REMARK  9 active torsions:
REMARK  status: ('A' for Active; 'I' for Inactive)
REMARK    1  A    between atoms: C_1  and  C_2
REMARK    2  A    between atoms: C_2  and  N_3
REMARK    3  A    between atoms: N_3  and  C_4
REMARK    4  A    between atoms: N_3  and  C_5
REMARK    5  A    between atoms: C_5  and  C_6
REMARK    6  A    between atoms: C_5  and  C_7
REMARK    7  A    between atoms: C_10  and  O_11
REMARK    8  A    between atoms: O_11  and  C_12
REMARK    9  A    between atoms: C_12  and  C_13
REMARK                            x       y       z     vdW  Elec       q    Type
REMARK                         _______ _______ _______ _____ _____    ______ ____
ROOT
ATOM      1  C   UNL     1      47.671   4.995  15.626  0.00  0.00    +0.000 A 
ATOM      2  C   UNL     1      48.236   6.093  14.963  0.00  0.00    +0.000 A 
ATOM      3  C   UNL     1      47.817   6.396  13.670  0.00  0.00    +0.000 A 
ATOM      4  C   UNL     1      46.842   5.601  13.072  0.00  0.00    +0.000 A 
ATOM      5  C   UNL     1      46.381   4.502  13.783  0.00  0.00    +0.000 A 
ATOM      6  N   UNL     1      46.757   4.192  15.037  0.00  0.00    +0.000 NA
ENDROOT
BRANCH   1   7
ATOM      7  C   UNL     1      48.085   4.650  17.060  0.00  0.00    +0.000 C 
ATOM      8  C   UNL     1      48.520   3.171  17.043  0.00  0.00    +0.000 C 
BRANCH   7   9
ATOM      9  N   UNL     1      49.135   5.554  17.603  0.00  0.00    +0.000 NA
ATOM     10  C   UNL     1      48.791   6.082  18.926  0.00  0.00    +0.000 C 
BRANCH   9  12
ATOM     11  C   UNL     1      51.582   5.848  16.990  0.00  0.00    +0.000 C 
ATOM     12  C   UNL     1      50.488   4.977  17.602  0.00  0.00    +0.000 C 
ENDBRANCH   9  12
ENDBRANCH   7   9
ENDBRANCH   1   7
BRANCH   4  13
ATOM     13  O   UNL     1      46.387   5.943  11.832  0.00  0.00    +0.000 OA
BRANCH  13  14
ATOM     14  C   UNL     1      45.068   5.447  11.540  0.00  0.00    +0.000 C 
BRANCH  14  15
ATOM     15  C   UNL     1      45.090   4.654  10.283  0.00  0.00    +0.000 A 
ATOM     16  C   UNL     1      45.713   5.097   9.131  0.00  0.00    +0.000 A 
ATOM     17  N   UNL     1      45.747   4.394   7.987  0.00  0.00    +0.000 NA
ATOM     18  C   UNL     1      45.134   3.201   8.020  0.00  0.00    +0.000 A 
ATOM     19  N   UNL     1      44.520   2.652   9.082  0.00  0.00    +0.000 NA
ATOM     20  C   UNL     1      44.518   3.403  10.197  0.00  0.00    +0.000 A 
ENDBRANCH  14  15
ENDBRANCH  13  14
ENDBRANCH   4  13
TORSDOF 6
ENDMDL
MODEL 8
REMARK VINA RESULT:    -5.138      2.464      3.885
REMARK INTER + INTRA:          -7.575
REMARK INTER:                  -6.996
REMARK INTRA:                  -0.578
REMARK UNBOUND:                -0.634
REMARK  Name = 
REMARK  9 active torsions:
REMARK  status: ('A' for Active; 'I' for Inactive)
REMARK    1  A    between atoms: C_1  and  C_2
REMARK    2  A    between atoms: C_2  and  N_3
REMARK    3  A    between atoms: N_3  and  C_4
REMARK    4  A    between atoms: N_3  and  C_5
REMARK    5  A    between atoms: C_5  and  C_6
REMARK    6  A    between atoms: C_5  and  C_7
REMARK    7  A    between atoms: C_10  and  O_11
REMARK    8  A    between atoms: O_11  and  C_12
REMARK    9  A    between atoms: C_12  and  C_13
REMARK                            x       y       z     vdW  Elec       q    Type
REMARK                         _______ _______ _______ _____ _____    ______ ____
ROOT
ATOM      1  C   UNL     1      48.228   6.544  14.354  0.00  0.00    +0.000 A 
ATOM      2  C   UNL     1      47.653   7.069  13.190  0.00  0.00    +0.000 A 
ATOM      3  C   UNL     1      46.640   6.358  12.551  0.00  0.00    +0.000 A 
ATOM      4  C   UNL     1      46.222   5.145  13.091  0.00  0.00    +0.000 A 
ATOM      5  C   UNL     1      46.888   4.676  14.215  0.00  0.00    +0.000 A 
ATOM      6  N   UNL     1      47.860   5.346  14.861  0.00  0.00    +0.000 NA
ENDROOT
BRANCH   1   7
ATOM      7  C   UNL     1      49.323   7.312  15.101  0.00  0.00    +0.000 C 
ATOM      8  C   UNL     1      50.198   7.981  14.022  0.00  0.00    +0.000 C 
BRANCH   7   9
ATOM      9  N   UNL     1      48.788   8.283  16.093  0.00  0.00    +0.000 NA
ATOM     10  C   UNL     1      48.838   7.769  17.465  0.00  0.00    +0.000 C 
BRANCH   9  12
ATOM     11  C   UNL     1      48.733  10.700  16.872  0.00  0.00    +0.000 C 
ATOM     12  C   UNL     1      49.388   9.624  16.011  0.00  0.00    +0.000 C 
ENDBRANCH   9  12
ENDBRANCH   7   9
ENDBRANCH   1   7
BRANCH   4  13
ATOM     13  O   UNL     1      45.183   4.486  12.500  0.00  0.00    +0.000 OA
BRANCH  13  14
ATOM     14  C   UNL     1      44.580   5.210  11.412  0.00  0.00    +0.000 C 
BRANCH  14  15
ATOM     15  C   UNL     1      44.844   4.509  10.128  0.00  0.00    +0.000 A 
ATOM     16  C   UNL     1      45.655   5.039   9.141  0.00  0.00    +0.000 A 
ATOM     17  N   UNL     1      45.909   4.420   7.976  0.00  0.00    +0.000 NA
ATOM     18  C   UNL     1      45.324   3.224   7.814  0.00  0.00    +0.000 A 
ATOM     19  N   UNL     1      44.538   2.597   8.706  0.00  0.00    +0.000 NA
ATOM     20  C   UNL     1      44.321   3.265   9.852  0.00  0.00    +0.000 A 
ENDBRANCH  14  15
ENDBRANCH  13  14
ENDBRANCH   4  13
TORSDOF 6
ENDMDL
MODEL 9
REMARK VINA RESULT:    -5.037      3.874      8.389
REMARK INTER + INTRA:          -7.439
REMARK INTER:                  -6.830
REMARK INTRA:                  -0.609
REMARK UNBOUND:                -0.634
REMARK  Name = 
REMARK  9 active torsions:
REMARK  status: ('A' for Active; 'I' for Inactive)
REMARK    1  A    between atoms: C_1  and  C_2
REMARK    2  A    between atoms: C_2  and  N_3
REMARK    3  A    between atoms: N_3  and  C_4
REMARK    4  A    between atoms: N_3  and  C_5
REMARK    5  A    between atoms: C_5  and  C_6
REMARK    6  A    between atoms: C_5  and  C_7
REMARK    7  A    between atoms: C_10  and  O_11
REMARK    8  A    between atoms: O_11  and  C_12
REMARK    9  A    between atoms: C_12  and  C_13
REMARK                            x       y       z     vdW  Elec       q    Type
REMARK                         _______ _______ _______ _____ _____    ______ ____
ROOT
ATOM      1  C   UNL     1      45.956   5.504  12.381  0.00  0.00    +0.000 A 
ATOM      2  C   UNL     1      45.933   4.306  13.108  0.00  0.00    +0.000 A 
ATOM      3  C   UNL     1      46.760   4.171  14.221  0.00  0.00    +0.000 A 
ATOM      4  C   UNL     1      47.583   5.234  14.584  0.00  0.00    +0.000 A 
ATOM      5  C   UNL     1      47.581   6.358  13.772  0.00  0.00    +0.000 A 
ATOM      6  N   UNL     1      46.785   6.523  12.699  0.00  0.00    +0.000 NA
ENDROOT
BRANCH   1   7
ATOM      7  C   UNL     1      45.040   5.700  11.169  0.00  0.00    +0.000 C 
ATOM      8  C   UNL     1      45.964   5.864   9.946  0.00  0.00    +0.000 C 
BRANCH   7   9
ATOM      9  N   UNL     1      44.047   4.605  10.999  0.00  0.00    +0.000 NA
ATOM     10  C   UNL     1      42.694   5.008  11.393  0.00  0.00    +0.000 C 
BRANCH   9  12
ATOM     11  C   UNL     1      44.432   2.518   9.603  0.00  0.00    +0.000 C 
ATOM     12  C   UNL     1      44.046   3.994   9.661  0.00  0.00    +0.000 C 
ENDBRANCH   9  12
ENDBRANCH   7   9
ENDBRANCH   1   7
BRANCH   4  13
ATOM     13  O   UNL     1      48.340   5.120  15.714  0.00  0.00    +0.000 OA
BRANCH  13  14
ATOM     14  C   UNL     1      47.788   4.225  16.696  0.00  0.00    +0.000 C 
BRANCH  14  15
ATOM     15  C   UNL     1      48.055   4.743  18.063  0.00  0.00    +0.000 A 
ATOM     16  C   UNL     1      47.163   5.551  18.744  0.00  0.00    +0.000 A 
ATOM     17  N   UNL     1      47.384   6.026  19.981  0.00  0.00    +0.000 NA
ATOM     18  C   UNL     1      48.547   5.663  20.543  0.00  0.00    +0.000 A 
ATOM     19  N   UNL     1      49.480   4.866  19.995  0.00  0.00    +0.000 NA
ATOM     20  C   UNL     1      49.202   4.421  18.757  0.00  0.00    +0.000 A 
ENDBRANCH  14  15
ENDBRANCH  13  14
ENDBRANCH   4  13
TORSDOF 6
ENDMDL
