MODEL 1
REMARK VINA RESULT:    -9.203      0.000      0.000
REMARK INTER + INTRA:         -13.316
REMARK INTER:                 -12.431
REMARK INTRA:                  -0.885
REMARK UNBOUND:                -0.885
REMARK  Name = 
REMARK  6 active torsions:
REMARK  status: ('A' for Active; 'I' for Inactive)
REMARK    1  A    between atoms: C_2  and  C_4
REMARK    2  A    between atoms: C_7  and  N_8
REMARK    3  A    between atoms: N_8  and  C_9
REMARK    4  A    between atoms: C_9  and  C_10
REMARK    5  A    between atoms: C_12  and  C_13
REMARK    6  A    between atoms: C_20  and  N_21
REMARK                            x       y       z     vdW  Elec       q    Type
REMARK                         _______ _______ _______ _____ _____    ______ ____
ROOT
ATOM      1  C   UNL     1      44.634   5.203  11.878  0.00  0.00    +0.000 A 
ATOM      2  C   UNL     1      44.911   6.572  11.674  0.00  0.00    +0.000 A 
ATOM      3  C   UNL     1      45.925   7.258  12.372  0.00  0.00    +0.000 A 
ATOM      4  C   UNL     1      46.691   6.512  13.282  0.00  0.00    +0.000 A 
ATOM      5  C   UNL     1      46.443   5.144  13.482  0.00  0.00    +0.000 A 
ATOM      6  C   UNL     1      45.417   4.486  12.788  0.00  0.00    +0.000 A 
ENDROOT
BRANCH   3   7
ATOM      7  C   UNL     1      46.154   8.706  12.172  0.00  0.00    +0.000 A 
ATOM      8  C   UNL     1      47.436   9.276  12.180  0.00  0.00    +0.000 A 
ATOM      9  C   UNL     1      47.608  10.651  12.008  0.00  0.00    +0.000 A 
ATOM     10  C   UNL     1      46.486  11.436  11.820  0.00  0.00    +0.000 A 
ATOM     11  N   UNL     1      45.232  10.945  11.799  0.00  0.00    +0.000 NA
ATOM     12  C   UNL     1      45.101   9.607  11.978  0.00  0.00    +0.000 A 
ENDBRANCH   3   7
BRANCH   5  13
ATOM     13  N   UNL     1      47.267   4.400  14.444  0.00  0.00    +0.000 N 
ATOM     14  O   UNL     1      47.865   5.044  15.318  0.00  0.00    +0.000 OA
ATOM     15  O   UNL     1      47.318   3.167  14.323  0.00  0.00    +0.000 OA
ENDBRANCH   5  13
BRANCH   1  16
ATOM     16  C   UNL     1      43.505   4.554  11.101  0.00  0.00    +0.000 C 
BRANCH  16  17
ATOM     17  N   UNL     1      43.733   4.800   9.682  0.00  0.00    +0.000 N 
ATOM     18  H   UNL     1      42.867   4.794   9.149  0.00  0.00    +0.000 HD
BRANCH  17  22
ATOM     19  C   UNL     1      46.413   2.350   7.756  0.00  0.00    +0.000 A 
ATOM     20  C   UNL     1      46.406   3.715   7.517  0.00  0.00    +0.000 A 
ATOM     21  N   UNL     1      45.559   4.568   8.157  0.00  0.00    +0.000 NA
ATOM     22  C   UNL     1      44.711   4.022   9.054  0.00  0.00    +0.000 A 
ATOM     23  C   UNL     1      44.743   2.638   9.285  0.00  0.00    +0.000 A 
ATOM     24  N   UNL     1      45.580   1.768   8.660  0.00  0.00    +0.000 NA
BRANCH  19  26
ATOM     25  N   UNL     1      48.476   2.051   6.522  0.00  0.00    +0.000 N 
ATOM     26  C   UNL     1      47.331   1.464   6.987  0.00  0.00    +0.000 C 
ATOM     27  O   UNL     1      47.086   0.281   6.794  0.00  0.00    +0.000 OA
ATOM     28  H   UNL     1      49.158   1.490   6.032  0.00  0.00    +0.000 HD
ATOM     29  H   UNL     1      48.673   3.021   6.738  0.00  0.00    +0.000 HD
ENDBRANCH  19  26
ENDBRANCH  17  22
ENDBRANCH  16  17
ENDBRANCH   1  16
TORSDOF 6
ENDMDL
MODEL 2
REMARK VINA RESULT:    -8.926      1.226      1.671
REMARK INTER + INTRA:         -12.942
REMARK INTER:                 -12.033
REMARK INTRA:                  -0.909
REMARK UNBOUND:                -0.885
REMARK  Name = 
REMARK  6 active torsions:
REMARK  status: ('A' for Active; 'I' for Inactive)
REMARK    1  A    between atoms: C_2  and  C_4
REMARK    2  A    between atoms: C_7  and  N_8
REMARK    3  A    between atoms: N_8  and  C_9
REMARK    4  A    between atoms: C_9  and  C_10
REMARK    5  A    between atoms: C_12  and  C_13
REMARK    6  A    between atoms: C_20  and  N_21
REMARK                            x       y       z     vdW  Elec       q    Type
REMARK                         _______ _______ _______ _____ _____    ______ ____
ROOT
ATOM      1  C   UNL     1      44.894   5.109  12.053  0.00  0.00    +0.000 A 
ATOM      2  C   UNL     1      45.594   6.290  11.727  0.00  0.00    +0.000 A 
ATOM      3  C   UNL     1      46.746   6.710  12.421  0.00  0.00    +0.000 A 
ATOM      4  C   UNL     1      47.205   5.881  13.457  0.00  0.00    +0.000 A 
ATOM      5  C   UNL     1      46.532   4.691  13.780  0.00  0.00    +0.000 A 
ATOM      6  C   UNL     1      45.377   4.302  13.087  0.00  0.00    +0.000 A 
ENDROOT
BRANCH   3   7
ATOM      7  C   UNL     1      47.426   7.981  12.088  0.00  0.00    +0.000 A 
ATOM      8  C   UNL     1      48.774   8.038  11.701  0.00  0.00    +0.000 A 
ATOM      9  C   UNL     1      49.384   9.260  11.414  0.00  0.00    +0.000 A 
ATOM     10  C   UNL     1      48.626  10.413  11.510  0.00  0.00    +0.000 A 
ATOM     11  N   UNL     1      47.329  10.419  11.872  0.00  0.00    +0.000 NA
ATOM     12  C   UNL     1      46.770   9.215  12.152  0.00  0.00    +0.000 A 
ENDBRANCH   3   7
BRANCH   5  13
ATOM     13  N   UNL     1      47.045   3.853  14.872  0.00  0.00    +0.000 N 
ATOM     14  O   UNL     1      47.709   2.849  14.572  0.00  0.00    +0.000 OA
ATOM     15  O   UNL     1      46.781   4.197  16.033  0.00  0.00    +0.000 OA
ENDBRANCH   5  13
BRANCH   1  16
ATOM     16  C   UNL     1      43.646   4.749  11.268  0.00  0.00    +0.000 C 
BRANCH  16  17
ATOM     17  N   UNL     1      43.926   4.958   9.852  0.00  0.00    +0.000 N 
ATOM     18  H   UNL     1      43.094   5.222   9.333  0.00  0.00    +0.000 HD
BRANCH  17  22
ATOM     19  C   UNL     1      46.214   2.099   7.984  0.00  0.00    +0.000 A 
ATOM     20  C   UNL     1      45.214   1.734   8.871  0.00  0.00    +0.000 A 
ATOM     21  N   UNL     1      44.410   2.646   9.487  0.00  0.00    +0.000 NA
ATOM     22  C   UNL     1      44.627   3.944   9.190  0.00  0.00    +0.000 A 
ATOM     23  C   UNL     1      45.641   4.288   8.281  0.00  0.00    +0.000 A 
ATOM     24  N   UNL     1      46.453   3.397   7.654  0.00  0.00    +0.000 NA
BRANCH  19  26
ATOM     25  N   UNL     1      46.784  -0.238   7.699  0.00  0.00    +0.000 N 
ATOM     26  C   UNL     1      47.091   1.057   7.381  0.00  0.00    +0.000 C 
ATOM     27  O   UNL     1      48.020   1.338   6.636  0.00  0.00    +0.000 OA
ATOM     28  H   UNL     1      47.315  -0.990   7.285  0.00  0.00    +0.000 HD
ATOM     29  H   UNL     1      45.979  -0.441   8.280  0.00  0.00    +0.000 HD
ENDBRANCH  19  26
ENDBRANCH  17  22
ENDBRANCH  16  17
ENDBRANCH   1  16
TORSDOF 6
ENDMDL
MODEL 3
REMARK VINA RESULT:    -8.255      2.188      4.327
REMARK INTER + INTRA:         -12.035
REMARK INTER:                 -11.162
REMARK INTRA:                  -0.873
REMARK UNBOUND:                -0.885
REMARK  Name = 
REMARK  6 active torsions:
REMARK  status: ('A' for Active; 'I' for Inactive)
REMARK    1  A    between atoms: C_2  and  C_4
REMARK    2  A    between atoms: C_7  and  N_8
REMARK    3  A    between atoms: N_8  and  C_9
REMARK    4  A    between atoms: C_9  and  C_10
REMARK    5  A    between atoms: C_12  and  C_13
REMARK    6  A    between atoms: C_20  and  N_21
REMARK                            x       y       z     vdW  Elec       q    Type
REMARK                         _______ _______ _______ _____ _____    ______ ____
ROOT
ATOM      1  C   UNL     1      44.655   5.429  11.834  0.00  0.00    +0.000 A 
ATOM      2  C   UNL     1      45.330   4.746  12.868  0.00  0.00    +0.000 A 
ATOM      3  C   UNL     1      46.331   5.349  13.655  0.00  0.00    +0.000 A 
ATOM      4  C   UNL     1      46.627   6.695  13.389  0.00  0.00    +0.000 A 
ATOM      5  C   UNL     1      45.951   7.397  12.377  0.00  0.00    +0.000 A 
ATOM      6  C   UNL     1      44.969   6.770  11.595  0.00  0.00    +0.000 A 
ENDROOT
BRANCH   3   7
ATOM      7  C   UNL     1      47.056   4.589  14.697  0.00  0.00    +0.000 A 
ATOM      8  C   UNL     1      47.486   5.175  15.897  0.00  0.00    +0.000 A 
ATOM      9  C   UNL     1      48.185   4.427  16.847  0.00  0.00    +0.000 A 
ATOM     10  C   UNL     1      48.434   3.093  16.581  0.00  0.00    +0.000 A 
ATOM     11  N   UNL     1      48.043   2.477  15.450  0.00  0.00    +0.000 NA
ATOM     12  C   UNL     1      47.374   3.235  14.545  0.00  0.00    +0.000 A 
ENDBRANCH   3   7
BRANCH   5  13
ATOM     13  N   UNL     1      46.291   8.804  12.130  0.00  0.00    +0.000 N 
ATOM     14  O   UNL     1      47.480   9.085  11.914  0.00  0.00    +0.000 OA
ATOM     15  O   UNL     1      45.368   9.631  12.154  0.00  0.00    +0.000 OA
ENDBRANCH   5  13
BRANCH   1  16
ATOM     16  C   UNL     1      43.609   4.690  11.021  0.00  0.00    +0.000 C 
BRANCH  16  17
ATOM     17  N   UNL     1      43.889   4.918   9.609  0.00  0.00    +0.000 N 
ATOM     18  H   UNL     1      43.039   4.964   9.053  0.00  0.00    +0.000 HD
BRANCH  17  22
ATOM     19  C   UNL     1      46.466   2.304   7.760  0.00  0.00    +0.000 A 
ATOM     20  C   UNL     1      46.542   3.665   7.511  0.00  0.00    +0.000 A 
ATOM     21  N   UNL     1      45.731   4.570   8.126  0.00  0.00    +0.000 NA
ATOM     22  C   UNL     1      44.835   4.081   9.008  0.00  0.00    +0.000 A 
ATOM     23  C   UNL     1      44.783   2.699   9.250  0.00  0.00    +0.000 A 
ATOM     24  N   UNL     1      45.582   1.777   8.650  0.00  0.00    +0.000 NA
BRANCH  19  26
ATOM     25  N   UNL     1      48.457   1.913   6.437  0.00  0.00    +0.000 N 
ATOM     26  C   UNL     1      47.348   1.360   7.017  0.00  0.00    +0.000 C 
ATOM     27  O   UNL     1      47.106   0.163   6.942  0.00  0.00    +0.000 OA
ATOM     28  H   UNL     1      49.116   1.316   5.958  0.00  0.00    +0.000 HD
ATOM     29  H   UNL     1      48.655   2.900   6.557  0.00  0.00    +0.000 HD
ENDBRANCH  19  26
ENDBRANCH  17  22
ENDBRANCH  16  17
ENDBRANCH   1  16
TORSDOF 6
ENDMDL
MODEL 4
REMARK VINA RESULT:    -8.013      2.656      3.755
REMARK INTER + INTRA:         -11.708
REMARK INTER:                 -10.924
REMARK INTRA:                  -0.784
REMARK UNBOUND:                -0.885
REMARK  Name = 
REMARK  6 active torsions:
REMARK  status: ('A' for Active; 'I' for Inactive)
REMARK    1  A    between atoms: C_2  and  C_4
REMARK    2  A    between atoms: C_7  and  N_8
REMARK    3  A    between atoms: N_8  and  C_9
REMARK    4  A    between atoms: C_9  and  C_10
REMARK    5  A    between atoms: C_12  and  C_13
REMARK    6  A    between atoms: C_20  and  N_21
REMARK                            x       y       z     vdW  Elec       q    Type
REMARK                         _______ _______ _______ _____ _____    ______ ____
ROOT
ATOM      1  C   UNL     1      44.669   6.257  11.595  0.00  0.00    +0.000 A 
ATOM      2  C   UNL     1      45.908   6.291  12.269  0.00  0.00    +0.000 A 
ATOM      3  C   UNL     1      46.579   7.492  12.573  0.00  0.00    +0.000 A 
ATOM      4  C   UNL     1      45.948   8.689  12.199  0.00  0.00    +0.000 A 
ATOM      5  C   UNL     1      44.704   8.674  11.545  0.00  0.00    +0.000 A 
ATOM      6  C   UNL     1      44.063   7.465  11.237  0.00  0.00    +0.000 A 
ENDROOT
BRANCH   3   7
ATOM      7  C   UNL     1      47.902   7.489  13.235  0.00  0.00    +0.000 A 
ATOM      8  C   UNL     1      48.952   8.328  12.828  0.00  0.00    +0.000 A 
ATOM      9  C   UNL     1      50.192   8.280  13.467  0.00  0.00    +0.000 A 
ATOM     10  C   UNL     1      50.360   7.395  14.516  0.00  0.00    +0.000 A 
ATOM     11  N   UNL     1      49.389   6.570  14.952  0.00  0.00    +0.000 NA
ATOM     12  C   UNL     1      48.199   6.636  14.303  0.00  0.00    +0.000 A 
ENDBRANCH   3   7
BRANCH   5  13
ATOM     13  N   UNL     1      44.078   9.949  11.169  0.00  0.00    +0.000 N 
ATOM     14  O   UNL     1      43.693  10.698  12.078  0.00  0.00    +0.000 OA
ATOM     15  O   UNL     1      43.969  10.200   9.960  0.00  0.00    +0.000 OA
ENDBRANCH   5  13
BRANCH   1  16
ATOM     16  C   UNL     1      44.032   4.915  11.286  0.00  0.00    +0.000 C 
BRANCH  16  17
ATOM     17  N   UNL     1      43.860   4.818   9.841  0.00  0.00    +0.000 N 
ATOM     18  H   UNL     1      42.921   4.524   9.588  0.00  0.00    +0.000 HD
BRANCH  17  22
ATOM     19  C   UNL     1      46.486   2.502   7.690  0.00  0.00    +0.000 A 
ATOM     20  C   UNL     1      46.462   3.877   7.528  0.00  0.00    +0.000 A 
ATOM     21  N   UNL     1      45.632   4.687   8.243  0.00  0.00    +0.000 NA
ATOM     22  C   UNL     1      44.821   4.085   9.137  0.00  0.00    +0.000 A 
ATOM     23  C   UNL     1      44.870   2.690   9.290  0.00  0.00    +0.000 A 
ATOM     24  N   UNL     1      45.690   1.863   8.588  0.00  0.00    +0.000 NA
BRANCH  19  26
ATOM     25  N   UNL     1      48.493   2.297   6.349  0.00  0.00    +0.000 N 
ATOM     26  C   UNL     1      47.383   1.667   6.841  0.00  0.00    +0.000 C 
ATOM     27  O   UNL     1      47.150   0.489   6.609  0.00  0.00    +0.000 OA
ATOM     28  H   UNL     1      49.161   1.771   5.804  0.00  0.00    +0.000 HD
ATOM     29  H   UNL     1      48.684   3.261   6.597  0.00  0.00    +0.000 HD
ENDBRANCH  19  26
ENDBRANCH  17  22
ENDBRANCH  16  17
ENDBRANCH   1  16
TORSDOF 6
ENDMDL
MODEL 5
REMARK VINA RESULT:    -7.834      2.552      4.419
REMARK INTER + INTRA:         -11.467
REMARK INTER:                 -10.804
REMARK INTRA:                  -0.663
REMARK UNBOUND:                -0.885
REMARK  Name = 
REMARK  6 active torsions:
REMARK  status: ('A' for Active; 'I' for Inactive)
REMARK    1  A    between atoms: C_2  and  C_4
REMARK    2  A    between atoms: C_7  and  N_8
REMARK    3  A    between atoms: N_8  and  C_9
REMARK    4  A    between atoms: C_9  and  C_10
REMARK    5  A    between atoms: C_12  and  C_13
REMARK    6  A    between atoms: C_20  and  N_21
REMARK                            x       y       z     vdW  Elec       q    Type
REMARK                         _______ _______ _______ _____ _____    ______ ____
ROOT
ATOM      1  C   UNL     1      45.635   5.344  12.274  0.00  0.00    +0.000 A 
ATOM      2  C   UNL     1      46.033   4.866  13.540  0.00  0.00    +0.000 A 
ATOM      3  C   UNL     1      47.150   5.376  14.231  0.00  0.00    +0.000 A 
ATOM      4  C   UNL     1      47.860   6.420  13.618  0.00  0.00    +0.000 A 
ATOM      5  C   UNL     1      47.465   6.922  12.366  0.00  0.00    +0.000 A 
ATOM      6  C   UNL     1      46.359   6.387  11.689  0.00  0.00    +0.000 A 
ENDROOT
BRANCH   3   7
ATOM      7  C   UNL     1      47.571   4.815  15.535  0.00  0.00    +0.000 A 
ATOM      8  C   UNL     1      47.151   3.555  15.986  0.00  0.00    +0.000 A 
ATOM      9  C   UNL     1      47.555   3.071  17.232  0.00  0.00    +0.000 A 
ATOM     10  C   UNL     1      48.386   3.858  18.006  0.00  0.00    +0.000 A 
ATOM     11  N   UNL     1      48.823   5.073  17.624  0.00  0.00    +0.000 NA
ATOM     12  C   UNL     1      48.405   5.516  16.413  0.00  0.00    +0.000 A 
ENDBRANCH   3   7
BRANCH   5  13
ATOM     13  N   UNL     1      48.235   8.015  11.758  0.00  0.00    +0.000 N 
ATOM     14  O   UNL     1      47.725   9.145  11.739  0.00  0.00    +0.000 OA
ATOM     15  O   UNL     1      49.352   7.741  11.295  0.00  0.00    +0.000 OA
ENDBRANCH   5  13
BRANCH   1  16
ATOM     16  C   UNL     1      44.434   4.717  11.592  0.00  0.00    +0.000 C 
BRANCH  16  17
ATOM     17  N   UNL     1      44.471   5.085  10.181  0.00  0.00    +0.000 N 
ATOM     18  H   UNL     1      43.540   5.206   9.793  0.00  0.00    +0.000 HD
BRANCH  17  22
ATOM     19  C   UNL     1      46.580   2.623   7.655  0.00  0.00    +0.000 A 
ATOM     20  C   UNL     1      46.668   4.000   7.534  0.00  0.00    +0.000 A 
ATOM     21  N   UNL     1      46.014   4.854   8.370  0.00  0.00    +0.000 NA
ATOM     22  C   UNL     1      45.264   4.294   9.342  0.00  0.00    +0.000 A 
ATOM     23  C   UNL     1      45.197   2.896   9.449  0.00  0.00    +0.000 A 
ATOM     24  N   UNL     1      45.842   2.025   8.628  0.00  0.00    +0.000 NA
BRANCH  19  26
ATOM     25  N   UNL     1      48.245   2.346   5.917  0.00  0.00    +0.000 N 
ATOM     26  C   UNL     1      47.281   1.743   6.678  0.00  0.00    +0.000 C 
ATOM     27  O   UNL     1      47.023   0.552   6.570  0.00  0.00    +0.000 OA
ATOM     28  H   UNL     1      48.786   1.792   5.269  0.00  0.00    +0.000 HD
ATOM     29  H   UNL     1      48.470   3.324   6.063  0.00  0.00    +0.000 HD
ENDBRANCH  19  26
ENDBRANCH  17  22
ENDBRANCH  16  17
ENDBRANCH   1  16
TORSDOF 6
ENDMDL
MODEL 6
REMARK VINA RESULT:    -7.317      2.680      7.371
REMARK INTER + INTRA:         -10.768
REMARK INTER:                 -10.059
REMARK INTRA:                  -0.709
REMARK UNBOUND:                -0.885
REMARK  Name = 
REMARK  6 active torsions:
REMARK  status: ('A' for Active; 'I' for Inactive)
REMARK    1  A    between atoms: C_2  and  C_4
REMARK    2  A    between atoms: C_7  and  N_8
REMARK    3  A    between atoms: N_8  and  C_9
REMARK    4  A    between atoms: C_9  and  C_10
REMARK    5  A    between atoms: C_12  and  C_13
REMARK    6  A    between atoms: C_20  and  N_21
REMARK                            x       y       z     vdW  Elec       q    Type
REMARK                         _______ _______ _______ _____ _____    ______ ____
ROOT
ATOM      1  C   UNL     1      45.087   5.433  10.603  0.00  0.00    +0.000 A 
ATOM      2  C   UNL     1      45.659   4.869   9.444  0.00  0.00    +0.000 A 
ATOM      3  C   UNL     1      45.512   3.509   9.105  0.00  0.00    +0.000 A 
ATOM      4  C   UNL     1      44.735   2.717   9.964  0.00  0.00    +0.000 A 
ATOM      5  C   UNL     1      44.141   3.268  11.112  0.00  0.00    +0.000 A 
ATOM      6  C   UNL     1      44.315   4.620  11.438  0.00  0.00    +0.000 A 
ENDROOT
BRANCH   3   7
ATOM      7  C   UNL     1      46.170   2.937   7.908  0.00  0.00    +0.000 A 
ATOM      8  C   UNL     1      46.398   3.685   6.743  0.00  0.00    +0.000 A 
ATOM      9  C   UNL     1      47.004   3.103   5.628  0.00  0.00    +0.000 A 
ATOM     10  C   UNL     1      47.382   1.775   5.703  0.00  0.00    +0.000 A 
ATOM     11  N   UNL     1      47.191   1.010   6.795  0.00  0.00    +0.000 NA
ATOM     12  C   UNL     1      46.592   1.605   7.856  0.00  0.00    +0.000 A 
ENDBRANCH   3   7
BRANCH   5  13
ATOM     13  N   UNL     1      43.336   2.404  11.986  0.00  0.00    +0.000 N 
ATOM     14  O   UNL     1      42.714   1.467  11.464  0.00  0.00    +0.000 OA
ATOM     15  O   UNL     1      43.324   2.665  13.198  0.00  0.00    +0.000 OA
ENDBRANCH   5  13
BRANCH   1  16
ATOM     16  C   UNL     1      45.321   6.902  10.902  0.00  0.00    +0.000 C 
BRANCH  16  17
ATOM     17  N   UNL     1      45.219   7.092  12.344  0.00  0.00    +0.000 N 
ATOM     18  H   UNL     1      44.573   7.838  12.587  0.00  0.00    +0.000 HD
BRANCH  17  22
ATOM     19  C   UNL     1      48.863   7.323  14.232  0.00  0.00    +0.000 A 
ATOM     20  C   UNL     1      48.133   8.470  13.963  0.00  0.00    +0.000 A 
ATOM     21  N   UNL     1      46.907   8.438  13.370  0.00  0.00    +0.000 NA
ATOM     22  C   UNL     1      46.419   7.221  13.052  0.00  0.00    +0.000 A 
ATOM     23  C   UNL     1      47.173   6.073  13.342  0.00  0.00    +0.000 A 
ATOM     24  N   UNL     1      48.397   6.081  13.934  0.00  0.00    +0.000 NA
BRANCH  19  26
ATOM     25  N   UNL     1      50.399   6.761  16.019  0.00  0.00    +0.000 N 
ATOM     26  C   UNL     1      50.220   7.429  14.838  0.00  0.00    +0.000 C 
ATOM     27  O   UNL     1      51.124   8.060  14.308  0.00  0.00    +0.000 OA
ATOM     28  H   UNL     1      51.310   6.758  16.454  0.00  0.00    +0.000 HD
ATOM     29  H   UNL     1      49.645   6.207  16.409  0.00  0.00    +0.000 HD
ENDBRANCH  19  26
ENDBRANCH  17  22
ENDBRANCH  16  17
ENDBRANCH   1  16
TORSDOF 6
ENDMDL
MODEL 7
REMARK VINA RESULT:    -6.547      3.268      7.557
REMARK INTER + INTRA:          -9.728
REMARK INTER:                  -9.033
REMARK INTRA:                  -0.695
REMARK UNBOUND:                -0.885
REMARK  Name = 
REMARK  6 active torsions:
REMARK  status: ('A' for Active; 'I' for Inactive)
REMARK    1  A    between atoms: C_2  and  C_4
REMARK    2  A    between atoms: C_7  and  N_8
REMARK    3  A    between atoms: N_8  and  C_9
REMARK    4  A    between atoms: C_9  and  C_10
REMARK    5  A    between atoms: C_12  and  C_13
REMARK    6  A    between atoms: C_20  and  N_21
REMARK                            x       y       z     vdW  Elec       q    Type
REMARK                         _______ _______ _______ _____ _____    ______ ____
ROOT
ATOM      1  C   UNL     1      46.592   7.841  12.517  0.00  0.00    +0.000 A 
ATOM      2  C   UNL     1      46.356   6.631  11.831  0.00  0.00    +0.000 A 
ATOM      3  C   UNL     1      45.230   6.425  11.010  0.00  0.00    +0.000 A 
ATOM      4  C   UNL     1      44.339   7.500  10.868  0.00  0.00    +0.000 A 
ATOM      5  C   UNL     1      44.568   8.720  11.526  0.00  0.00    +0.000 A 
ATOM      6  C   UNL     1      45.688   8.895  12.353  0.00  0.00    +0.000 A 
ENDROOT
BRANCH   3   7
ATOM      7  C   UNL     1      44.986   5.125  10.347  0.00  0.00    +0.000 A 
ATOM      8  C   UNL     1      45.541   4.797   9.100  0.00  0.00    +0.000 A 
ATOM      9  C   UNL     1      45.270   3.566   8.499  0.00  0.00    +0.000 A 
ATOM     10  C   UNL     1      44.450   2.674   9.166  0.00  0.00    +0.000 A 
ATOM     11  N   UNL     1      43.893   2.932  10.364  0.00  0.00    +0.000 NA
ATOM     12  C   UNL     1      44.171   4.141  10.915  0.00  0.00    +0.000 A 
ENDBRANCH   3   7
BRANCH   5  13
ATOM     13  N   UNL     1      43.610   9.819  11.352  0.00  0.00    +0.000 N 
ATOM     14  O   UNL     1      43.822  10.877  11.964  0.00  0.00    +0.000 OA
ATOM     15  O   UNL     1      42.643   9.624  10.602  0.00  0.00    +0.000 OA
ENDBRANCH   5  13
BRANCH   1  16
ATOM     16  C   UNL     1      47.818   7.963  13.401  0.00  0.00    +0.000 C 
BRANCH  16  17
ATOM     17  N   UNL     1      48.437   6.647  13.501  0.00  0.00    +0.000 N 
ATOM     18  H   UNL     1      48.195   6.051  12.714  0.00  0.00    +0.000 HD
BRANCH  17  22
ATOM     19  C   UNL     1      47.996   4.412  16.922  0.00  0.00    +0.000 A 
ATOM     20  C   UNL     1      48.945   5.418  16.854  0.00  0.00    +0.000 A 
ATOM     21  N   UNL     1      49.103   6.205  15.753  0.00  0.00    +0.000 NA
ATOM     22  C   UNL     1      48.280   5.964  14.712  0.00  0.00    +0.000 A 
ATOM     23  C   UNL     1      47.320   4.944  14.808  0.00  0.00    +0.000 A 
ATOM     24  N   UNL     1      47.143   4.148  15.896  0.00  0.00    +0.000 NA
BRANCH  19  26
ATOM     25  N   UNL     1      47.008   2.523  18.073  0.00  0.00    +0.000 N 
ATOM     26  C   UNL     1      47.906   3.553  18.136  0.00  0.00    +0.000 C 
ATOM     27  O   UNL     1      48.600   3.746  19.125  0.00  0.00    +0.000 OA
ATOM     28  H   UNL     1      46.934   1.880  18.848  0.00  0.00    +0.000 HD
ATOM     29  H   UNL     1      46.481   2.360  17.222  0.00  0.00    +0.000 HD
ENDBRANCH  19  26
ENDBRANCH  17  22
ENDBRANCH  16  17
ENDBRANCH   1  16
TORSDOF 6
ENDMDL
MODEL 8
REMARK VINA RESULT:    -6.541      3.808      6.849
REMARK INTER + INTRA:          -9.720
REMARK INTER:                  -8.968
REMARK INTRA:                  -0.752
REMARK UNBOUND:                -0.885
REMARK  Name = 
REMARK  6 active torsions:
REMARK  status: ('A' for Active; 'I' for Inactive)
REMARK    1  A    between atoms: C_2  and  C_4
REMARK    2  A    between atoms: C_7  and  N_8
REMARK    3  A    between atoms: N_8  and  C_9
REMARK    4  A    between atoms: C_9  and  C_10
REMARK    5  A    between atoms: C_12  and  C_13
REMARK    6  A    between atoms: C_20  and  N_21
REMARK                            x       y       z     vdW  Elec       q    Type
REMARK                         _______ _______ _______ _____ _____    ______ ____
ROOT
ATOM      1  C   UNL     1      46.273   4.598  13.690  0.00  0.00    +0.000 A 
ATOM      2  C   UNL     1      47.016   5.767  13.425  0.00  0.00    +0.000 A 
ATOM      3  C   UNL     1      46.883   6.502  12.230  0.00  0.00    +0.000 A 
ATOM      4  C   UNL     1      45.944   6.037  11.296  0.00  0.00    +0.000 A 
ATOM      5  C   UNL     1      45.180   4.886  11.553  0.00  0.00    +0.000 A 
ATOM      6  C   UNL     1      45.342   4.161  12.743  0.00  0.00    +0.000 A 
ENDROOT
BRANCH   3   7
ATOM      7  C   UNL     1      47.716   7.695  11.962  0.00  0.00    +0.000 A 
ATOM      8  C   UNL     1      49.081   7.608  11.646  0.00  0.00    +0.000 A 
ATOM      9  C   UNL     1      49.837   8.759  11.419  0.00  0.00    +0.000 A 
ATOM     10  C   UNL     1      49.207   9.987  11.503  0.00  0.00    +0.000 A 
ATOM     11  N   UNL     1      47.901  10.132  11.798  0.00  0.00    +0.000 NA
ATOM     12  C   UNL     1      47.199   8.993  12.021  0.00  0.00    +0.000 A 
ENDBRANCH   3   7
BRANCH   5  13
ATOM     13  N   UNL     1      44.209   4.432  10.549  0.00  0.00    +0.000 N 
ATOM     14  O   UNL     1      43.077   4.110  10.939  0.00  0.00    +0.000 OA
ATOM     15  O   UNL     1      44.579   4.396   9.367  0.00  0.00    +0.000 OA
ENDBRANCH   5  13
BRANCH   1  16
ATOM     16  C   UNL     1      46.502   3.856  14.994  0.00  0.00    +0.000 C 
BRANCH  16  17
ATOM     17  N   UNL     1      47.403   4.655  15.816  0.00  0.00    +0.000 N 
ATOM     18  H   UNL     1      47.716   5.493  15.336  0.00  0.00    +0.000 HD
BRANCH  17  22
ATOM     19  C   UNL     1      50.614   2.572  17.314  0.00  0.00    +0.000 A 
ATOM     20  C   UNL     1      50.520   3.943  17.486  0.00  0.00    +0.000 A 
ATOM     21  N   UNL     1      49.459   4.669  17.036  0.00  0.00    +0.000 NA
ATOM     22  C   UNL     1      48.480   3.985  16.407  0.00  0.00    +0.000 A 
ATOM     23  C   UNL     1      48.594   2.594  16.252  0.00  0.00    +0.000 A 
ATOM     24  N   UNL     1      49.643   1.850  16.694  0.00  0.00    +0.000 NA
BRANCH  19  26
ATOM     25  N   UNL     1      51.687   0.490  17.934  0.00  0.00    +0.000 N 
ATOM     26  C   UNL     1      51.825   1.843  17.786  0.00  0.00    +0.000 C 
ATOM     27  O   UNL     1      52.883   2.414  18.014  0.00  0.00    +0.000 OA
ATOM     28  H   UNL     1      52.485  -0.064  18.209  0.00  0.00    +0.000 HD
ATOM     29  H   UNL     1      50.811   0.039  17.692  0.00  0.00    +0.000 HD
ENDBRANCH  19  26
ENDBRANCH  17  22
ENDBRANCH  16  17
ENDBRANCH   1  16
TORSDOF 6
ENDMDL
MODEL 9
REMARK VINA RESULT:    -6.440      4.056      8.158
REMARK INTER + INTRA:          -9.583
REMARK INTER:                  -8.680
REMARK INTRA:                  -0.903
REMARK UNBOUND:                -0.885
REMARK  Name = 
REMARK  6 active torsions:
REMARK  status: ('A' for Active; 'I' for Inactive)
REMARK    1  A    between atoms: C_2  and  C_4
REMARK    2  A    between atoms: C_7  and  N_8
REMARK    3  A    between atoms: N_8  and  C_9
REMARK    4  A    between atoms: C_9  and  C_10
REMARK    5  A    between atoms: C_12  and  C_13
REMARK    6  A    between atoms: C_20  and  N_21
REMARK                            x       y       z     vdW  Elec       q    Type
REMARK                         _______ _______ _______ _____ _____    ______ ____
ROOT
ATOM      1  C   UNL     1      47.984   7.654  12.504  0.00  0.00    +0.000 A 
ATOM      2  C   UNL     1      47.199   6.497  12.320  0.00  0.00    +0.000 A 
ATOM      3  C   UNL     1      45.813   6.547  12.068  0.00  0.00    +0.000 A 
ATOM      4  C   UNL     1      45.226   7.818  11.976  0.00  0.00    +0.000 A 
ATOM      5  C   UNL     1      45.997   8.982  12.136  0.00  0.00    +0.000 A 
ATOM      6  C   UNL     1      47.372   8.907  12.403  0.00  0.00    +0.000 A 
ENDROOT
BRANCH   3   7
ATOM      7  C   UNL     1      45.009   5.312  11.931  0.00  0.00    +0.000 A 
ATOM      8  C   UNL     1      44.746   4.716  10.688  0.00  0.00    +0.000 A 
ATOM      9  C   UNL     1      43.966   3.561  10.601  0.00  0.00    +0.000 A 
ATOM     10  C   UNL     1      43.468   3.013  11.768  0.00  0.00    +0.000 A 
ATOM     11  N   UNL     1      43.690   3.539  12.988  0.00  0.00    +0.000 NA
ATOM     12  C   UNL     1      44.444   4.665  13.036  0.00  0.00    +0.000 A 
ENDBRANCH   3   7
BRANCH   5  13
ATOM     13  N   UNL     1      45.344  10.294  12.033  0.00  0.00    +0.000 N 
ATOM     14  O   UNL     1      46.054  11.279  11.781  0.00  0.00    +0.000 OA
ATOM     15  O   UNL     1      44.118  10.340  12.207  0.00  0.00    +0.000 OA
ENDBRANCH   5  13
BRANCH   1  16
ATOM     16  C   UNL     1      49.465   7.504  12.798  0.00  0.00    +0.000 C 
BRANCH  16  17
ATOM     17  N   UNL     1      49.762   8.244  14.019  0.00  0.00    +0.000 N 
ATOM     18  H   UNL     1      50.726   8.562  14.047  0.00  0.00    +0.000 HD
BRANCH  17  22
ATOM     19  C   UNL     1      48.468   6.618  17.565  0.00  0.00    +0.000 A 
ATOM     20  C   UNL     1      48.875   5.803  16.522  0.00  0.00    +0.000 A 
ATOM     21  N   UNL     1      49.342   6.298  15.342  0.00  0.00    +0.000 NA
ATOM     22  C   UNL     1      49.398   7.641  15.228  0.00  0.00    +0.000 A 
ATOM     23  C   UNL     1      48.989   8.447  16.302  0.00  0.00    +0.000 A 
ATOM     24  N   UNL     1      48.521   7.975  17.489  0.00  0.00    +0.000 NA
BRANCH  19  26
ATOM     25  N   UNL     1      46.651   5.513  18.724  0.00  0.00    +0.000 N 
ATOM     26  C   UNL     1      47.921   6.015  18.812  0.00  0.00    +0.000 C 
ATOM     27  O   UNL     1      48.569   5.956  19.848  0.00  0.00    +0.000 OA
ATOM     28  H   UNL     1      46.242   5.052  19.524  0.00  0.00    +0.000 HD
ATOM     29  H   UNL     1      46.156   5.533  17.839  0.00  0.00    +0.000 HD
ENDBRANCH  19  26
ENDBRANCH  17  22
ENDBRANCH  16  17
ENDBRANCH   1  16
TORSDOF 6
ENDMDL
