MODEL 1
REMARK VINA RESULT:    -8.715      0.000      0.000
REMARK INTER + INTRA:         -12.347
REMARK INTER:                 -12.281
REMARK INTRA:                  -0.065
REMARK UNBOUND:                -0.065
REMARK  Name = 
REMARK  9 active torsions:
REMARK  status: ('A' for Active; 'I' for Inactive)
REMARK    1  A    between atoms: C_1  and  O_2
REMARK    2  A    between atoms: O_2  and  C_3
REMARK    3  A    between atoms: C_6  and  C_7
REMARK    4  A    between atoms: C_7  and  N_8
REMARK    5  A    between atoms: N_8  and  C_9
REMARK    6  A    between atoms: C_12  and  C_13
REMARK    7  A    between atoms: C_17  and  C_18
REMARK    8  A    between atoms: C_22  and  C_23
REMARK    9  A    between atoms: C_27  and  C_28
REMARK                            x       y       z     vdW  Elec       q    Type
REMARK                         _______ _______ _______ _____ _____    ______ ____
ROOT
ATOM      1  C   UNL     1      47.870   6.110  13.195  0.00  0.00    +0.000 A 
ATOM      2  C   UNL     1      47.407   6.708  12.020  0.00  0.00    +0.000 A 
ATOM      3  C   UNL     1      46.198   6.306  11.441  0.00  0.00    +0.000 A 
ATOM      4  C   UNL     1      45.445   5.251  11.971  0.00  0.00    +0.000 A 
ATOM      5  C   UNL     1      45.992   4.593  13.086  0.00  0.00    +0.000 A 
ATOM      6  C   UNL     1      47.145   5.043  13.769  0.00  0.00    +0.000 A 
ENDROOT
BRANCH   6   7
ATOM      7  C   UNL     1      47.435   4.490  15.122  0.00  0.00    +0.000 A 
ATOM      8  C   UNL     1      47.784   3.150  15.346  0.00  0.00    +0.000 A 
ATOM      9  C   UNL     1      48.155   2.697  16.617  0.00  0.00    +0.000 A 
ATOM     10  C   UNL     1      48.166   3.573  17.700  0.00  0.00    +0.000 A 
ATOM     11  C   UNL     1      47.810   4.910  17.514  0.00  0.00    +0.000 A 
ATOM     12  C   UNL     1      47.439   5.354  16.240  0.00  0.00    +0.000 A 
BRANCH  11  13
ATOM     13  C   UNL     1      47.846   5.823  18.686  0.00  0.00    +0.000 C 
ATOM     14  N   UNL     1      47.108   5.473  19.787  0.00  0.00    +0.000 N 
ATOM     15  O   UNL     1      48.480   6.870  18.673  0.00  0.00    +0.000 OA
ATOM     16  H   UNL     1      46.379   4.778  19.750  0.00  0.00    +0.000 HD
ATOM     17  H   UNL     1      47.050   6.171  20.518  0.00  0.00    +0.000 HD
ENDBRANCH  11  13
ENDBRANCH   6   7
BRANCH   4  18
ATOM     18  C   UNL     1      44.051   4.881  11.451  0.00  0.00    +0.000 C 
ATOM     19  C   UNL     1      42.860   5.191  12.342  0.00  0.00    +0.000 C 
ATOM     20  C   UNL     1      43.313   3.777  12.216  0.00  0.00    +0.000 C 
BRANCH  18  21
ATOM     21  N   UNL     1      43.923   4.823   9.984  0.00  0.00    +0.000 N 
ATOM     22  H   UNL     1      43.342   5.535   9.554  0.00  0.00    +0.000 HD
BRANCH  21  23
ATOM     23  C   UNL     1      44.832   4.197   9.114  0.00  0.00    +0.000 A 
ATOM     24  C   UNL     1      45.761   4.884   8.344  0.00  0.00    +0.000 A 
ATOM     25  N   UNL     1      46.709   4.319   7.566  0.00  0.00    +0.000 NA
ATOM     26  C   UNL     1      46.730   2.980   7.575  0.00  0.00    +0.000 A 
ATOM     27  N   UNL     1      45.894   2.181   8.276  0.00  0.00    +0.000 NA
ATOM     28  C   UNL     1      44.959   2.806   9.033  0.00  0.00    +0.000 A 
ATOM     29  C   UNL     1      44.042   1.887   9.793  0.00  0.00    +0.000 C 
BRANCH  26  30
ATOM     30  C   UNL     1      47.768   2.280   6.722  0.00  0.00    +0.000 C 
ATOM     31  N   UNL     1      48.113   2.925   5.558  0.00  0.00    +0.000 N 
ATOM     32  O   UNL     1      48.281   1.203   7.016  0.00  0.00    +0.000 OA
ATOM     33  H   UNL     1      47.678   3.807   5.315  0.00  0.00    +0.000 HD
ATOM     34  H   UNL     1      48.803   2.505   4.949  0.00  0.00    +0.000 HD
ENDBRANCH  26  30
ENDBRANCH  21  23
ENDBRANCH  18  21
ENDBRANCH   4  18
BRANCH   1  36
ATOM     35  C   UNL     1      49.390   7.874  13.718  0.00  0.00    +0.000 C 
ATOM     36  O   UNL     1      49.025   6.504  13.821  0.00  0.00    +0.000 OA
ENDBRANCH   1  36
TORSDOF 7
ENDMDL
MODEL 2
REMARK VINA RESULT:    -8.619      2.485      4.586
REMARK INTER + INTRA:         -12.211
REMARK INTER:                 -11.223
REMARK INTRA:                  -0.988
REMARK UNBOUND:                -0.065
REMARK  Name = 
REMARK  9 active torsions:
REMARK  status: ('A' for Active; 'I' for Inactive)
REMARK    1  A    between atoms: C_1  and  O_2
REMARK    2  A    between atoms: O_2  and  C_3
REMARK    3  A    between atoms: C_6  and  C_7
REMARK    4  A    between atoms: C_7  and  N_8
REMARK    5  A    between atoms: N_8  and  C_9
REMARK    6  A    between atoms: C_12  and  C_13
REMARK    7  A    between atoms: C_17  and  C_18
REMARK    8  A    between atoms: C_22  and  C_23
REMARK    9  A    between atoms: C_27  and  C_28
REMARK                            x       y       z     vdW  Elec       q    Type
REMARK                         _______ _______ _______ _____ _____    ______ ____
ROOT
ATOM      1  C   UNL     1      47.673   6.009  13.766  0.00  0.00    +0.000 A 
ATOM      2  C   UNL     1      46.855   4.924  14.094  0.00  0.00    +0.000 A 
ATOM      3  C   UNL     1      45.670   4.684  13.389  0.00  0.00    +0.000 A 
ATOM      4  C   UNL     1      45.225   5.551  12.384  0.00  0.00    +0.000 A 
ATOM      5  C   UNL     1      46.009   6.694  12.153  0.00  0.00    +0.000 A 
ATOM      6  C   UNL     1      47.269   6.911  12.758  0.00  0.00    +0.000 A 
ENDROOT
BRANCH   6   7
ATOM      7  C   UNL     1      48.162   7.960  12.193  0.00  0.00    +0.000 A 
ATOM      8  C   UNL     1      47.800   9.312  12.105  0.00  0.00    +0.000 A 
ATOM      9  C   UNL     1      48.709  10.283  11.668  0.00  0.00    +0.000 A 
ATOM     10  C   UNL     1      49.998   9.918  11.289  0.00  0.00    +0.000 A 
ATOM     11  C   UNL     1      50.386   8.579  11.350  0.00  0.00    +0.000 A 
ATOM     12  C   UNL     1      49.471   7.615  11.786  0.00  0.00    +0.000 A 
BRANCH  11  13
ATOM     13  C   UNL     1      51.774   8.224  10.952  0.00  0.00    +0.000 C 
ATOM     14  N   UNL     1      51.999   6.949  10.500  0.00  0.00    +0.000 N 
ATOM     15  O   UNL     1      52.699   9.020  11.048  0.00  0.00    +0.000 OA
ATOM     16  H   UNL     1      51.342   6.200  10.651  0.00  0.00    +0.000 HD
ATOM     17  H   UNL     1      52.969   6.698  10.357  0.00  0.00    +0.000 HD
ENDBRANCH  11  13
ENDBRANCH   6   7
BRANCH   4  18
ATOM     18  C   UNL     1      44.015   5.242  11.496  0.00  0.00    +0.000 C 
ATOM     19  C   UNL     1      43.193   6.414  10.988  0.00  0.00    +0.000 C 
ATOM     20  C   UNL     1      42.639   5.572  12.085  0.00  0.00    +0.000 C 
BRANCH  18  21
ATOM     21  N   UNL     1      44.091   3.973  10.750  0.00  0.00    +0.000 N 
ATOM     22  H   UNL     1      43.333   3.315  10.901  0.00  0.00    +0.000 HD
BRANCH  21  23
ATOM     23  C   UNL     1      44.823   3.768   9.569  0.00  0.00    +0.000 A 
ATOM     24  C   UNL     1      45.612   4.742   8.971  0.00  0.00    +0.000 A 
ATOM     25  N   UNL     1      46.400   4.561   7.889  0.00  0.00    +0.000 NA
ATOM     26  C   UNL     1      46.402   3.319   7.387  0.00  0.00    +0.000 A 
ATOM     27  N   UNL     1      45.691   2.272   7.864  0.00  0.00    +0.000 NA
ATOM     28  C   UNL     1      44.912   2.518   8.947  0.00  0.00    +0.000 A 
ATOM     29  C   UNL     1      44.130   1.334   9.445  0.00  0.00    +0.000 C 
BRANCH  26  30
ATOM     30  C   UNL     1      47.264   3.046   6.172  0.00  0.00    +0.000 C 
ATOM     31  N   UNL     1      48.565   2.687   6.434  0.00  0.00    +0.000 N 
ATOM     32  O   UNL     1      46.863   3.140   5.015  0.00  0.00    +0.000 OA
ATOM     33  H   UNL     1      48.893   2.623   7.391  0.00  0.00    +0.000 HD
ATOM     34  H   UNL     1      49.187   2.491   5.662  0.00  0.00    +0.000 HD
ENDBRANCH  26  30
ENDBRANCH  21  23
ENDBRANCH  18  21
ENDBRANCH   4  18
BRANCH   1  36
ATOM     35  C   UNL     1      48.814   6.608  15.776  0.00  0.00    +0.000 C 
ATOM     36  O   UNL     1      48.865   6.255  14.400  0.00  0.00    +0.000 OA
ENDBRANCH   1  36
TORSDOF 7
ENDMDL
MODEL 3
REMARK VINA RESULT:    -8.019      3.491      7.959
REMARK INTER + INTRA:         -11.366
REMARK INTER:                  -9.390
REMARK INTRA:                  -1.976
REMARK UNBOUND:                -0.065
REMARK  Name = 
REMARK  9 active torsions:
REMARK  status: ('A' for Active; 'I' for Inactive)
REMARK    1  A    between atoms: C_1  and  O_2
REMARK    2  A    between atoms: O_2  and  C_3
REMARK    3  A    between atoms: C_6  and  C_7
REMARK    4  A    between atoms: C_7  and  N_8
REMARK    5  A    between atoms: N_8  and  C_9
REMARK    6  A    between atoms: C_12  and  C_13
REMARK    7  A    between atoms: C_17  and  C_18
REMARK    8  A    between atoms: C_22  and  C_23
REMARK    9  A    between atoms: C_27  and  C_28
REMARK                            x       y       z     vdW  Elec       q    Type
REMARK                         _______ _______ _______ _____ _____    ______ ____
ROOT
ATOM      1  C   UNL     1      49.310   8.787  12.985  0.00  0.00    +0.000 A 
ATOM      2  C   UNL     1      50.322   9.493  13.641  0.00  0.00    +0.000 A 
ATOM      3  C   UNL     1      50.234   9.760  15.011  0.00  0.00    +0.000 A 
ATOM      4  C   UNL     1      49.109   9.398  15.760  0.00  0.00    +0.000 A 
ATOM      5  C   UNL     1      48.057   8.791  15.052  0.00  0.00    +0.000 A 
ATOM      6  C   UNL     1      48.155   8.397  13.697  0.00  0.00    +0.000 A 
ENDROOT
BRANCH   6   7
ATOM      7  C   UNL     1      47.131   7.464  13.149  0.00  0.00    +0.000 A 
ATOM      8  C   UNL     1      46.124   7.865  12.259  0.00  0.00    +0.000 A 
ATOM      9  C   UNL     1      45.249   6.936  11.683  0.00  0.00    +0.000 A 
ATOM     10  C   UNL     1      45.351   5.584  12.001  0.00  0.00    +0.000 A 
ATOM     11  C   UNL     1      46.333   5.154  12.894  0.00  0.00    +0.000 A 
ATOM     12  C   UNL     1      47.201   6.089  13.467  0.00  0.00    +0.000 A 
BRANCH  11  13
ATOM     13  C   UNL     1      46.424   3.703  13.202  0.00  0.00    +0.000 C 
ATOM     14  N   UNL     1      45.486   2.873  12.644  0.00  0.00    +0.000 N 
ATOM     15  O   UNL     1      47.281   3.253  13.952  0.00  0.00    +0.000 OA
ATOM     16  H   UNL     1      44.626   3.221  12.249  0.00  0.00    +0.000 HD
ATOM     17  H   UNL     1      45.496   1.915  12.970  0.00  0.00    +0.000 HD
ENDBRANCH  11  13
ENDBRANCH   6   7
BRANCH   4  18
ATOM     18  C   UNL     1      49.041   9.543  17.285  0.00  0.00    +0.000 C 
ATOM     19  C   UNL     1      47.971  10.453  17.861  0.00  0.00    +0.000 C 
ATOM     20  C   UNL     1      49.384  10.926  17.850  0.00  0.00    +0.000 C 
BRANCH  18  21
ATOM     21  N   UNL     1      49.576   8.402  18.048  0.00  0.00    +0.000 N 
ATOM     22  H   UNL     1      50.021   8.620  18.934  0.00  0.00    +0.000 HD
BRANCH  21  23
ATOM     23  C   UNL     1      49.161   7.066  17.910  0.00  0.00    +0.000 A 
ATOM     24  C   UNL     1      47.978   6.568  18.438  0.00  0.00    +0.000 A 
ATOM     25  N   UNL     1      47.499   5.318  18.252  0.00  0.00    +0.000 NA
ATOM     26  C   UNL     1      48.254   4.528  17.478  0.00  0.00    +0.000 A 
ATOM     27  N   UNL     1      49.424   4.876  16.895  0.00  0.00    +0.000 NA
ATOM     28  C   UNL     1      49.856   6.141  17.124  0.00  0.00    +0.000 A 
ATOM     29  C   UNL     1      51.163   6.491  16.467  0.00  0.00    +0.000 C 
BRANCH  26  30
ATOM     30  C   UNL     1      47.777   3.112  17.229  0.00  0.00    +0.000 C 
ATOM     31  N   UNL     1      48.665   2.292  16.574  0.00  0.00    +0.000 N 
ATOM     32  O   UNL     1      46.672   2.694  17.568  0.00  0.00    +0.000 OA
ATOM     33  H   UNL     1      49.569   2.646  16.287  0.00  0.00    +0.000 HD
ATOM     34  H   UNL     1      48.401   1.335  16.382  0.00  0.00    +0.000 HD
ENDBRANCH  26  30
ENDBRANCH  21  23
ENDBRANCH  18  21
ENDBRANCH   4  18
BRANCH   1  36
ATOM     35  C   UNL     1      50.505   7.716  11.217  0.00  0.00    +0.000 C 
ATOM     36  O   UNL     1      49.376   8.462  11.654  0.00  0.00    +0.000 OA
ENDBRANCH   1  36
TORSDOF 7
ENDMDL
MODEL 4
REMARK VINA RESULT:    -7.605      2.918      8.472
REMARK INTER + INTRA:         -10.783
REMARK INTER:                  -9.709
REMARK INTRA:                  -1.074
REMARK UNBOUND:                -0.065
REMARK  Name = 
REMARK  9 active torsions:
REMARK  status: ('A' for Active; 'I' for Inactive)
REMARK    1  A    between atoms: C_1  and  O_2
REMARK    2  A    between atoms: O_2  and  C_3
REMARK    3  A    between atoms: C_6  and  C_7
REMARK    4  A    between atoms: C_7  and  N_8
REMARK    5  A    between atoms: N_8  and  C_9
REMARK    6  A    between atoms: C_12  and  C_13
REMARK    7  A    between atoms: C_17  and  C_18
REMARK    8  A    between atoms: C_22  and  C_23
REMARK    9  A    between atoms: C_27  and  C_28
REMARK                            x       y       z     vdW  Elec       q    Type
REMARK                         _______ _______ _______ _____ _____    ______ ____
ROOT
ATOM      1  C   UNL     1      45.127   8.937  11.729  0.00  0.00    +0.000 A 
ATOM      2  C   UNL     1      45.855  10.125  11.828  0.00  0.00    +0.000 A 
ATOM      3  C   UNL     1      47.210  10.107  12.178  0.00  0.00    +0.000 A 
ATOM      4  C   UNL     1      47.867   8.916  12.510  0.00  0.00    +0.000 A 
ATOM      5  C   UNL     1      47.082   7.750  12.513  0.00  0.00    +0.000 A 
ATOM      6  C   UNL     1      45.746   7.709  12.051  0.00  0.00    +0.000 A 
ENDROOT
BRANCH   6   7
ATOM      7  C   UNL     1      45.127   6.383  11.773  0.00  0.00    +0.000 A 
ATOM      8  C   UNL     1      44.275   5.728  12.674  0.00  0.00    +0.000 A 
ATOM      9  C   UNL     1      43.629   4.535  12.329  0.00  0.00    +0.000 A 
ATOM     10  C   UNL     1      43.836   3.959  11.078  0.00  0.00    +0.000 A 
ATOM     11  C   UNL     1      44.689   4.578  10.163  0.00  0.00    +0.000 A 
ATOM     12  C   UNL     1      45.333   5.769  10.516  0.00  0.00    +0.000 A 
BRANCH  11  13
ATOM     13  C   UNL     1      44.879   3.947   8.831  0.00  0.00    +0.000 C 
ATOM     14  N   UNL     1      44.294   2.725   8.617  0.00  0.00    +0.000 N 
ATOM     15  O   UNL     1      45.558   4.470   7.957  0.00  0.00    +0.000 OA
ATOM     16  H   UNL     1      43.960   2.148   9.372  0.00  0.00    +0.000 HD
ATOM     17  H   UNL     1      44.543   2.264   7.751  0.00  0.00    +0.000 HD
ENDBRANCH  11  13
ENDBRANCH   6   7
BRANCH   4  18
ATOM     18  C   UNL     1      49.378   8.840  12.755  0.00  0.00    +0.000 C 
ATOM     19  C   UNL     1      50.299   9.320  11.647  0.00  0.00    +0.000 C 
ATOM     20  C   UNL     1      50.159   7.855  11.879  0.00  0.00    +0.000 C 
BRANCH  18  21
ATOM     21  N   UNL     1      49.787   8.883  14.170  0.00  0.00    +0.000 N 
ATOM     22  H   UNL     1      50.181   9.758  14.500  0.00  0.00    +0.000 HD
BRANCH  21  23
ATOM     23  C   UNL     1      49.300   8.037  15.181  0.00  0.00    +0.000 A 
ATOM     24  C   UNL     1      49.407   6.653  15.147  0.00  0.00    +0.000 A 
ATOM     25  N   UNL     1      49.035   5.811  16.136  0.00  0.00    +0.000 NA
ATOM     26  C   UNL     1      48.536   6.402  17.230  0.00  0.00    +0.000 A 
ATOM     27  N   UNL     1      48.377   7.733  17.407  0.00  0.00    +0.000 NA
ATOM     28  C   UNL     1      48.762   8.526  16.376  0.00  0.00    +0.000 A 
ATOM     29  C   UNL     1      48.563  10.000  16.604  0.00  0.00    +0.000 C 
BRANCH  26  30
ATOM     30  C   UNL     1      48.098   5.516  18.378  0.00  0.00    +0.000 C 
ATOM     31  N   UNL     1      46.741   5.447  18.590  0.00  0.00    +0.000 N 
ATOM     32  O   UNL     1      48.875   4.895  19.098  0.00  0.00    +0.000 OA
ATOM     33  H   UNL     1      46.105   5.972  18.001  0.00  0.00    +0.000 HD
ATOM     34  H   UNL     1      46.389   4.870  19.342  0.00  0.00    +0.000 HD
ENDBRANCH  26  30
ENDBRANCH  21  23
ENDBRANCH  18  21
ENDBRANCH   4  18
BRANCH   1  36
ATOM     35  C   UNL     1      43.312  10.024  10.625  0.00  0.00    +0.000 C 
ATOM     36  O   UNL     1      43.811   8.904  11.344  0.00  0.00    +0.000 OA
ENDBRANCH   1  36
TORSDOF 7
ENDMDL
MODEL 5
REMARK VINA RESULT:    -7.425      3.653      8.157
REMARK INTER + INTRA:         -10.529
REMARK INTER:                  -8.882
REMARK INTRA:                  -1.646
REMARK UNBOUND:                -0.065
REMARK  Name = 
REMARK  9 active torsions:
REMARK  status: ('A' for Active; 'I' for Inactive)
REMARK    1  A    between atoms: C_1  and  O_2
REMARK    2  A    between atoms: O_2  and  C_3
REMARK    3  A    between atoms: C_6  and  C_7
REMARK    4  A    between atoms: C_7  and  N_8
REMARK    5  A    between atoms: N_8  and  C_9
REMARK    6  A    between atoms: C_12  and  C_13
REMARK    7  A    between atoms: C_17  and  C_18
REMARK    8  A    between atoms: C_22  and  C_23
REMARK    9  A    between atoms: C_27  and  C_28
REMARK                            x       y       z     vdW  Elec       q    Type
REMARK                         _______ _______ _______ _____ _____    ______ ____
ROOT
ATOM      1  C   UNL     1      49.616   7.639  13.360  0.00  0.00    +0.000 A 
ATOM      2  C   UNL     1      50.659   8.296  14.018  0.00  0.00    +0.000 A 
ATOM      3  C   UNL     1      50.574   8.581  15.386  0.00  0.00    +0.000 A 
ATOM      4  C   UNL     1      49.424   8.287  16.127  0.00  0.00    +0.000 A 
ATOM      5  C   UNL     1      48.347   7.730  15.415  0.00  0.00    +0.000 A 
ATOM      6  C   UNL     1      48.435   7.319  14.064  0.00  0.00    +0.000 A 
ENDROOT
BRANCH   6   7
ATOM      7  C   UNL     1      47.368   6.437  13.515  0.00  0.00    +0.000 A 
ATOM      8  C   UNL     1      47.263   5.073  13.824  0.00  0.00    +0.000 A 
ATOM      9  C   UNL     1      46.183   4.305  13.374  0.00  0.00    +0.000 A 
ATOM     10  C   UNL     1      45.190   4.883  12.586  0.00  0.00    +0.000 A 
ATOM     11  C   UNL     1      45.271   6.234  12.249  0.00  0.00    +0.000 A 
ATOM     12  C   UNL     1      46.355   6.994  12.701  0.00  0.00    +0.000 A 
BRANCH  11  13
ATOM     13  C   UNL     1      44.188   6.825  11.419  0.00  0.00    +0.000 C 
ATOM     14  N   UNL     1      43.358   5.963  10.750  0.00  0.00    +0.000 N 
ATOM     15  O   UNL     1      44.051   8.036  11.301  0.00  0.00    +0.000 OA
ATOM     16  H   UNL     1      43.590   4.993  10.606  0.00  0.00    +0.000 HD
ATOM     17  H   UNL     1      42.714   6.391  10.097  0.00  0.00    +0.000 HD
ENDBRANCH  11  13
ENDBRANCH   6   7
BRANCH   4  18
ATOM     18  C   UNL     1      49.351   8.450  17.650  0.00  0.00    +0.000 C 
ATOM     19  C   UNL     1      48.144   9.169  18.226  0.00  0.00    +0.000 C 
ATOM     20  C   UNL     1      49.450   9.883  18.183  0.00  0.00    +0.000 C 
BRANCH  18  21
ATOM     21  N   UNL     1      50.089   7.438  18.425  0.00  0.00    +0.000 N 
ATOM     22  H   UNL     1      50.301   7.675  19.389  0.00  0.00    +0.000 HD
BRANCH  21  23
ATOM     23  C   UNL     1      50.136   6.065  18.131  0.00  0.00    +0.000 A 
ATOM     24  C   UNL     1      49.039   5.218  18.222  0.00  0.00    +0.000 A 
ATOM     25  N   UNL     1      49.019   3.916  17.864  0.00  0.00    +0.000 NA
ATOM     26  C   UNL     1      50.172   3.442  17.373  0.00  0.00    +0.000 A 
ATOM     27  N   UNL     1      51.316   4.146  17.223  0.00  0.00    +0.000 NA
ATOM     28  C   UNL     1      51.276   5.446  17.607  0.00  0.00    +0.000 A 
ATOM     29  C   UNL     1      52.568   6.197  17.434  0.00  0.00    +0.000 C 
BRANCH  26  30
ATOM     30  C   UNL     1      50.220   1.988  16.953  0.00  0.00    +0.000 C 
ATOM     31  N   UNL     1      51.083   1.191  17.668  0.00  0.00    +0.000 N 
ATOM     32  O   UNL     1      49.553   1.520  16.033  0.00  0.00    +0.000 OA
ATOM     33  H   UNL     1      51.638   1.585  18.417  0.00  0.00    +0.000 HD
ATOM     34  H   UNL     1      51.156   0.211  17.432  0.00  0.00    +0.000 HD
ENDBRANCH  26  30
ENDBRANCH  21  23
ENDBRANCH  18  21
ENDBRANCH   4  18
BRANCH   1  36
ATOM     35  C   UNL     1      50.788   7.775  11.285  0.00  0.00    +0.000 C 
ATOM     36  O   UNL     1      49.676   7.299  12.032  0.00  0.00    +0.000 OA
ENDBRANCH   1  36
TORSDOF 7
ENDMDL
MODEL 6
REMARK VINA RESULT:    -7.206      2.231      3.526
REMARK INTER + INTRA:         -10.219
REMARK INTER:                  -8.902
REMARK INTRA:                  -1.317
REMARK UNBOUND:                -0.065
REMARK  Name = 
REMARK  9 active torsions:
REMARK  status: ('A' for Active; 'I' for Inactive)
REMARK    1  A    between atoms: C_1  and  O_2
REMARK    2  A    between atoms: O_2  and  C_3
REMARK    3  A    between atoms: C_6  and  C_7
REMARK    4  A    between atoms: C_7  and  N_8
REMARK    5  A    between atoms: N_8  and  C_9
REMARK    6  A    between atoms: C_12  and  C_13
REMARK    7  A    between atoms: C_17  and  C_18
REMARK    8  A    between atoms: C_22  and  C_23
REMARK    9  A    between atoms: C_27  and  C_28
REMARK                            x       y       z     vdW  Elec       q    Type
REMARK                         _______ _______ _______ _____ _____    ______ ____
ROOT
ATOM      1  C   UNL     1      49.744   7.771  13.802  0.00  0.00    +0.000 A 
ATOM      2  C   UNL     1      49.423   8.278  12.540  0.00  0.00    +0.000 A 
ATOM      3  C   UNL     1      48.099   8.281  12.087  0.00  0.00    +0.000 A 
ATOM      4  C   UNL     1      47.063   7.718  12.841  0.00  0.00    +0.000 A 
ATOM      5  C   UNL     1      47.433   7.113  14.055  0.00  0.00    +0.000 A 
ATOM      6  C   UNL     1      48.734   7.194  14.602  0.00  0.00    +0.000 A 
ENDROOT
BRANCH   6   7
ATOM      7  C   UNL     1      48.932   6.827  16.032  0.00  0.00    +0.000 A 
ATOM      8  C   UNL     1      49.009   7.773  17.064  0.00  0.00    +0.000 A 
ATOM      9  C   UNL     1      49.086   7.382  18.407  0.00  0.00    +0.000 A 
ATOM     10  C   UNL     1      49.108   6.031  18.744  0.00  0.00    +0.000 A 
ATOM     11  C   UNL     1      49.048   5.064  17.741  0.00  0.00    +0.000 A 
ATOM     12  C   UNL     1      48.974   5.464  16.402  0.00  0.00    +0.000 A 
BRANCH  11  13
ATOM     13  C   UNL     1      49.060   3.631  18.134  0.00  0.00    +0.000 C 
ATOM     14  N   UNL     1      48.344   3.271  19.246  0.00  0.00    +0.000 N 
ATOM     15  O   UNL     1      49.708   2.795  17.517  0.00  0.00    +0.000 OA
ATOM     16  H   UNL     1      48.022   3.946  19.922  0.00  0.00    +0.000 HD
ATOM     17  H   UNL     1      48.471   2.318  19.562  0.00  0.00    +0.000 HD
ENDBRANCH  11  13
ENDBRANCH   6   7
BRANCH   4  18
ATOM     18  C   UNL     1      45.587   7.833  12.444  0.00  0.00    +0.000 C 
ATOM     19  C   UNL     1      45.227   8.804  11.334  0.00  0.00    +0.000 C 
ATOM     20  C   UNL     1      44.908   9.174  12.740  0.00  0.00    +0.000 C 
BRANCH  18  21
ATOM     21  N   UNL     1      44.768   6.640  12.721  0.00  0.00    +0.000 N 
ATOM     22  H   UNL     1      43.976   6.769  13.342  0.00  0.00    +0.000 HD
BRANCH  21  23
ATOM     23  C   UNL     1      44.695   5.498  11.904  0.00  0.00    +0.000 A 
ATOM     24  C   UNL     1      44.050   5.468  10.675  0.00  0.00    +0.000 A 
ATOM     25  N   UNL     1      44.034   4.422   9.821  0.00  0.00    +0.000 NA
ATOM     26  C   UNL     1      44.720   3.345  10.225  0.00  0.00    +0.000 A 
ATOM     27  N   UNL     1      45.397   3.231  11.390  0.00  0.00    +0.000 NA
ATOM     28  C   UNL     1      45.371   4.311  12.209  0.00  0.00    +0.000 A 
ATOM     29  C   UNL     1      46.129   4.147  13.498  0.00  0.00    +0.000 C 
BRANCH  26  30
ATOM     30  C   UNL     1      44.742   2.134   9.315  0.00  0.00    +0.000 C 
ATOM     31  N   UNL     1      45.877   1.984   8.553  0.00  0.00    +0.000 N 
ATOM     32  O   UNL     1      43.820   1.326   9.231  0.00  0.00    +0.000 OA
ATOM     33  H   UNL     1      46.628   2.661   8.619  0.00  0.00    +0.000 HD
ATOM     34  H   UNL     1      45.948   1.193   7.928  0.00  0.00    +0.000 HD
ENDBRANCH  26  30
ENDBRANCH  21  23
ENDBRANCH  18  21
ENDBRANCH   4  18
BRANCH   1  36
ATOM     35  C   UNL     1      51.995   8.538  13.589  0.00  0.00    +0.000 C 
ATOM     36  O   UNL     1      51.021   7.790  14.305  0.00  0.00    +0.000 OA
ENDBRANCH   1  36
TORSDOF 7
ENDMDL
MODEL 7
REMARK VINA RESULT:    -6.849      3.902      8.304
REMARK INTER + INTRA:          -9.717
REMARK INTER:                  -8.373
REMARK INTRA:                  -1.344
REMARK UNBOUND:                -0.065
REMARK  Name = 
REMARK  9 active torsions:
REMARK  status: ('A' for Active; 'I' for Inactive)
REMARK    1  A    between atoms: C_1  and  O_2
REMARK    2  A    between atoms: O_2  and  C_3
REMARK    3  A    between atoms: C_6  and  C_7
REMARK    4  A    between atoms: C_7  and  N_8
REMARK    5  A    between atoms: N_8  and  C_9
REMARK    6  A    between atoms: C_12  and  C_13
REMARK    7  A    between atoms: C_17  and  C_18
REMARK    8  A    between atoms: C_22  and  C_23
REMARK    9  A    between atoms: C_27  and  C_28
REMARK                            x       y       z     vdW  Elec       q    Type
REMARK                         _______ _______ _______ _____ _____    ______ ____
ROOT
ATOM      1  C   UNL     1      49.272   8.094  13.324  0.00  0.00    +0.000 A 
ATOM      2  C   UNL     1      50.350   7.877  14.187  0.00  0.00    +0.000 A 
ATOM      3  C   UNL     1      50.172   7.910  15.574  0.00  0.00    +0.000 A 
ATOM      4  C   UNL     1      48.935   8.228  16.149  0.00  0.00    +0.000 A 
ATOM      5  C   UNL     1      47.898   8.553  15.258  0.00  0.00    +0.000 A 
ATOM      6  C   UNL     1      48.004   8.415  13.854  0.00  0.00    +0.000 A 
ENDROOT
BRANCH   6   7
ATOM      7  C   UNL     1      46.760   8.450  13.037  0.00  0.00    +0.000 A 
ATOM      8  C   UNL     1      46.312   9.597  12.366  0.00  0.00    +0.000 A 
ATOM      9  C   UNL     1      45.197   9.558  11.521  0.00  0.00    +0.000 A 
ATOM     10  C   UNL     1      44.491   8.371  11.343  0.00  0.00    +0.000 A 
ATOM     11  C   UNL     1      44.901   7.215  12.008  0.00  0.00    +0.000 A 
ATOM     12  C   UNL     1      46.015   7.263  12.852  0.00  0.00    +0.000 A 
BRANCH  11  13
ATOM     13  C   UNL     1      44.135   5.960  11.786  0.00  0.00    +0.000 C 
ATOM     14  N   UNL     1      43.023   5.749  12.561  0.00  0.00    +0.000 N 
ATOM     15  O   UNL     1      44.489   5.121  10.969  0.00  0.00    +0.000 OA
ATOM     16  H   UNL     1      42.849   6.268  13.406  0.00  0.00    +0.000 HD
ATOM     17  H   UNL     1      42.596   4.835  12.477  0.00  0.00    +0.000 HD
ENDBRANCH  11  13
ENDBRANCH   6   7
BRANCH   4  18
ATOM     18  C   UNL     1      48.669   8.131  17.655  0.00  0.00    +0.000 C 
ATOM     19  C   UNL     1      48.187   9.381  18.370  0.00  0.00    +0.000 C 
ATOM     20  C   UNL     1      49.598   8.944  18.563  0.00  0.00    +0.000 C 
BRANCH  18  21
ATOM     21  N   UNL     1      48.332   6.783  18.147  0.00  0.00    +0.000 N 
ATOM     22  H   UNL     1      47.350   6.600  18.328  0.00  0.00    +0.000 HD
BRANCH  21  23
ATOM     23  C   UNL     1      49.123   5.634  17.974  0.00  0.00    +0.000 A 
ATOM     24  C   UNL     1      50.247   5.349  18.738  0.00  0.00    +0.000 A 
ATOM     25  N   UNL     1      50.981   4.217  18.664  0.00  0.00    +0.000 NA
ATOM     26  C   UNL     1      50.548   3.313  17.776  0.00  0.00    +0.000 A 
ATOM     27  N   UNL     1      49.471   3.451  16.969  0.00  0.00    +0.000 NA
ATOM     28  C   UNL     1      48.779   4.612  17.083  0.00  0.00    +0.000 A 
ATOM     29  C   UNL     1      47.593   4.734  16.166  0.00  0.00    +0.000 C 
BRANCH  26  30
ATOM     30  C   UNL     1      51.325   2.021  17.641  0.00  0.00    +0.000 C 
ATOM     31  N   UNL     1      52.488   1.948  18.372  0.00  0.00    +0.000 N 
ATOM     32  O   UNL     1      50.976   1.084  16.926  0.00  0.00    +0.000 OA
ATOM     33  H   UNL     1      52.777   2.728  18.950  0.00  0.00    +0.000 HD
ATOM     34  H   UNL     1      53.048   1.108  18.322  0.00  0.00    +0.000 HD
ENDBRANCH  26  30
ENDBRANCH  21  23
ENDBRANCH  18  21
ENDBRANCH   4  18
BRANCH   1  36
ATOM     35  C   UNL     1      50.706   8.001  11.417  0.00  0.00    +0.000 C 
ATOM     36  O   UNL     1      49.392   8.025  11.959  0.00  0.00    +0.000 OA
ENDBRANCH   1  36
TORSDOF 7
ENDMDL
MODEL 8
REMARK VINA RESULT:    -6.746      3.728      8.983
REMARK INTER + INTRA:          -9.571
REMARK INTER:                  -8.319
REMARK INTRA:                  -1.252
REMARK UNBOUND:                -0.065
REMARK  Name = 
REMARK  9 active torsions:
REMARK  status: ('A' for Active; 'I' for Inactive)
REMARK    1  A    between atoms: C_1  and  O_2
REMARK    2  A    between atoms: O_2  and  C_3
REMARK    3  A    between atoms: C_6  and  C_7
REMARK    4  A    between atoms: C_7  and  N_8
REMARK    5  A    between atoms: N_8  and  C_9
REMARK    6  A    between atoms: C_12  and  C_13
REMARK    7  A    between atoms: C_17  and  C_18
REMARK    8  A    between atoms: C_22  and  C_23
REMARK    9  A    between atoms: C_27  and  C_28
REMARK                            x       y       z     vdW  Elec       q    Type
REMARK                         _______ _______ _______ _____ _____    ______ ____
ROOT
ATOM      1  C   UNL     1      45.286   8.482  11.764  0.00  0.00    +0.000 A 
ATOM      2  C   UNL     1      46.129   9.598  11.759  0.00  0.00    +0.000 A 
ATOM      3  C   UNL     1      47.488   9.467  12.063  0.00  0.00    +0.000 A 
ATOM      4  C   UNL     1      48.041   8.241  12.449  0.00  0.00    +0.000 A 
ATOM      5  C   UNL     1      47.148   7.160  12.556  0.00  0.00    +0.000 A 
ATOM      6  C   UNL     1      45.796   7.222  12.144  0.00  0.00    +0.000 A 
ENDROOT
BRANCH   6   7
ATOM      7  C   UNL     1      45.043   5.949  11.975  0.00  0.00    +0.000 A 
ATOM      8  C   UNL     1      44.057   5.514  12.872  0.00  0.00    +0.000 A 
ATOM      9  C   UNL     1      43.296   4.367  12.619  0.00  0.00    +0.000 A 
ATOM     10  C   UNL     1      43.519   3.616  11.468  0.00  0.00    +0.000 A 
ATOM     11  C   UNL     1      44.503   4.012  10.561  0.00  0.00    +0.000 A 
ATOM     12  C   UNL     1      45.260   5.159  10.823  0.00  0.00    +0.000 A 
BRANCH  11  13
ATOM     13  C   UNL     1      44.708   3.197   9.335  0.00  0.00    +0.000 C 
ATOM     14  N   UNL     1      44.251   3.708   8.148  0.00  0.00    +0.000 N 
ATOM     15  O   UNL     1      45.234   2.092   9.373  0.00  0.00    +0.000 OA
ATOM     16  H   UNL     1      43.592   4.469   8.106  0.00  0.00    +0.000 HD
ATOM     17  H   UNL     1      44.291   3.081   7.355  0.00  0.00    +0.000 HD
ENDBRANCH  11  13
ENDBRANCH   6   7
BRANCH   4  18
ATOM     18  C   UNL     1      49.547   8.032  12.647  0.00  0.00    +0.000 C 
ATOM     19  C   UNL     1      50.490   9.024  11.991  0.00  0.00    +0.000 C 
ATOM     20  C   UNL     1      50.351   7.666  11.395  0.00  0.00    +0.000 C 
BRANCH  18  21
ATOM     21  N   UNL     1      49.923   7.302  13.871  0.00  0.00    +0.000 N 
ATOM     22  H   UNL     1      49.996   6.293  13.790  0.00  0.00    +0.000 HD
BRANCH  21  23
ATOM     23  C   UNL     1      50.601   7.856  14.970  0.00  0.00    +0.000 A 
ATOM     24  C   UNL     1      51.977   7.791  15.141  0.00  0.00    +0.000 A 
ATOM     25  N   UNL     1      52.675   8.386  16.133  0.00  0.00    +0.000 NA
ATOM     26  C   UNL     1      51.942   9.099  16.998  0.00  0.00    +0.000 A 
ATOM     27  N   UNL     1      50.599   9.255  16.955  0.00  0.00    +0.000 NA
ATOM     28  C   UNL     1      49.953   8.628  15.941  0.00  0.00    +0.000 A 
ATOM     29  C   UNL     1      48.461   8.817  15.929  0.00  0.00    +0.000 C 
BRANCH  26  30
ATOM     30  C   UNL     1      52.661   9.792  18.136  0.00  0.00    +0.000 C 
ATOM     31  N   UNL     1      53.188  11.028  17.843  0.00  0.00    +0.000 N 
ATOM     32  O   UNL     1      52.793   9.306  19.257  0.00  0.00    +0.000 OA
ATOM     33  H   UNL     1      53.086  11.417  16.913  0.00  0.00    +0.000 HD
ATOM     34  H   UNL     1      53.678  11.537  18.565  0.00  0.00    +0.000 HD
ENDBRANCH  26  30
ENDBRANCH  21  23
ENDBRANCH  18  21
ENDBRANCH   4  18
BRANCH   1  36
ATOM     35  C   UNL     1      43.518   9.729  10.756  0.00  0.00    +0.000 C 
ATOM     36  O   UNL     1      43.959   8.556  11.427  0.00  0.00    +0.000 OA
ENDBRANCH   1  36
TORSDOF 7
ENDMDL
MODEL 9
REMARK VINA RESULT:    -6.719      4.068      7.532
REMARK INTER + INTRA:          -9.533
REMARK INTER:                  -8.226
REMARK INTRA:                  -1.307
REMARK UNBOUND:                -0.065
REMARK  Name = 
REMARK  9 active torsions:
REMARK  status: ('A' for Active; 'I' for Inactive)
REMARK    1  A    between atoms: C_1  and  O_2
REMARK    2  A    between atoms: O_2  and  C_3
REMARK    3  A    between atoms: C_6  and  C_7
REMARK    4  A    between atoms: C_7  and  N_8
REMARK    5  A    between atoms: N_8  and  C_9
REMARK    6  A    between atoms: C_12  and  C_13
REMARK    7  A    between atoms: C_17  and  C_18
REMARK    8  A    between atoms: C_22  and  C_23
REMARK    9  A    between atoms: C_27  and  C_28
REMARK                            x       y       z     vdW  Elec       q    Type
REMARK                         _______ _______ _______ _____ _____    ______ ____
ROOT
ATOM      1  C   UNL     1      45.024   8.534  11.747  0.00  0.00    +0.000 A 
ATOM      2  C   UNL     1      45.810   9.682  11.874  0.00  0.00    +0.000 A 
ATOM      3  C   UNL     1      47.030   9.640  12.559  0.00  0.00    +0.000 A 
ATOM      4  C   UNL     1      47.475   8.477  13.197  0.00  0.00    +0.000 A 
ATOM      5  C   UNL     1      46.610   7.370  13.150  0.00  0.00    +0.000 A 
ATOM      6  C   UNL     1      45.430   7.335  12.371  0.00  0.00    +0.000 A 
ENDROOT
BRANCH   6   7
ATOM      7  C   UNL     1      44.781   6.019  12.117  0.00  0.00    +0.000 A 
ATOM      8  C   UNL     1      43.766   5.493  12.930  0.00  0.00    +0.000 A 
ATOM      9  C   UNL     1      43.107   4.304  12.594  0.00  0.00    +0.000 A 
ATOM     10  C   UNL     1      43.464   3.603  11.444  0.00  0.00    +0.000 A 
ATOM     11  C   UNL     1      44.479   4.092  10.622  0.00  0.00    +0.000 A 
ATOM     12  C   UNL     1      45.134   5.279  10.966  0.00  0.00    +0.000 A 
BRANCH  11  13
ATOM     13  C   UNL     1      44.827   3.328   9.395  0.00  0.00    +0.000 C 
ATOM     14  N   UNL     1      44.819   4.003   8.202  0.00  0.00    +0.000 N 
ATOM     15  O   UNL     1      45.082   2.131   9.428  0.00  0.00    +0.000 OA
ATOM     16  H   UNL     1      44.368   4.898   8.091  0.00  0.00    +0.000 HD
ATOM     17  H   UNL     1      44.935   3.434   7.373  0.00  0.00    +0.000 HD
ENDBRANCH  11  13
ENDBRANCH   6   7
BRANCH   4  18
ATOM     18  C   UNL     1      48.867   8.354  13.828  0.00  0.00    +0.000 C 
ATOM     19  C   UNL     1      49.153   7.127  14.676  0.00  0.00    +0.000 C 
ATOM     20  C   UNL     1      48.928   8.433  15.357  0.00  0.00    +0.000 C 
BRANCH  18  21
ATOM     21  N   UNL     1      49.943   9.069  13.119  0.00  0.00    +0.000 N 
ATOM     22  H   UNL     1      50.183   9.989  13.473  0.00  0.00    +0.000 HD
BRANCH  21  23
ATOM     23  C   UNL     1      50.934   8.464  12.326  0.00  0.00    +0.000 A 
ATOM     24  C   UNL     1      50.669   7.787  11.143  0.00  0.00    +0.000 A 
ATOM     25  N   UNL     1      51.598   7.272  10.309  0.00  0.00    +0.000 NA
ATOM     26  C   UNL     1      52.870   7.461  10.683  0.00  0.00    +0.000 A 
ATOM     27  N   UNL     1      53.277   8.102  11.802  0.00  0.00    +0.000 NA
ATOM     28  C   UNL     1      52.299   8.591  12.604  0.00  0.00    +0.000 A 
ATOM     29  C   UNL     1      52.788   9.291  13.843  0.00  0.00    +0.000 C 
BRANCH  26  30
ATOM     30  C   UNL     1      53.962   6.907   9.793  0.00  0.00    +0.000 C 
ATOM     31  N   UNL     1      53.980   7.388   8.504  0.00  0.00    +0.000 N 
ATOM     32  O   UNL     1      54.787   6.075  10.161  0.00  0.00    +0.000 OA
ATOM     33  H   UNL     1      53.289   8.065   8.203  0.00  0.00    +0.000 HD
ATOM     34  H   UNL     1      54.688   7.054   7.865  0.00  0.00    +0.000 HD
ENDBRANCH  26  30
ENDBRANCH  21  23
ENDBRANCH  18  21
ENDBRANCH   4  18
BRANCH   1  36
ATOM     35  C   UNL     1      43.300   9.772  10.654  0.00  0.00    +0.000 C 
ATOM     36  O   UNL     1      43.845   8.519  11.046  0.00  0.00    +0.000 OA
ENDBRANCH   1  36
TORSDOF 7
ENDMDL
