MODEL 1
REMARK VINA RESULT:    -8.621      0.000      0.000
REMARK INTER + INTRA:          -9.274
REMARK INTER:                 -10.132
REMARK INTRA:                   0.858
REMARK UNBOUND:                 0.858
REMARK  Name = 
REMARK  4 active torsions:
REMARK  status: ('A' for Active; 'I' for Inactive)
REMARK    1  A    between atoms: C_1  and  C_2
REMARK    2  A    between atoms: C_2  and  C_3
REMARK    3  A    between atoms: C_10  and  N_11
REMARK    4  A    between atoms: C_15  and  C_16
REMARK                            x       y       z     vdW  Elec       q    Type
REMARK                         _______ _______ _______ _____ _____    ______ ____
ROOT
ATOM      1  N   UNL     1      43.920   3.307  10.372  0.00  0.00    +0.000 N 
ATOM      2  C   UNL     1      44.845   3.084   9.337  0.00  0.00    +0.000 A 
ATOM      3  C   UNL     1      45.230   1.774   9.063  0.00  0.00    +0.000 A 
ATOM      4  C   UNL     1      46.130   1.522   8.025  0.00  0.00    +0.000 A 
ATOM      5  C   UNL     1      46.638   2.582   7.274  0.00  0.00    +0.000 A 
ATOM      6  C   UNL     1      46.221   3.852   7.630  0.00  0.00    +0.000 A 
ATOM      7  N   UNL     1      45.356   4.120   8.641  0.00  0.00    +0.000 NA
ATOM      8  H   UNL     1      43.110   2.713  10.206  0.00  0.00    +0.000 HD
ENDROOT
BRANCH   1  12
ATOM      9  C   UNL     1      45.345   7.544  12.176  0.00  0.00    +0.000 C 
ATOM     10  C   UNL     1      44.895   6.077  12.121  0.00  0.00    +0.000 C 
ATOM     11  C   UNL     1      44.814   5.586  10.668  0.00  0.00    +0.000 C 
ATOM     12  C   UNL     1      43.566   4.716  10.599  0.00  0.00    +0.000 C 
ATOM     13  C   UNL     1      42.882   4.936  11.944  0.00  0.00    +0.000 C 
ATOM     14  O   UNL     1      43.535   6.033  12.595  0.00  0.00    +0.000 OA
BRANCH  10  15
ATOM     15  C   UNL     1      45.800   5.236  13.013  0.00  0.00    +0.000 A 
ATOM     16  C   UNL     1      46.561   5.809  14.041  0.00  0.00    +0.000 A 
ATOM     17  C   UNL     1      47.368   5.008  14.850  0.00  0.00    +0.000 A 
ATOM     18  C   UNL     1      47.399   3.647  14.605  0.00  0.00    +0.000 A 
ATOM     19  N   UNL     1      46.675   3.047  13.642  0.00  0.00    +0.000 NA
ATOM     20  C   UNL     1      45.888   3.849  12.884  0.00  0.00    +0.000 A 
ENDBRANCH  10  15
ENDBRANCH   1  12
BRANCH   5  21
ATOM     21  C   UNL     1      47.576   2.304   6.161  0.00  0.00    +0.000 C 
ATOM     22  N   UNL     1      47.545   3.095   5.047  0.00  0.00    +0.000 N 
ATOM     23  O   UNL     1      48.370   1.371   6.223  0.00  0.00    +0.000 OA
ATOM     24  H   UNL     1      46.925   3.873   4.882  0.00  0.00    +0.000 HD
ATOM     25  H   UNL     1      48.196   2.857   4.307  0.00  0.00    +0.000 HD
ENDBRANCH   5  21
TORSDOF 3
ENDMDL
MODEL 2
REMARK VINA RESULT:    -7.918      3.068      7.345
REMARK INTER + INTRA:          -8.449
REMARK INTER:                  -7.874
REMARK INTRA:                  -0.575
REMARK UNBOUND:                 0.858
REMARK  Name = 
REMARK  4 active torsions:
REMARK  status: ('A' for Active; 'I' for Inactive)
REMARK    1  A    between atoms: C_1  and  C_2
REMARK    2  A    between atoms: C_2  and  C_3
REMARK    3  A    between atoms: C_10  and  N_11
REMARK    4  A    between atoms: C_15  and  C_16
REMARK                            x       y       z     vdW  Elec       q    Type
REMARK                         _______ _______ _______ _____ _____    ______ ____
ROOT
ATOM      1  N   UNL     1      46.490   4.146  13.749  0.00  0.00    +0.000 N 
ATOM      2  C   UNL     1      47.162   4.094  14.983  0.00  0.00    +0.000 A 
ATOM      3  C   UNL     1      47.753   2.892  15.364  0.00  0.00    +0.000 A 
ATOM      4  C   UNL     1      48.447   2.818  16.574  0.00  0.00    +0.000 A 
ATOM      5  C   UNL     1      48.539   3.945  17.391  0.00  0.00    +0.000 A 
ATOM      6  C   UNL     1      47.900   5.089  16.947  0.00  0.00    +0.000 A 
ATOM      7  N   UNL     1      47.213   5.180  15.780  0.00  0.00    +0.000 NA
ATOM      8  H   UNL     1      47.122   3.804  13.029  0.00  0.00    +0.000 HD
ENDROOT
BRANCH   1  12
ATOM      9  C   UNL     1      43.268   6.493  11.037  0.00  0.00    +0.000 C 
ATOM     10  C   UNL     1      44.520   5.690  11.422  0.00  0.00    +0.000 C 
ATOM     11  C   UNL     1      44.470   5.278  12.900  0.00  0.00    +0.000 C 
ATOM     12  C   UNL     1      45.891   5.449  13.420  0.00  0.00    +0.000 C 
ATOM     13  C   UNL     1      46.623   6.156  12.285  0.00  0.00    +0.000 C 
ATOM     14  O   UNL     1      45.643   6.588  11.333  0.00  0.00    +0.000 OA
BRANCH  10  15
ATOM     15  C   UNL     1      44.689   4.524  10.455  0.00  0.00    +0.000 A 
ATOM     16  C   UNL     1      45.315   4.681   9.211  0.00  0.00    +0.000 A 
ATOM     17  C   UNL     1      45.468   3.590   8.357  0.00  0.00    +0.000 A 
ATOM     18  C   UNL     1      44.984   2.361   8.767  0.00  0.00    +0.000 A 
ATOM     19  N   UNL     1      44.390   2.154   9.958  0.00  0.00    +0.000 NA
ATOM     20  C   UNL     1      44.272   3.230  10.773  0.00  0.00    +0.000 A 
ENDBRANCH  10  15
ENDBRANCH   1  12
BRANCH   5  21
ATOM     21  C   UNL     1      49.295   3.863  18.664  0.00  0.00    +0.000 C 
ATOM     22  N   UNL     1      48.625   3.585  19.823  0.00  0.00    +0.000 N 
ATOM     23  O   UNL     1      50.506   4.051  18.692  0.00  0.00    +0.000 OA
ATOM     24  H   UNL     1      47.633   3.431  19.918  0.00  0.00    +0.000 HD
ATOM     25  H   UNL     1      49.183   3.553  20.669  0.00  0.00    +0.000 HD
ENDBRANCH   5  21
TORSDOF 3
ENDMDL
MODEL 3
REMARK VINA RESULT:    -7.681      3.118      6.727
REMARK INTER + INTRA:          -8.170
REMARK INTER:                  -8.344
REMARK INTRA:                   0.174
REMARK UNBOUND:                 0.858
REMARK  Name = 
REMARK  4 active torsions:
REMARK  status: ('A' for Active; 'I' for Inactive)
REMARK    1  A    between atoms: C_1  and  C_2
REMARK    2  A    between atoms: C_2  and  C_3
REMARK    3  A    between atoms: C_10  and  N_11
REMARK    4  A    between atoms: C_15  and  C_16
REMARK                            x       y       z     vdW  Elec       q    Type
REMARK                         _______ _______ _______ _____ _____    ______ ____
ROOT
ATOM      1  N   UNL     1      46.308   6.647  11.399  0.00  0.00    +0.000 N 
ATOM      2  C   UNL     1      47.343   6.832  12.332  0.00  0.00    +0.000 A 
ATOM      3  C   UNL     1      48.547   7.373  11.888  0.00  0.00    +0.000 A 
ATOM      4  C   UNL     1      49.584   7.589  12.798  0.00  0.00    +0.000 A 
ATOM      5  C   UNL     1      49.407   7.259  14.142  0.00  0.00    +0.000 A 
ATOM      6  C   UNL     1      48.190   6.704  14.491  0.00  0.00    +0.000 A 
ATOM      7  N   UNL     1      47.172   6.476  13.621  0.00  0.00    +0.000 NA
ATOM      8  H   UNL     1      46.157   7.529  10.913  0.00  0.00    +0.000 HD
ENDROOT
BRANCH   1  12
ATOM      9  C   UNL     1      43.516   2.729  11.695  0.00  0.00    +0.000 C 
ATOM     10  C   UNL     1      44.236   3.945  11.096  0.00  0.00    +0.000 C 
ATOM     11  C   UNL     1      45.203   4.563  12.117  0.00  0.00    +0.000 C 
ATOM     12  C   UNL     1      45.071   6.070  11.946  0.00  0.00    +0.000 C 
ATOM     13  C   UNL     1      43.883   6.237  11.003  0.00  0.00    +0.000 C 
ATOM     14  O   UNL     1      43.240   4.963  10.878  0.00  0.00    +0.000 OA
BRANCH  10  15
ATOM     15  C   UNL     1      44.893   3.547   9.779  0.00  0.00    +0.000 A 
ATOM     16  C   UNL     1      45.145   2.207   9.456  0.00  0.00    +0.000 A 
ATOM     17  C   UNL     1      45.733   1.876   8.235  0.00  0.00    +0.000 A 
ATOM     18  C   UNL     1      46.062   2.899   7.365  0.00  0.00    +0.000 A 
ATOM     19  N   UNL     1      45.825   4.200   7.621  0.00  0.00    +0.000 NA
ATOM     20  C   UNL     1      45.237   4.488   8.808  0.00  0.00    +0.000 A 
ENDBRANCH  10  15
ENDBRANCH   1  12
BRANCH   5  21
ATOM     21  C   UNL     1      50.506   7.511  15.105  0.00  0.00    +0.000 C 
ATOM     22  N   UNL     1      51.788   7.617  14.643  0.00  0.00    +0.000 N 
ATOM     23  O   UNL     1      50.281   7.616  16.306  0.00  0.00    +0.000 OA
ATOM     24  H   UNL     1      52.088   7.530  13.685  0.00  0.00    +0.000 HD
ATOM     25  H   UNL     1      52.506   7.776  15.342  0.00  0.00    +0.000 HD
ENDBRANCH   5  21
TORSDOF 3
ENDMDL
MODEL 4
REMARK VINA RESULT:    -7.588      3.700      6.496
REMARK INTER + INTRA:          -8.061
REMARK INTER:                  -7.523
REMARK INTRA:                  -0.538
REMARK UNBOUND:                 0.858
REMARK  Name = 
REMARK  4 active torsions:
REMARK  status: ('A' for Active; 'I' for Inactive)
REMARK    1  A    between atoms: C_1  and  C_2
REMARK    2  A    between atoms: C_2  and  C_3
REMARK    3  A    between atoms: C_10  and  N_11
REMARK    4  A    between atoms: C_15  and  C_16
REMARK                            x       y       z     vdW  Elec       q    Type
REMARK                         _______ _______ _______ _____ _____    ______ ____
ROOT
ATOM      1  N   UNL     1      47.577   5.241  15.017  0.00  0.00    +0.000 N 
ATOM      2  C   UNL     1      46.687   5.186  13.931  0.00  0.00    +0.000 A 
ATOM      3  C   UNL     1      46.953   5.976  12.815  0.00  0.00    +0.000 A 
ATOM      4  C   UNL     1      46.098   5.924  11.712  0.00  0.00    +0.000 A 
ATOM      5  C   UNL     1      44.984   5.085  11.737  0.00  0.00    +0.000 A 
ATOM      6  C   UNL     1      44.782   4.355  12.894  0.00  0.00    +0.000 A 
ATOM      7  N   UNL     1      45.594   4.398  13.981  0.00  0.00    +0.000 NA
ATOM      8  H   UNL     1      48.518   5.074  14.665  0.00  0.00    +0.000 HD
ENDROOT
BRANCH   1  12
ATOM      9  C   UNL     1      48.623   3.985  19.553  0.00  0.00    +0.000 C 
ATOM     10  C   UNL     1      48.761   4.149  18.032  0.00  0.00    +0.000 C 
ATOM     11  C   UNL     1      47.631   5.025  17.473  0.00  0.00    +0.000 C 
ATOM     12  C   UNL     1      47.225   4.379  16.156  0.00  0.00    +0.000 C 
ATOM     13  C   UNL     1      47.982   3.054  16.140  0.00  0.00    +0.000 C 
ATOM     14  O   UNL     1      48.539   2.852  17.444  0.00  0.00    +0.000 OA
BRANCH  10  15
ATOM     15  C   UNL     1      50.162   4.653  17.702  0.00  0.00    +0.000 A 
ATOM     16  C   UNL     1      50.377   5.923  17.150  0.00  0.00    +0.000 A 
ATOM     17  C   UNL     1      51.673   6.360  16.874  0.00  0.00    +0.000 A 
ATOM     18  C   UNL     1      52.727   5.510  17.155  0.00  0.00    +0.000 A 
ATOM     19  N   UNL     1      52.574   4.289  17.701  0.00  0.00    +0.000 NA
ATOM     20  C   UNL     1      51.305   3.899  17.973  0.00  0.00    +0.000 A 
ENDBRANCH  10  15
ENDBRANCH   1  12
BRANCH   5  21
ATOM     21  C   UNL     1      44.093   5.020  10.554  0.00  0.00    +0.000 C 
ATOM     22  N   UNL     1      44.633   4.762   9.325  0.00  0.00    +0.000 N 
ATOM     23  O   UNL     1      42.886   5.204  10.662  0.00  0.00    +0.000 OA
ATOM     24  H   UNL     1      45.608   4.614   9.118  0.00  0.00    +0.000 HD
ATOM     25  H   UNL     1      43.986   4.741   8.545  0.00  0.00    +0.000 HD
ENDBRANCH   5  21
TORSDOF 3
ENDMDL
MODEL 5
REMARK VINA RESULT:    -7.226      1.402      2.106
REMARK INTER + INTRA:          -7.635
REMARK INTER:                  -8.424
REMARK INTRA:                   0.790
REMARK UNBOUND:                 0.858
REMARK  Name = 
REMARK  4 active torsions:
REMARK  status: ('A' for Active; 'I' for Inactive)
REMARK    1  A    between atoms: C_1  and  C_2
REMARK    2  A    between atoms: C_2  and  C_3
REMARK    3  A    between atoms: C_10  and  N_11
REMARK    4  A    between atoms: C_15  and  C_16
REMARK                            x       y       z     vdW  Elec       q    Type
REMARK                         _______ _______ _______ _____ _____    ______ ____
ROOT
ATOM      1  N   UNL     1      44.130   4.929   9.636  0.00  0.00    +0.000 N 
ATOM      2  C   UNL     1      44.992   4.110   8.887  0.00  0.00    +0.000 A 
ATOM      3  C   UNL     1      45.808   4.706   7.929  0.00  0.00    +0.000 A 
ATOM      4  C   UNL     1      46.691   3.919   7.187  0.00  0.00    +0.000 A 
ATOM      5  C   UNL     1      46.745   2.542   7.407  0.00  0.00    +0.000 A 
ATOM      6  C   UNL     1      45.882   2.030   8.358  0.00  0.00    +0.000 A 
ATOM      7  N   UNL     1      45.009   2.776   9.084  0.00  0.00    +0.000 NA
ATOM      8  H   UNL     1      44.681   5.682  10.042  0.00  0.00    +0.000 HD
ENDROOT
BRANCH   1  12
ATOM      9  C   UNL     1      42.926   4.528  14.287  0.00  0.00    +0.000 C 
ATOM     10  C   UNL     1      43.765   4.465  13.003  0.00  0.00    +0.000 C 
ATOM     11  C   UNL     1      43.016   5.111  11.828  0.00  0.00    +0.000 C 
ATOM     12  C   UNL     1      43.300   4.224  10.624  0.00  0.00    +0.000 C 
ATOM     13  C   UNL     1      44.005   3.006  11.214  0.00  0.00    +0.000 C 
ATOM     14  O   UNL     1      43.881   3.076  12.639  0.00  0.00    +0.000 OA
BRANCH  10  15
ATOM     15  C   UNL     1      45.141   5.066  13.268  0.00  0.00    +0.000 A 
ATOM     16  C   UNL     1      45.470   6.366  12.862  0.00  0.00    +0.000 A 
ATOM     17  C   UNL     1      46.733   6.891  13.135  0.00  0.00    +0.000 A 
ATOM     18  C   UNL     1      47.645   6.096  13.805  0.00  0.00    +0.000 A 
ATOM     19  N   UNL     1      47.373   4.847  14.230  0.00  0.00    +0.000 NA
ATOM     20  C   UNL     1      46.131   4.372  13.965  0.00  0.00    +0.000 A 
ENDBRANCH  10  15
ENDBRANCH   1  12
BRANCH   5  21
ATOM     21  C   UNL     1      47.700   1.717   6.630  0.00  0.00    +0.000 C 
ATOM     22  N   UNL     1      48.473   2.312   5.672  0.00  0.00    +0.000 N 
ATOM     23  O   UNL     1      47.797   0.510   6.827  0.00  0.00    +0.000 OA
ATOM     24  H   UNL     1      48.463   3.287   5.416  0.00  0.00    +0.000 HD
ATOM     25  H   UNL     1      49.100   1.704   5.158  0.00  0.00    +0.000 HD
ENDBRANCH   5  21
TORSDOF 3
ENDMDL
MODEL 6
REMARK VINA RESULT:    -6.854      3.166      6.582
REMARK INTER + INTRA:          -7.197
REMARK INTER:                  -8.153
REMARK INTRA:                   0.955
REMARK UNBOUND:                 0.858
REMARK  Name = 
REMARK  4 active torsions:
REMARK  status: ('A' for Active; 'I' for Inactive)
REMARK    1  A    between atoms: C_1  and  C_2
REMARK    2  A    between atoms: C_2  and  C_3
REMARK    3  A    between atoms: C_10  and  N_11
REMARK    4  A    between atoms: C_15  and  C_16
REMARK                            x       y       z     vdW  Elec       q    Type
REMARK                         _______ _______ _______ _____ _____    ______ ____
ROOT
ATOM      1  N   UNL     1      46.954   5.337  12.823  0.00  0.00    +0.000 N 
ATOM      2  C   UNL     1      47.199   6.716  12.699  0.00  0.00    +0.000 A 
ATOM      3  C   UNL     1      48.497   7.136  12.417  0.00  0.00    +0.000 A 
ATOM      4  C   UNL     1      48.764   8.498  12.265  0.00  0.00    +0.000 A 
ATOM      5  C   UNL     1      47.732   9.427  12.400  0.00  0.00    +0.000 A 
ATOM      6  C   UNL     1      46.480   8.925  12.705  0.00  0.00    +0.000 A 
ATOM      7  N   UNL     1      46.200   7.606  12.867  0.00  0.00    +0.000 NA
ATOM      8  H   UNL     1      47.317   4.875  11.993  0.00  0.00    +0.000 HD
ENDROOT
BRANCH   1  12
ATOM      9  C   UNL     1      43.201   2.557  11.630  0.00  0.00    +0.000 C 
ATOM     10  C   UNL     1      44.276   3.649  11.535  0.00  0.00    +0.000 C 
ATOM     11  C   UNL     1      45.267   3.543  12.702  0.00  0.00    +0.000 C 
ATOM     12  C   UNL     1      45.560   4.977  13.123  0.00  0.00    +0.000 C 
ATOM     13  C   UNL     1      44.559   5.811  12.330  0.00  0.00    +0.000 C 
ATOM     14  O   UNL     1      43.614   4.914  11.735  0.00  0.00    +0.000 OA
BRANCH  10  15
ATOM     15  C   UNL     1      44.928   3.599  10.158  0.00  0.00    +0.000 A 
ATOM     16  C   UNL     1      45.140   2.387   9.486  0.00  0.00    +0.000 A 
ATOM     17  C   UNL     1      45.725   2.377   8.220  0.00  0.00    +0.000 A 
ATOM     18  C   UNL     1      46.092   3.585   7.655  0.00  0.00    +0.000 A 
ATOM     19  N   UNL     1      45.894   4.776   8.252  0.00  0.00    +0.000 NA
ATOM     20  C   UNL     1      45.308   4.754   9.474  0.00  0.00    +0.000 A 
ENDBRANCH  10  15
ENDBRANCH   1  12
BRANCH   5  21
ATOM     21  C   UNL     1      48.021  10.869  12.217  0.00  0.00    +0.000 C 
ATOM     22  N   UNL     1      47.656  11.480  11.050  0.00  0.00    +0.000 N 
ATOM     23  O   UNL     1      48.588  11.515  13.091  0.00  0.00    +0.000 OA
ATOM     24  H   UNL     1      47.203  11.045  10.262  0.00  0.00    +0.000 HD
ATOM     25  H   UNL     1      47.886  12.464  10.966  0.00  0.00    +0.000 HD
ENDBRANCH   5  21
TORSDOF 3
ENDMDL
MODEL 7
REMARK VINA RESULT:    -6.849      3.982      6.021
REMARK INTER + INTRA:          -7.192
REMARK INTER:                  -6.567
REMARK INTRA:                  -0.625
REMARK UNBOUND:                 0.858
REMARK  Name = 
REMARK  4 active torsions:
REMARK  status: ('A' for Active; 'I' for Inactive)
REMARK    1  A    between atoms: C_1  and  C_2
REMARK    2  A    between atoms: C_2  and  C_3
REMARK    3  A    between atoms: C_10  and  N_11
REMARK    4  A    between atoms: C_15  and  C_16
REMARK                            x       y       z     vdW  Elec       q    Type
REMARK                         _______ _______ _______ _____ _____    ______ ____
ROOT
ATOM      1  N   UNL     1      47.486   6.372  14.225  0.00  0.00    +0.000 N 
ATOM      2  C   UNL     1      46.648   5.782  13.263  0.00  0.00    +0.000 A 
ATOM      3  C   UNL     1      45.942   4.633  13.613  0.00  0.00    +0.000 A 
ATOM      4  C   UNL     1      45.084   4.040  12.684  0.00  0.00    +0.000 A 
ATOM      5  C   UNL     1      44.944   4.600  11.414  0.00  0.00    +0.000 A 
ATOM      6  C   UNL     1      45.701   5.725  11.143  0.00  0.00    +0.000 A 
ATOM      7  N   UNL     1      46.548   6.311  12.027  0.00  0.00    +0.000 NA
ATOM      8  H   UNL     1      46.942   6.519  15.072  0.00  0.00    +0.000 HD
ENDROOT
BRANCH   1  12
ATOM      9  C   UNL     1      51.477   9.044  14.640  0.00  0.00    +0.000 C 
ATOM     10  C   UNL     1      50.145   8.373  15.005  0.00  0.00    +0.000 C 
ATOM     11  C   UNL     1      49.704   7.400  13.902  0.00  0.00    +0.000 C 
ATOM     12  C   UNL     1      48.197   7.578  13.777  0.00  0.00    +0.000 C 
ATOM     13  C   UNL     1      47.891   8.792  14.649  0.00  0.00    +0.000 C 
ATOM     14  O   UNL     1      49.137   9.402  15.005  0.00  0.00    +0.000 OA
BRANCH  10  15
ATOM     15  C   UNL     1      50.261   7.737  16.386  0.00  0.00    +0.000 A 
ATOM     16  C   UNL     1      50.402   6.353  16.552  0.00  0.00    +0.000 A 
ATOM     17  C   UNL     1      50.521   5.805  17.829  0.00  0.00    +0.000 A 
ATOM     18  C   UNL     1      50.491   6.659  18.916  0.00  0.00    +0.000 A 
ATOM     19  N   UNL     1      50.374   7.997  18.809  0.00  0.00    +0.000 NA
ATOM     20  C   UNL     1      50.278   8.500  17.555  0.00  0.00    +0.000 A 
ENDBRANCH  10  15
ENDBRANCH   1  12
BRANCH   5  21
ATOM     21  C   UNL     1      44.015   3.976  10.442  0.00  0.00    +0.000 C 
ATOM     22  N   UNL     1      43.952   4.467   9.168  0.00  0.00    +0.000 N 
ATOM     23  O   UNL     1      43.299   3.035  10.767  0.00  0.00    +0.000 OA
ATOM     24  H   UNL     1      44.479   5.243   8.799  0.00  0.00    +0.000 HD
ATOM     25  H   UNL     1      43.293   4.016   8.543  0.00  0.00    +0.000 HD
ENDBRANCH   5  21
TORSDOF 3
ENDMDL
MODEL 8
REMARK VINA RESULT:    -6.788      4.320      6.199
REMARK INTER + INTRA:          -7.120
REMARK INTER:                  -6.532
REMARK INTRA:                  -0.589
REMARK UNBOUND:                 0.858
REMARK  Name = 
REMARK  4 active torsions:
REMARK  status: ('A' for Active; 'I' for Inactive)
REMARK    1  A    between atoms: C_1  and  C_2
REMARK    2  A    between atoms: C_2  and  C_3
REMARK    3  A    between atoms: C_10  and  N_11
REMARK    4  A    between atoms: C_15  and  C_16
REMARK                            x       y       z     vdW  Elec       q    Type
REMARK                         _______ _______ _______ _____ _____    ______ ____
ROOT
ATOM      1  N   UNL     1      47.110   7.226  12.048  0.00  0.00    +0.000 N 
ATOM      2  C   UNL     1      46.308   6.102  11.781  0.00  0.00    +0.000 A 
ATOM      3  C   UNL     1      45.845   5.912  10.481  0.00  0.00    +0.000 A 
ATOM      4  C   UNL     1      45.066   4.792  10.183  0.00  0.00    +0.000 A 
ATOM      5  C   UNL     1      44.755   3.875  11.188  0.00  0.00    +0.000 A 
ATOM      6  C   UNL     1      45.234   4.155  12.454  0.00  0.00    +0.000 A 
ATOM      7  N   UNL     1      45.985   5.242  12.768  0.00  0.00    +0.000 NA
ATOM      8  H   UNL     1      47.878   7.233  11.380  0.00  0.00    +0.000 HD
ENDROOT
BRANCH   1  12
ATOM      9  C   UNL     1      49.113  10.110  15.351  0.00  0.00    +0.000 C 
ATOM     10  C   UNL     1      48.968   9.228  14.102  0.00  0.00    +0.000 C 
ATOM     11  C   UNL     1      47.506   8.808  13.897  0.00  0.00    +0.000 C 
ATOM     12  C   UNL     1      47.556   7.355  13.443  0.00  0.00    +0.000 C 
ATOM     13  C   UNL     1      49.017   6.956  13.627  0.00  0.00    +0.000 C 
ATOM     14  O   UNL     1      49.665   7.995  14.371  0.00  0.00    +0.000 OA
BRANCH  10  15
ATOM     15  C   UNL     1      49.585   9.941  12.904  0.00  0.00    +0.000 A 
ATOM     16  C   UNL     1      48.800  10.432  11.853  0.00  0.00    +0.000 A 
ATOM     17  C   UNL     1      49.395  11.094  10.779  0.00  0.00    +0.000 A 
ATOM     18  C   UNL     1      50.769  11.244  10.779  0.00  0.00    +0.000 A 
ATOM     19  N   UNL     1      51.566  10.805  11.772  0.00  0.00    +0.000 NA
ATOM     20  C   UNL     1      50.957  10.181  12.810  0.00  0.00    +0.000 A 
ENDBRANCH  10  15
ENDBRANCH   1  12
BRANCH   5  21
ATOM     21  C   UNL     1      43.945   2.678  10.858  0.00  0.00    +0.000 C 
ATOM     22  N   UNL     1      44.311   1.895   9.799  0.00  0.00    +0.000 N 
ATOM     23  O   UNL     1      42.951   2.389  11.514  0.00  0.00    +0.000 OA
ATOM     24  H   UNL     1      45.095   2.048   9.184  0.00  0.00    +0.000 HD
ATOM     25  H   UNL     1      43.719   1.096   9.604  0.00  0.00    +0.000 HD
ENDBRANCH   5  21
TORSDOF 3
ENDMDL
MODEL 9
REMARK VINA RESULT:    -6.372      3.955      8.348
REMARK INTER + INTRA:          -6.632
REMARK INTER:                  -6.029
REMARK INTRA:                  -0.602
REMARK UNBOUND:                 0.858
REMARK  Name = 
REMARK  4 active torsions:
REMARK  status: ('A' for Active; 'I' for Inactive)
REMARK    1  A    between atoms: C_1  and  C_2
REMARK    2  A    between atoms: C_2  and  C_3
REMARK    3  A    between atoms: C_10  and  N_11
REMARK    4  A    between atoms: C_15  and  C_16
REMARK                            x       y       z     vdW  Elec       q    Type
REMARK                         _______ _______ _______ _____ _____    ______ ____
ROOT
ATOM      1  N   UNL     1      47.648   5.645  14.807  0.00  0.00    +0.000 N 
ATOM      2  C   UNL     1      48.254   5.623  16.075  0.00  0.00    +0.000 A 
ATOM      3  C   UNL     1      48.020   4.528  16.903  0.00  0.00    +0.000 A 
ATOM      4  C   UNL     1      48.628   4.469  18.160  0.00  0.00    +0.000 A 
ATOM      5  C   UNL     1      49.461   5.508  18.575  0.00  0.00    +0.000 A 
ATOM      6  C   UNL     1      49.618   6.568  17.701  0.00  0.00    +0.000 A 
ATOM      7  N   UNL     1      49.029   6.650  16.481  0.00  0.00    +0.000 NA
ATOM      8  H   UNL     1      47.872   4.772  14.334  0.00  0.00    +0.000 HD
ENDROOT
BRANCH   1  12
ATOM      9  C   UNL     1      45.922   8.866  11.663  0.00  0.00    +0.000 C 
ATOM     10  C   UNL     1      46.402   7.526  12.240  0.00  0.00    +0.000 C 
ATOM     11  C   UNL     1      46.681   7.649  13.745  0.00  0.00    +0.000 C 
ATOM     12  C   UNL     1      47.943   6.835  13.995  0.00  0.00    +0.000 C 
ATOM     13  C   UNL     1      48.442   6.478  12.598  0.00  0.00    +0.000 C 
ATOM     14  O   UNL     1      47.689   7.249  11.654  0.00  0.00    +0.000 OA
BRANCH  10  15
ATOM     15  C   UNL     1      45.403   6.433  11.879  0.00  0.00    +0.000 A 
ATOM     16  C   UNL     1      45.409   5.814  10.622  0.00  0.00    +0.000 A 
ATOM     17  C   UNL     1      44.491   4.806  10.329  0.00  0.00    +0.000 A 
ATOM     18  C   UNL     1      43.580   4.442  11.304  0.00  0.00    +0.000 A 
ATOM     19  N   UNL     1      43.544   4.994  12.532  0.00  0.00    +0.000 NA
ATOM     20  C   UNL     1      44.460   5.959  12.792  0.00  0.00    +0.000 A 
ENDBRANCH  10  15
ENDBRANCH   1  12
BRANCH   5  21
ATOM     21  C   UNL     1      50.119   5.428  19.902  0.00  0.00    +0.000 C 
ATOM     22  N   UNL     1      49.928   4.319  20.677  0.00  0.00    +0.000 N 
ATOM     23  O   UNL     1      50.822   6.344  20.313  0.00  0.00    +0.000 OA
ATOM     24  H   UNL     1      49.360   3.519  20.447  0.00  0.00    +0.000 HD
ATOM     25  H   UNL     1      50.387   4.316  21.580  0.00  0.00    +0.000 HD
ENDBRANCH   5  21
TORSDOF 3
ENDMDL
