MODEL 1
REMARK VINA RESULT:    -8.721      0.000      0.000
REMARK INTER + INTRA:         -12.527
REMARK INTER:                 -11.780
REMARK INTRA:                  -0.747
REMARK UNBOUND:                -0.747
REMARK  Name = 
REMARK  7 active torsions:
REMARK  status: ('A' for Active; 'I' for Inactive)
REMARK    1  A    between atoms: C_1  and  N_2
REMARK    2  A    between atoms: N_2  and  C_3
REMARK    3  A    between atoms: C_3  and  C_4
REMARK    4  A    between atoms: C_7  and  C_8
REMARK    5  A    between atoms: C_8  and  N_9
REMARK    6  A    between atoms: C_10  and  C_12
REMARK    7  A    between atoms: C_19  and  C_21
REMARK                            x       y       z     vdW  Elec       q    Type
REMARK                         _______ _______ _______ _____ _____    ______ ____
ROOT
ATOM      1  C   UNL     1      47.291   5.548  13.453  0.00  0.00    +0.000 A 
ATOM      2  C   UNL     1      47.916   6.186  14.524  0.00  0.00    +0.000 A 
ATOM      3  C   UNL     1      48.019   5.529  15.744  0.00  0.00    +0.000 A 
ATOM      4  C   UNL     1      47.498   4.243  15.867  0.00  0.00    +0.000 A 
ATOM      5  N   UNL     1      46.891   3.600  14.837  0.00  0.00    +0.000 NA
ATOM      6  C   UNL     1      46.808   4.259  13.661  0.00  0.00    +0.000 A 
ENDROOT
BRANCH   1   7
ATOM      7  C   UNL     1      47.099   6.245  12.139  0.00  0.00    +0.000 C 
BRANCH   7   9
ATOM      8  C   UNL     1      46.066   8.567  12.147  0.00  0.00    +0.000 C 
ATOM      9  N   UNL     1      45.927   7.120  12.010  0.00  0.00    +0.000 N 
ATOM     10  C   UNL     1      44.668   6.677  11.561  0.00  0.00    +0.000 C 
ATOM     11  O   UNL     1      43.763   7.476  11.330  0.00  0.00    +0.000 OA
BRANCH  10  12
ATOM     12  C   UNL     1      44.416   5.238  11.407  0.00  0.00    +0.000 A 
ATOM     13  C   UNL     1      43.643   4.478  12.269  0.00  0.00    +0.000 A 
ATOM     14  S   UNL     1      43.476   2.850  11.785  0.00  0.00    +0.000 S 
ATOM     15  C   UNL     1      44.307   3.144  10.330  0.00  0.00    +0.000 A 
ATOM     16  N   UNL     1      44.426   2.174   9.386  0.00  0.00    +0.000 NA
ATOM     17  C   UNL     1      45.014   2.562   8.303  0.00  0.00    +0.000 A 
ATOM     18  N   UNL     1      45.528   3.817   8.098  0.00  0.00    +0.000 N 
ATOM     19  C   UNL     1      45.556   4.786   9.078  0.00  0.00    +0.000 A 
ATOM     20  O   UNL     1      46.233   5.798   8.946  0.00  0.00    +0.000 OA
ATOM     21  C   UNL     1      44.791   4.437  10.264  0.00  0.00    +0.000 A 
ATOM     22  H   UNL     1      46.039   4.033   7.255  0.00  0.00    +0.000 HD
ENDBRANCH  10  12
ENDBRANCH   7   9
ENDBRANCH   1   7
BRANCH   4  23
ATOM     23  C   UNL     1      47.523   3.539  17.201  0.00  0.00    +0.000 C 
BRANCH  23  24
ATOM     24  N   UNL     1      48.875   3.269  17.634  0.00  0.00    +0.000 N 
ATOM     25  C   UNL     1      49.676   2.355  16.989  0.00  0.00    +0.000 C 
ATOM     26  O   UNL     1      49.284   1.686  16.033  0.00  0.00    +0.000 OA
ATOM     27  H   UNL     1      49.294   3.934  18.265  0.00  0.00    +0.000 HD
BRANCH  25  28
ATOM     28  C   UNL     1      51.029   2.237  17.536  0.00  0.00    +0.000 A 
ATOM     29  C   UNL     1      51.948   3.247  17.961  0.00  0.00    +0.000 A 
ATOM     30  C   UNL     1      53.086   2.625  18.430  0.00  0.00    +0.000 A 
ATOM     31  N   UNL     1      52.904   1.274  18.311  0.00  0.00    +0.000 N 
ATOM     32  C   UNL     1      51.670   1.031  17.770  0.00  0.00    +0.000 A 
ATOM     33  H   UNL     1      53.574   0.566  18.584  0.00  0.00    +0.000 HD
ENDBRANCH  25  28
ENDBRANCH  23  24
ENDBRANCH   4  23
TORSDOF 6
ENDMDL
MODEL 2
REMARK VINA RESULT:    -8.379      1.389      2.123
REMARK INTER + INTRA:         -12.064
REMARK INTER:                 -10.997
REMARK INTRA:                  -1.067
REMARK UNBOUND:                -0.747
REMARK  Name = 
REMARK  7 active torsions:
REMARK  status: ('A' for Active; 'I' for Inactive)
REMARK    1  A    between atoms: C_1  and  N_2
REMARK    2  A    between atoms: N_2  and  C_3
REMARK    3  A    between atoms: C_3  and  C_4
REMARK    4  A    between atoms: C_7  and  C_8
REMARK    5  A    between atoms: C_8  and  N_9
REMARK    6  A    between atoms: C_10  and  C_12
REMARK    7  A    between atoms: C_19  and  C_21
REMARK                            x       y       z     vdW  Elec       q    Type
REMARK                         _______ _______ _______ _____ _____    ______ ____
ROOT
ATOM      1  C   UNL     1      47.526   5.760  13.630  0.00  0.00    +0.000 A 
ATOM      2  C   UNL     1      48.160   6.281  14.758  0.00  0.00    +0.000 A 
ATOM      3  C   UNL     1      48.245   5.509  15.911  0.00  0.00    +0.000 A 
ATOM      4  C   UNL     1      47.698   4.229  15.910  0.00  0.00    +0.000 A 
ATOM      5  N   UNL     1      47.082   3.698  14.823  0.00  0.00    +0.000 NA
ATOM      6  C   UNL     1      47.018   4.467  13.714  0.00  0.00    +0.000 A 
ENDROOT
BRANCH   1   7
ATOM      7  C   UNL     1      47.354   6.582  12.387  0.00  0.00    +0.000 C 
BRANCH   7   9
ATOM      8  C   UNL     1      46.257   8.787  13.013  0.00  0.00    +0.000 C 
ATOM      9  N   UNL     1      46.202   7.492  12.342  0.00  0.00    +0.000 N 
ATOM     10  C   UNL     1      45.082   7.291  11.514  0.00  0.00    +0.000 C 
ATOM     11  O   UNL     1      44.215   8.156  11.402  0.00  0.00    +0.000 OA
BRANCH  10  12
ATOM     12  C   UNL     1      44.920   6.014  10.805  0.00  0.00    +0.000 A 
ATOM     13  C   UNL     1      45.518   5.706   9.594  0.00  0.00    +0.000 A 
ATOM     14  S   UNL     1      45.198   4.117   9.059  0.00  0.00    +0.000 S 
ATOM     15  C   UNL     1      44.375   3.742  10.499  0.00  0.00    +0.000 A 
ATOM     16  N   UNL     1      43.928   2.482  10.740  0.00  0.00    +0.000 NA
ATOM     17  C   UNL     1      43.390   2.326  11.904  0.00  0.00    +0.000 A 
ATOM     18  N   UNL     1      43.224   3.325  12.829  0.00  0.00    +0.000 N 
ATOM     19  C   UNL     1      43.533   4.644  12.573  0.00  0.00    +0.000 A 
ATOM     20  O   UNL     1      43.150   5.538  13.317  0.00  0.00    +0.000 OA
ATOM     21  C   UNL     1      44.259   4.841  11.328  0.00  0.00    +0.000 A 
ATOM     22  H   UNL     1      42.732   3.151  13.692  0.00  0.00    +0.000 HD
ENDBRANCH  10  12
ENDBRANCH   7   9
ENDBRANCH   1   7
BRANCH   4  23
ATOM     23  C   UNL     1      47.704   3.401  17.171  0.00  0.00    +0.000 C 
BRANCH  23  24
ATOM     24  N   UNL     1      49.049   3.127  17.621  0.00  0.00    +0.000 N 
ATOM     25  C   UNL     1      49.889   2.283  16.931  0.00  0.00    +0.000 C 
ATOM     26  O   UNL     1      49.539   1.683  15.914  0.00  0.00    +0.000 OA
ATOM     27  H   UNL     1      49.436   3.750  18.313  0.00  0.00    +0.000 HD
BRANCH  25  28
ATOM     28  C   UNL     1      51.228   2.152  17.506  0.00  0.00    +0.000 A 
ATOM     29  C   UNL     1      52.140   1.050  17.488  0.00  0.00    +0.000 A 
ATOM     30  C   UNL     1      53.291   1.431  18.144  0.00  0.00    +0.000 A 
ATOM     31  N   UNL     1      53.125   2.722  18.565  0.00  0.00    +0.000 N 
ATOM     32  C   UNL     1      51.884   3.164  18.189  0.00  0.00    +0.000 A 
ATOM     33  H   UNL     1      53.812   3.268  19.070  0.00  0.00    +0.000 HD
ENDBRANCH  25  28
ENDBRANCH  23  24
ENDBRANCH   4  23
TORSDOF 6
ENDMDL
MODEL 3
REMARK VINA RESULT:    -7.864      3.441      8.381
REMARK INTER + INTRA:         -11.369
REMARK INTER:                 -10.299
REMARK INTRA:                  -1.070
REMARK UNBOUND:                -0.747
REMARK  Name = 
REMARK  7 active torsions:
REMARK  status: ('A' for Active; 'I' for Inactive)
REMARK    1  A    between atoms: C_1  and  N_2
REMARK    2  A    between atoms: N_2  and  C_3
REMARK    3  A    between atoms: C_3  and  C_4
REMARK    4  A    between atoms: C_7  and  C_8
REMARK    5  A    between atoms: C_8  and  N_9
REMARK    6  A    between atoms: C_10  and  C_12
REMARK    7  A    between atoms: C_19  and  C_21
REMARK                            x       y       z     vdW  Elec       q    Type
REMARK                         _______ _______ _______ _____ _____    ______ ____
ROOT
ATOM      1  C   UNL     1      46.474   6.406  13.223  0.00  0.00    +0.000 A 
ATOM      2  C   UNL     1      45.698   6.709  12.104  0.00  0.00    +0.000 A 
ATOM      3  C   UNL     1      44.973   5.699  11.483  0.00  0.00    +0.000 A 
ATOM      4  C   UNL     1      45.036   4.406  11.996  0.00  0.00    +0.000 A 
ATOM      5  N   UNL     1      45.779   4.089  13.087  0.00  0.00    +0.000 NA
ATOM      6  C   UNL     1      46.470   5.090  13.675  0.00  0.00    +0.000 A 
ENDROOT
BRANCH   1   7
ATOM      7  C   UNL     1      47.323   7.450  13.885  0.00  0.00    +0.000 C 
BRANCH   7   9
ATOM      8  C   UNL     1      49.388   6.960  12.487  0.00  0.00    +0.000 C 
ATOM      9  N   UNL     1      48.779   7.299  13.770  0.00  0.00    +0.000 N 
ATOM     10  C   UNL     1      49.683   7.656  14.788  0.00  0.00    +0.000 C 
ATOM     11  O   UNL     1      50.896   7.650  14.587  0.00  0.00    +0.000 OA
BRANCH  10  12
ATOM     12  C   UNL     1      49.176   7.998  16.124  0.00  0.00    +0.000 A 
ATOM     13  C   UNL     1      49.017   9.291  16.597  0.00  0.00    +0.000 A 
ATOM     14  S   UNL     1      48.338   9.367  18.161  0.00  0.00    +0.000 S 
ATOM     15  C   UNL     1      48.099   7.684  18.196  0.00  0.00    +0.000 A 
ATOM     16  N   UNL     1      47.447   7.093  19.232  0.00  0.00    +0.000 NA
ATOM     17  C   UNL     1      47.271   5.821  19.087  0.00  0.00    +0.000 A 
ATOM     18  N   UNL     1      47.723   5.084  18.022  0.00  0.00    +0.000 N 
ATOM     19  C   UNL     1      48.509   5.616  17.021  0.00  0.00    +0.000 A 
ATOM     20  O   UNL     1      49.094   4.891  16.226  0.00  0.00    +0.000 OA
ATOM     21  C   UNL     1      48.621   7.065  17.077  0.00  0.00    +0.000 A 
ATOM     22  H   UNL     1      47.613   4.082  18.005  0.00  0.00    +0.000 HD
ENDBRANCH  10  12
ENDBRANCH   7   9
ENDBRANCH   1   7
BRANCH   4  23
ATOM     23  C   UNL     1      44.325   3.276  11.294  0.00  0.00    +0.000 C 
BRANCH  23  24
ATOM     24  N   UNL     1      45.129   2.723  10.227  0.00  0.00    +0.000 N 
ATOM     25  C   UNL     1      45.045   3.192   8.937  0.00  0.00    +0.000 C 
ATOM     26  O   UNL     1      44.259   4.079   8.601  0.00  0.00    +0.000 OA
ATOM     27  H   UNL     1      45.918   2.157  10.496  0.00  0.00    +0.000 HD
BRANCH  25  28
ATOM     28  C   UNL     1      45.959   2.546   7.993  0.00  0.00    +0.000 A 
ATOM     29  C   UNL     1      46.676   3.088   6.880  0.00  0.00    +0.000 A 
ATOM     30  C   UNL     1      47.432   2.079   6.322  0.00  0.00    +0.000 A 
ATOM     31  N   UNL     1      47.209   0.940   7.046  0.00  0.00    +0.000 N 
ATOM     32  C   UNL     1      46.321   1.210   8.052  0.00  0.00    +0.000 A 
ATOM     33  H   UNL     1      47.638   0.039   6.869  0.00  0.00    +0.000 HD
ENDBRANCH  25  28
ENDBRANCH  23  24
ENDBRANCH   4  23
TORSDOF 6
ENDMDL
MODEL 4
REMARK VINA RESULT:    -7.374      2.762      8.350
REMARK INTER + INTRA:         -10.708
REMARK INTER:                  -9.685
REMARK INTRA:                  -1.023
REMARK UNBOUND:                -0.747
REMARK  Name = 
REMARK  7 active torsions:
REMARK  status: ('A' for Active; 'I' for Inactive)
REMARK    1  A    between atoms: C_1  and  N_2
REMARK    2  A    between atoms: N_2  and  C_3
REMARK    3  A    between atoms: C_3  and  C_4
REMARK    4  A    between atoms: C_7  and  C_8
REMARK    5  A    between atoms: C_8  and  N_9
REMARK    6  A    between atoms: C_10  and  C_12
REMARK    7  A    between atoms: C_19  and  C_21
REMARK                            x       y       z     vdW  Elec       q    Type
REMARK                         _______ _______ _______ _____ _____    ______ ____
ROOT
ATOM      1  C   UNL     1      47.970   6.532  13.842  0.00  0.00    +0.000 A 
ATOM      2  C   UNL     1      47.757   7.492  12.853  0.00  0.00    +0.000 A 
ATOM      3  C   UNL     1      46.766   7.282  11.902  0.00  0.00    +0.000 A 
ATOM      4  C   UNL     1      46.005   6.118  11.961  0.00  0.00    +0.000 A 
ATOM      5  N   UNL     1      46.190   5.173  12.918  0.00  0.00    +0.000 NA
ATOM      6  C   UNL     1      47.156   5.403  13.834  0.00  0.00    +0.000 A 
ENDROOT
BRANCH   1   7
ATOM      7  C   UNL     1      49.072   6.685  14.849  0.00  0.00    +0.000 C 
BRANCH   7   9
ATOM      8  C   UNL     1      48.681   8.891  16.051  0.00  0.00    +0.000 C 
ATOM      9  N   UNL     1      48.758   7.432  16.074  0.00  0.00    +0.000 N 
ATOM     10  C   UNL     1      48.323   6.826  17.267  0.00  0.00    +0.000 C 
ATOM     11  O   UNL     1      47.932   7.505  18.215  0.00  0.00    +0.000 OA
BRANCH  10  12
ATOM     12  C   UNL     1      48.376   5.364  17.402  0.00  0.00    +0.000 A 
ATOM     13  C   UNL     1      47.285   4.522  17.268  0.00  0.00    +0.000 A 
ATOM     14  S   UNL     1      47.677   2.867  17.408  0.00  0.00    +0.000 S 
ATOM     15  C   UNL     1      49.339   3.215  17.503  0.00  0.00    +0.000 A 
ATOM     16  N   UNL     1      50.261   2.218  17.530  0.00  0.00    +0.000 NA
ATOM     17  C   UNL     1      51.484   2.631  17.526  0.00  0.00    +0.000 A 
ATOM     18  N   UNL     1      51.866   3.948  17.539  0.00  0.00    +0.000 N 
ATOM     19  C   UNL     1      50.969   4.989  17.654  0.00  0.00    +0.000 A 
ATOM     20  O   UNL     1      51.349   6.125  17.908  0.00  0.00    +0.000 OA
ATOM     21  C   UNL     1      49.580   4.575  17.531  0.00  0.00    +0.000 A 
ATOM     22  H   UNL     1      52.840   4.202  17.606  0.00  0.00    +0.000 HD
ENDBRANCH  10  12
ENDBRANCH   7   9
ENDBRANCH   1   7
BRANCH   4  23
ATOM     23  C   UNL     1      44.979   5.828  10.895  0.00  0.00    +0.000 C 
BRANCH  23  24
ATOM     24  N   UNL     1      45.535   5.033   9.823  0.00  0.00    +0.000 N 
ATOM     25  C   UNL     1      45.016   3.806   9.483  0.00  0.00    +0.000 C 
ATOM     26  O   UNL     1      44.075   3.291  10.089  0.00  0.00    +0.000 OA
ATOM     27  H   UNL     1      46.154   5.503   9.180  0.00  0.00    +0.000 HD
BRANCH  25  28
ATOM     28  C   UNL     1      45.675   3.158   8.348  0.00  0.00    +0.000 A 
ATOM     29  C   UNL     1      46.109   3.697   7.096  0.00  0.00    +0.000 A 
ATOM     30  C   UNL     1      46.705   2.686   6.374  0.00  0.00    +0.000 A 
ATOM     31  N   UNL     1      46.657   1.547   7.130  0.00  0.00    +0.000 N 
ATOM     32  C   UNL     1      46.035   1.820   8.319  0.00  0.00    +0.000 A 
ATOM     33  H   UNL     1      47.027   0.645   6.856  0.00  0.00    +0.000 HD
ENDBRANCH  25  28
ENDBRANCH  23  24
ENDBRANCH   4  23
TORSDOF 6
ENDMDL
MODEL 5
REMARK VINA RESULT:    -7.280      3.397      8.750
REMARK INTER + INTRA:         -10.580
REMARK INTER:                  -9.404
REMARK INTRA:                  -1.176
REMARK UNBOUND:                -0.747
REMARK  Name = 
REMARK  7 active torsions:
REMARK  status: ('A' for Active; 'I' for Inactive)
REMARK    1  A    between atoms: C_1  and  N_2
REMARK    2  A    between atoms: N_2  and  C_3
REMARK    3  A    between atoms: C_3  and  C_4
REMARK    4  A    between atoms: C_7  and  C_8
REMARK    5  A    between atoms: C_8  and  N_9
REMARK    6  A    between atoms: C_10  and  C_12
REMARK    7  A    between atoms: C_19  and  C_21
REMARK                            x       y       z     vdW  Elec       q    Type
REMARK                         _______ _______ _______ _____ _____    ______ ____
ROOT
ATOM      1  C   UNL     1      47.387   7.458  13.598  0.00  0.00    +0.000 A 
ATOM      2  C   UNL     1      47.377   6.079  13.390  0.00  0.00    +0.000 A 
ATOM      3  C   UNL     1      46.533   5.540  12.427  0.00  0.00    +0.000 A 
ATOM      4  C   UNL     1      45.718   6.392  11.687  0.00  0.00    +0.000 A 
ATOM      5  N   UNL     1      45.715   7.738  11.867  0.00  0.00    +0.000 NA
ATOM      6  C   UNL     1      46.548   8.237  12.806  0.00  0.00    +0.000 A 
ENDROOT
BRANCH   1   7
ATOM      7  C   UNL     1      48.233   8.076  14.672  0.00  0.00    +0.000 C 
BRANCH   7   9
ATOM      8  C   UNL     1      50.684   8.068  13.997  0.00  0.00    +0.000 C 
ATOM      9  N   UNL     1      49.598   7.557  14.829  0.00  0.00    +0.000 N 
ATOM     10  C   UNL     1      49.995   6.715  15.885  0.00  0.00    +0.000 C 
ATOM     11  O   UNL     1      51.179   6.430  16.055  0.00  0.00    +0.000 OA
BRANCH  10  12
ATOM     12  C   UNL     1      48.979   6.131  16.771  0.00  0.00    +0.000 A 
ATOM     13  C   UNL     1      48.410   4.880  16.599  0.00  0.00    +0.000 A 
ATOM     14  S   UNL     1      47.313   4.451  17.833  0.00  0.00    +0.000 S 
ATOM     15  C   UNL     1      47.676   5.859  18.716  0.00  0.00    +0.000 A 
ATOM     16  N   UNL     1      47.148   6.064  19.951  0.00  0.00    +0.000 NA
ATOM     17  C   UNL     1      47.570   7.137  20.533  0.00  0.00    +0.000 A 
ATOM     18  N   UNL     1      48.439   8.041  19.975  0.00  0.00    +0.000 N 
ATOM     19  C   UNL     1      48.887   7.946  18.674  0.00  0.00    +0.000 A 
ATOM     20  O   UNL     1      49.457   8.886  18.133  0.00  0.00    +0.000 OA
ATOM     21  C   UNL     1      48.541   6.689  18.030  0.00  0.00    +0.000 A 
ATOM     22  H   UNL     1      48.673   8.895  20.457  0.00  0.00    +0.000 HD
ENDBRANCH  10  12
ENDBRANCH   7   9
ENDBRANCH   1   7
BRANCH   4  23
ATOM     23  C   UNL     1      44.734   5.827  10.693  0.00  0.00    +0.000 C 
BRANCH  23  24
ATOM     24  N   UNL     1      45.387   4.983   9.719  0.00  0.00    +0.000 N 
ATOM     25  C   UNL     1      44.863   3.769   9.342  0.00  0.00    +0.000 C 
ATOM     26  O   UNL     1      43.833   3.307   9.834  0.00  0.00    +0.000 OA
ATOM     27  H   UNL     1      46.101   5.411   9.150  0.00  0.00    +0.000 HD
BRANCH  25  28
ATOM     28  C   UNL     1      45.633   3.065   8.315  0.00  0.00    +0.000 A 
ATOM     29  C   UNL     1      46.169   3.534   7.074  0.00  0.00    +0.000 A 
ATOM     30  C   UNL     1      46.843   2.492   6.475  0.00  0.00    +0.000 A 
ATOM     31  N   UNL     1      46.744   1.402   7.295  0.00  0.00    +0.000 N 
ATOM     32  C   UNL     1      46.014   1.735   8.403  0.00  0.00    +0.000 A 
ATOM     33  H   UNL     1      47.152   0.492   7.114  0.00  0.00    +0.000 HD
ENDBRANCH  25  28
ENDBRANCH  23  24
ENDBRANCH   4  23
TORSDOF 6
ENDMDL
MODEL 6
REMARK VINA RESULT:    -7.118      3.142      8.423
REMARK INTER + INTRA:         -10.361
REMARK INTER:                  -9.206
REMARK INTRA:                  -1.155
REMARK UNBOUND:                -0.747
REMARK  Name = 
REMARK  7 active torsions:
REMARK  status: ('A' for Active; 'I' for Inactive)
REMARK    1  A    between atoms: C_1  and  N_2
REMARK    2  A    between atoms: N_2  and  C_3
REMARK    3  A    between atoms: C_3  and  C_4
REMARK    4  A    between atoms: C_7  and  C_8
REMARK    5  A    between atoms: C_8  and  N_9
REMARK    6  A    between atoms: C_10  and  C_12
REMARK    7  A    between atoms: C_19  and  C_21
REMARK                            x       y       z     vdW  Elec       q    Type
REMARK                         _______ _______ _______ _____ _____    ______ ____
ROOT
ATOM      1  C   UNL     1      48.263   7.761  14.413  0.00  0.00    +0.000 A 
ATOM      2  C   UNL     1      47.990   6.418  14.157  0.00  0.00    +0.000 A 
ATOM      3  C   UNL     1      47.004   6.085  13.237  0.00  0.00    +0.000 A 
ATOM      4  C   UNL     1      46.313   7.104  12.586  0.00  0.00    +0.000 A 
ATOM      5  N   UNL     1      46.565   8.418  12.814  0.00  0.00    +0.000 NA
ATOM      6  C   UNL     1      47.532   8.714  13.710  0.00  0.00    +0.000 A 
ENDROOT
BRANCH   1   7
ATOM      7  C   UNL     1      49.272   8.166  15.446  0.00  0.00    +0.000 C 
BRANCH   7   9
ATOM      8  C   UNL     1      47.814   9.330  17.173  0.00  0.00    +0.000 C 
ATOM      9  N   UNL     1      48.795   8.305  16.829  0.00  0.00    +0.000 N 
ATOM     10  C   UNL     1      49.072   7.373  17.846  0.00  0.00    +0.000 C 
ATOM     11  O   UNL     1      48.528   7.457  18.945  0.00  0.00    +0.000 OA
BRANCH  10  12
ATOM     12  C   UNL     1      50.058   6.309  17.610  0.00  0.00    +0.000 A 
ATOM     13  C   UNL     1      51.429   6.465  17.739  0.00  0.00    +0.000 A 
ATOM     14  S   UNL     1      52.309   5.029  17.469  0.00  0.00    +0.000 S 
ATOM     15  C   UNL     1      50.879   4.120  17.318  0.00  0.00    +0.000 A 
ATOM     16  N   UNL     1      50.922   2.769  17.180  0.00  0.00    +0.000 NA
ATOM     17  C   UNL     1      49.761   2.205  17.154  0.00  0.00    +0.000 A 
ATOM     18  N   UNL     1      48.564   2.872  17.213  0.00  0.00    +0.000 N 
ATOM     19  C   UNL     1      48.472   4.248  17.210  0.00  0.00    +0.000 A 
ATOM     20  O   UNL     1      47.400   4.809  17.017  0.00  0.00    +0.000 OA
ATOM     21  C   UNL     1      49.753   4.918  17.371  0.00  0.00    +0.000 A 
ATOM     22  H   UNL     1      47.692   2.376  17.116  0.00  0.00    +0.000 HD
ENDBRANCH  10  12
ENDBRANCH   7   9
ENDBRANCH   1   7
BRANCH   4  23
ATOM     23  C   UNL     1      45.183   6.772  11.644  0.00  0.00    +0.000 C 
BRANCH  23  24
ATOM     24  N   UNL     1      45.545   5.709  10.733  0.00  0.00    +0.000 N 
ATOM     25  C   UNL     1      44.611   4.832  10.233  0.00  0.00    +0.000 C 
ATOM     26  O   UNL     1      43.423   4.870  10.556  0.00  0.00    +0.000 OA
ATOM     27  H   UNL     1      46.447   5.776  10.288  0.00  0.00    +0.000 HD
BRANCH  25  28
ATOM     28  C   UNL     1      45.144   3.845   9.292  0.00  0.00    +0.000 A 
ATOM     29  C   UNL     1      45.845   4.025   8.058  0.00  0.00    +0.000 A 
ATOM     30  C   UNL     1      46.164   2.781   7.558  0.00  0.00    +0.000 A 
ATOM     31  N   UNL     1      45.688   1.843   8.433  0.00  0.00    +0.000 N 
ATOM     32  C   UNL     1      45.069   2.474   9.479  0.00  0.00    +0.000 A 
ATOM     33  H   UNL     1      45.783   0.840   8.328  0.00  0.00    +0.000 HD
ENDBRANCH  25  28
ENDBRANCH  23  24
ENDBRANCH   4  23
TORSDOF 6
ENDMDL
MODEL 7
REMARK VINA RESULT:    -7.024      3.375      8.151
REMARK INTER + INTRA:         -10.234
REMARK INTER:                  -8.813
REMARK INTRA:                  -1.421
REMARK UNBOUND:                -0.747
REMARK  Name = 
REMARK  7 active torsions:
REMARK  status: ('A' for Active; 'I' for Inactive)
REMARK    1  A    between atoms: C_1  and  N_2
REMARK    2  A    between atoms: N_2  and  C_3
REMARK    3  A    between atoms: C_3  and  C_4
REMARK    4  A    between atoms: C_7  and  C_8
REMARK    5  A    between atoms: C_8  and  N_9
REMARK    6  A    between atoms: C_10  and  C_12
REMARK    7  A    between atoms: C_19  and  C_21
REMARK                            x       y       z     vdW  Elec       q    Type
REMARK                         _______ _______ _______ _____ _____    ______ ____
ROOT
ATOM      1  C   UNL     1      49.174   8.005  16.045  0.00  0.00    +0.000 A 
ATOM      2  C   UNL     1      48.224   8.887  15.531  0.00  0.00    +0.000 A 
ATOM      3  C   UNL     1      47.681   8.648  14.274  0.00  0.00    +0.000 A 
ATOM      4  C   UNL     1      48.094   7.528  13.559  0.00  0.00    +0.000 A 
ATOM      5  N   UNL     1      49.012   6.651  14.042  0.00  0.00    +0.000 NA
ATOM      6  C   UNL     1      49.522   6.904  15.267  0.00  0.00    +0.000 A 
ENDROOT
BRANCH   1   7
ATOM      7  C   UNL     1      49.835   8.259  17.367  0.00  0.00    +0.000 C 
BRANCH   7   9
ATOM      8  C   UNL     1      48.135   8.908  19.142  0.00  0.00    +0.000 C 
ATOM      9  N   UNL     1      49.064   7.935  18.574  0.00  0.00    +0.000 N 
ATOM     10  C   UNL     1      49.002   6.646  19.138  0.00  0.00    +0.000 C 
ATOM     11  O   UNL     1      48.226   6.395  20.058  0.00  0.00    +0.000 OA
BRANCH  10  12
ATOM     12  C   UNL     1      49.907   5.596  18.652  0.00  0.00    +0.000 A 
ATOM     13  C   UNL     1      51.233   5.464  19.029  0.00  0.00    +0.000 A 
ATOM     14  S   UNL     1      52.005   4.101  18.351  0.00  0.00    +0.000 S 
ATOM     15  C   UNL     1      50.552   3.562  17.651  0.00  0.00    +0.000 A 
ATOM     16  N   UNL     1      50.489   2.368  17.005  0.00  0.00    +0.000 NA
ATOM     17  C   UNL     1      49.306   2.054  16.592  0.00  0.00    +0.000 A 
ATOM     18  N   UNL     1      48.192   2.843  16.731  0.00  0.00    +0.000 N 
ATOM     19  C   UNL     1      48.238   4.118  17.253  0.00  0.00    +0.000 A 
ATOM     20  O   UNL     1      47.285   4.880  17.139  0.00  0.00    +0.000 OA
ATOM     21  C   UNL     1      49.520   4.460  17.847  0.00  0.00    +0.000 A 
ATOM     22  H   UNL     1      47.312   2.568  16.323  0.00  0.00    +0.000 HD
ENDBRANCH  10  12
ENDBRANCH   7   9
ENDBRANCH   1   7
BRANCH   4  23
ATOM     23  C   UNL     1      47.582   7.289  12.161  0.00  0.00    +0.000 C 
BRANCH  23  24
ATOM     24  N   UNL     1      46.796   6.078  12.082  0.00  0.00    +0.000 N 
ATOM     25  C   UNL     1      45.447   6.068  12.351  0.00  0.00    +0.000 C 
ATOM     26  O   UNL     1      44.834   7.073  12.711  0.00  0.00    +0.000 OA
ATOM     27  H   UNL     1      47.208   5.297  11.595  0.00  0.00    +0.000 HD
BRANCH  25  28
ATOM     28  C   UNL     1      44.802   4.765  12.182  0.00  0.00    +0.000 A 
ATOM     29  C   UNL     1      43.554   4.421  11.573  0.00  0.00    +0.000 A 
ATOM     30  C   UNL     1      43.405   3.053  11.637  0.00  0.00    +0.000 A 
ATOM     31  N   UNL     1      44.510   2.540  12.260  0.00  0.00    +0.000 N 
ATOM     32  C   UNL     1      45.355   3.564  12.595  0.00  0.00    +0.000 A 
ATOM     33  H   UNL     1      44.680   1.558  12.440  0.00  0.00    +0.000 HD
ENDBRANCH  25  28
ENDBRANCH  23  24
ENDBRANCH   4  23
TORSDOF 6
ENDMDL
MODEL 8
REMARK VINA RESULT:    -6.692      4.237      5.715
REMARK INTER + INTRA:          -9.785
REMARK INTER:                  -8.742
REMARK INTRA:                  -1.044
REMARK UNBOUND:                -0.747
REMARK  Name = 
REMARK  7 active torsions:
REMARK  status: ('A' for Active; 'I' for Inactive)
REMARK    1  A    between atoms: C_1  and  N_2
REMARK    2  A    between atoms: N_2  and  C_3
REMARK    3  A    between atoms: C_3  and  C_4
REMARK    4  A    between atoms: C_7  and  C_8
REMARK    5  A    between atoms: C_8  and  N_9
REMARK    6  A    between atoms: C_10  and  C_12
REMARK    7  A    between atoms: C_19  and  C_21
REMARK                            x       y       z     vdW  Elec       q    Type
REMARK                         _______ _______ _______ _____ _____    ______ ____
ROOT
ATOM      1  C   UNL     1      47.733   6.964  12.819  0.00  0.00    +0.000 A 
ATOM      2  C   UNL     1      48.505   7.225  13.951  0.00  0.00    +0.000 A 
ATOM      3  C   UNL     1      49.797   7.714  13.799  0.00  0.00    +0.000 A 
ATOM      4  C   UNL     1      50.289   7.938  12.516  0.00  0.00    +0.000 A 
ATOM      5  N   UNL     1      49.554   7.699  11.400  0.00  0.00    +0.000 NA
ATOM      6  C   UNL     1      48.301   7.228  11.576  0.00  0.00    +0.000 A 
ENDROOT
BRANCH   1   7
ATOM      7  C   UNL     1      46.359   6.374  12.935  0.00  0.00    +0.000 C 
BRANCH   7   9
ATOM      8  C   UNL     1      45.247   8.617  12.492  0.00  0.00    +0.000 C 
ATOM      9  N   UNL     1      45.246   7.160  12.388  0.00  0.00    +0.000 N 
ATOM     10  C   UNL     1      44.234   6.618  11.574  0.00  0.00    +0.000 C 
ATOM     11  O   UNL     1      43.410   7.344  11.021  0.00  0.00    +0.000 OA
BRANCH  10  12
ATOM     12  C   UNL     1      44.130   5.161  11.415  0.00  0.00    +0.000 A 
ATOM     13  C   UNL     1      43.353   4.336  12.212  0.00  0.00    +0.000 A 
ATOM     14  S   UNL     1      43.383   2.698  11.736  0.00  0.00    +0.000 S 
ATOM     15  C   UNL     1      44.316   3.061  10.361  0.00  0.00    +0.000 A 
ATOM     16  N   UNL     1      44.611   2.103   9.444  0.00  0.00    +0.000 NA
ATOM     17  C   UNL     1      45.260   2.539   8.416  0.00  0.00    +0.000 A 
ATOM     18  N   UNL     1      45.674   3.835   8.243  0.00  0.00    +0.000 N 
ATOM     19  C   UNL     1      45.521   4.807   9.209  0.00  0.00    +0.000 A 
ATOM     20  O   UNL     1      46.111   5.877   9.128  0.00  0.00    +0.000 OA
ATOM     21  C   UNL     1      44.683   4.393  10.323  0.00  0.00    +0.000 A 
ATOM     22  H   UNL     1      46.239   4.094   7.449  0.00  0.00    +0.000 HD
ENDBRANCH  10  12
ENDBRANCH   7   9
ENDBRANCH   1   7
BRANCH   4  23
ATOM     23  C   UNL     1      51.714   8.392  12.319  0.00  0.00    +0.000 C 
BRANCH  23  24
ATOM     24  N   UNL     1      52.423   7.534  11.396  0.00  0.00    +0.000 N 
ATOM     25  C   UNL     1      52.715   7.932  10.113  0.00  0.00    +0.000 C 
ATOM     26  O   UNL     1      52.361   9.020   9.657  0.00  0.00    +0.000 OA
ATOM     27  H   UNL     1      52.905   6.740  11.789  0.00  0.00    +0.000 HD
BRANCH  25  28
ATOM     28  C   UNL     1      53.473   6.955   9.329  0.00  0.00    +0.000 A 
ATOM     29  C   UNL     1      54.628   6.186   9.674  0.00  0.00    +0.000 A 
ATOM     30  C   UNL     1      54.949   5.383   8.601  0.00  0.00    +0.000 A 
ATOM     31  N   UNL     1      54.038   5.627   7.609  0.00  0.00    +0.000 N 
ATOM     32  C   UNL     1      53.148   6.575   8.037  0.00  0.00    +0.000 A 
ATOM     33  H   UNL     1      54.021   5.174   6.703  0.00  0.00    +0.000 HD
ENDBRANCH  25  28
ENDBRANCH  23  24
ENDBRANCH   4  23
TORSDOF 6
ENDMDL
MODEL 9
REMARK VINA RESULT:    -6.597      1.919      2.388
REMARK INTER + INTRA:          -9.657
REMARK INTER:                  -8.835
REMARK INTRA:                  -0.822
REMARK UNBOUND:                -0.747
REMARK  Name = 
REMARK  7 active torsions:
REMARK  status: ('A' for Active; 'I' for Inactive)
REMARK    1  A    between atoms: C_1  and  N_2
REMARK    2  A    between atoms: N_2  and  C_3
REMARK    3  A    between atoms: C_3  and  C_4
REMARK    4  A    between atoms: C_7  and  C_8
REMARK    5  A    between atoms: C_8  and  N_9
REMARK    6  A    between atoms: C_10  and  C_12
REMARK    7  A    between atoms: C_19  and  C_21
REMARK                            x       y       z     vdW  Elec       q    Type
REMARK                         _______ _______ _______ _____ _____    ______ ____
ROOT
ATOM      1  C   UNL     1      48.091   6.508  13.271  0.00  0.00    +0.000 A 
ATOM      2  C   UNL     1      49.179   7.373  13.160  0.00  0.00    +0.000 A 
ATOM      3  C   UNL     1      49.971   7.620  14.274  0.00  0.00    +0.000 A 
ATOM      4  C   UNL     1      49.662   6.992  15.478  0.00  0.00    +0.000 A 
ATOM      5  N   UNL     1      48.612   6.141  15.609  0.00  0.00    +0.000 NA
ATOM      6  C   UNL     1      47.860   5.915  14.509  0.00  0.00    +0.000 A 
ENDROOT
BRANCH   1   7
ATOM      7  C   UNL     1      47.170   6.265  12.112  0.00  0.00    +0.000 C 
BRANCH   7   9
ATOM      8  C   UNL     1      46.166   8.600  12.071  0.00  0.00    +0.000 C 
ATOM      9  N   UNL     1      46.006   7.151  11.985  0.00  0.00    +0.000 N 
ATOM     10  C   UNL     1      44.731   6.711  11.582  0.00  0.00    +0.000 C 
ATOM     11  O   UNL     1      43.830   7.514  11.348  0.00  0.00    +0.000 OA
BRANCH  10  12
ATOM     12  C   UNL     1      44.457   5.271  11.481  0.00  0.00    +0.000 A 
ATOM     13  C   UNL     1      43.726   4.542  12.405  0.00  0.00    +0.000 A 
ATOM     14  S   UNL     1      43.517   2.904  11.975  0.00  0.00    +0.000 S 
ATOM     15  C   UNL     1      44.268   3.151  10.469  0.00  0.00    +0.000 A 
ATOM     16  N   UNL     1      44.325   2.155   9.546  0.00  0.00    +0.000 NA
ATOM     17  C   UNL     1      44.855   2.508   8.422  0.00  0.00    +0.000 A 
ATOM     18  N   UNL     1      45.369   3.752   8.154  0.00  0.00    +0.000 N 
ATOM     19  C   UNL     1      45.460   4.746   9.106  0.00  0.00    +0.000 A 
ATOM     20  O   UNL     1      46.139   5.747   8.909  0.00  0.00    +0.000 OA
ATOM     21  C   UNL     1      44.760   4.436  10.341  0.00  0.00    +0.000 A 
ATOM     22  H   UNL     1      45.833   3.939   7.279  0.00  0.00    +0.000 HD
ENDBRANCH  10  12
ENDBRANCH   7   9
ENDBRANCH   1   7
BRANCH   4  23
ATOM     23  C   UNL     1      50.455   7.304  16.722  0.00  0.00    +0.000 C 
BRANCH  23  24
ATOM     24  N   UNL     1      51.098   6.124  17.253  0.00  0.00    +0.000 N 
ATOM     25  C   UNL     1      52.413   5.826  16.978  0.00  0.00    +0.000 C 
ATOM     26  O   UNL     1      53.110   6.519  16.235  0.00  0.00    +0.000 OA
ATOM     27  H   UNL     1      50.637   5.657  18.018  0.00  0.00    +0.000 HD
BRANCH  25  28
ATOM     28  C   UNL     1      52.914   4.616  17.631  0.00  0.00    +0.000 A 
ATOM     29  C   UNL     1      52.226   3.429  18.037  0.00  0.00    +0.000 A 
ATOM     30  C   UNL     1      53.147   2.561  18.581  0.00  0.00    +0.000 A 
ATOM     31  N   UNL     1      54.374   3.164  18.527  0.00  0.00    +0.000 N 
ATOM     32  C   UNL     1      54.243   4.404  17.960  0.00  0.00    +0.000 A 
ATOM     33  H   UNL     1      55.243   2.757  18.850  0.00  0.00    +0.000 HD
ENDBRANCH  25  28
ENDBRANCH  23  24
ENDBRANCH   4  23
TORSDOF 6
ENDMDL
