MODEL 1
REMARK VINA RESULT:    -7.648      0.000      0.000
REMARK INTER + INTRA:         -13.233
REMARK INTER:                 -11.673
REMARK INTRA:                  -1.560
REMARK UNBOUND:                -1.560
REMARK  Name = 
REMARK  10 active torsions:
REMARK  status: ('A' for Active; 'I' for Inactive)
REMARK    1  A    between atoms: C_2  and  C_22
REMARK    2  A    between atoms: N_3  and  CA_4
REMARK    3  A    between atoms: CA_4  and  C_5
REMARK    4  A    between atoms: CA_4  and  C_7
REMARK    5  A    between atoms: C_5  and  O_6
REMARK    6  A    between atoms: C_10  and  C_11
REMARK    7  A    between atoms: C_11  and  C_12
REMARK    8  A    between atoms: C_12  and  C_13
REMARK    9  A    between atoms: C_13  and  O_14
REMARK   10  A    between atoms: C_13  and  C_15
REMARK                            x       y       z     vdW  Elec       q    Type
REMARK                         _______ _______ _______ _____ _____    ______ ____
ROOT
ATOM      1  CA  UNL     1      48.249   6.982  14.073  0.00  0.00    +0.000 C 
ENDROOT
BRANCH   1   2
ATOM      2  C   UNL     1      47.243   6.232  13.225  0.00  0.00    +0.000 A 
ATOM      3  C   UNL     1      46.586   5.069  13.644  0.00  0.00    +0.000 A 
ATOM      4  C   UNL     1      45.635   4.471  12.825  0.00  0.00    +0.000 A 
ATOM      5  C   UNL     1      45.369   5.029  11.579  0.00  0.00    +0.000 A 
ATOM      6  N   UNL     1      46.034   6.117  11.121  0.00  0.00    +0.000 NA
ATOM      7  C   UNL     1      46.950   6.684  11.941  0.00  0.00    +0.000 A 
BRANCH   5   8
ATOM      8  C   UNL     1      44.289   4.462  10.702  0.00  0.00    +0.000 C 
BRANCH   8   9
ATOM      9  C   UNL     1      44.780   3.347   9.779  0.00  0.00    +0.000 C 
BRANCH   9  10
ATOM     10  C   UNL     1      45.103   3.835   8.365  0.00  0.00    +0.000 C 
BRANCH  10  11
ATOM     11  C   UNL     1      46.200   2.960   7.759  0.00  0.00    +0.000 C 
ATOM     12  N   UNL     1      46.265   1.678   8.029  0.00  0.00    +0.000 NA
ATOM     13  C   UNL     1      47.426   1.202   7.219  0.00  0.00    +0.000 C 
ATOM     14  C   UNL     1      47.766   2.333   6.240  0.00  0.00    +0.000 C 
ATOM     15  N   UNL     1      47.146   3.456   6.898  0.00  0.00    +0.000 N 
ATOM     16  H   UNL     1      46.913   4.275   6.348  0.00  0.00    +0.000 HD
ENDBRANCH  10  11
BRANCH  10  17
ATOM     17  O   UNL     1      45.565   5.182   8.411  0.00  0.00    +0.000 OA
ATOM     18  H   UNL     1      45.020   5.614   9.098  0.00  0.00    +0.000 HD
ENDBRANCH  10  17
ENDBRANCH   9  10
ENDBRANCH   8   9
ENDBRANCH   5   8
ENDBRANCH   1   2
BRANCH   1  21
ATOM     19  O   UNL     1      50.340   6.326  15.881  0.00  0.00    +0.000 OA
ATOM     20  C   UNL     1      49.174   6.267  16.272  0.00  0.00    +0.000 C 
ATOM     21  N   UNL     1      48.114   6.578  15.461  0.00  0.00    +0.000 N 
ATOM     22  H   UNL     1      47.176   6.357  15.765  0.00  0.00    +0.000 HD
BRANCH  20  23
ATOM     23  C   UNL     1      48.844   5.907  17.657  0.00  0.00    +0.000 A 
ATOM     24  C   UNL     1      49.064   4.614  18.110  0.00  0.00    +0.000 A 
ATOM     25  S   UNL     1      48.719   4.403  19.768  0.00  0.00    +0.000 S 
ATOM     26  C   UNL     1      48.231   6.025  19.929  0.00  0.00    +0.000 A 
ATOM     27  N   UNL     1      47.829   6.521  21.131  0.00  0.00    +0.000 NA
ATOM     28  C   UNL     1      47.466   7.760  21.104  0.00  0.00    +0.000 A 
ATOM     29  N   UNL     1      47.445   8.543  19.980  0.00  0.00    +0.000 N 
ATOM     30  C   UNL     1      47.845   8.088  18.747  0.00  0.00    +0.000 A 
ATOM     31  O   UNL     1      47.822   8.821  17.763  0.00  0.00    +0.000 OA
ATOM     32  C   UNL     1      48.300   6.709  18.729  0.00  0.00    +0.000 A 
ATOM     33  H   UNL     1      47.136   9.502  20.021  0.00  0.00    +0.000 HD
ENDBRANCH  20  23
ENDBRANCH   1  21
BRANCH   1  34
ATOM     34  C   UNL     1      48.120   8.523  13.948  0.00  0.00    +0.000 C 
BRANCH  34  35
ATOM     35  O   UNL     1      47.136   9.060  14.832  0.00  0.00    +0.000 OA
ATOM     36  H   UNL     1      46.277   9.020  14.379  0.00  0.00    +0.000 HD
ENDBRANCH  34  35
ENDBRANCH   1  34
TORSDOF 10
ENDMDL
MODEL 2
REMARK VINA RESULT:    -7.304      1.439      2.064
REMARK INTER + INTRA:         -12.707
REMARK INTER:                 -11.540
REMARK INTRA:                  -1.167
REMARK UNBOUND:                -1.560
REMARK  Name = 
REMARK  10 active torsions:
REMARK  status: ('A' for Active; 'I' for Inactive)
REMARK    1  A    between atoms: C_2  and  C_22
REMARK    2  A    between atoms: N_3  and  CA_4
REMARK    3  A    between atoms: CA_4  and  C_5
REMARK    4  A    between atoms: CA_4  and  C_7
REMARK    5  A    between atoms: C_5  and  O_6
REMARK    6  A    between atoms: C_10  and  C_11
REMARK    7  A    between atoms: C_11  and  C_12
REMARK    8  A    between atoms: C_12  and  C_13
REMARK    9  A    between atoms: C_13  and  O_14
REMARK   10  A    between atoms: C_13  and  C_15
REMARK                            x       y       z     vdW  Elec       q    Type
REMARK                         _______ _______ _______ _____ _____    ______ ____
ROOT
ATOM      1  CA  UNL     1      47.914   7.383  13.503  0.00  0.00    +0.000 C 
ENDROOT
BRANCH   1   2
ATOM      2  C   UNL     1      46.931   6.404  12.895  0.00  0.00    +0.000 A 
ATOM      3  C   UNL     1      46.351   5.345  13.601  0.00  0.00    +0.000 A 
ATOM      4  C   UNL     1      45.415   4.522  12.983  0.00  0.00    +0.000 A 
ATOM      5  C   UNL     1      45.089   4.753  11.651  0.00  0.00    +0.000 A 
ATOM      6  N   UNL     1      45.681   5.731  10.923  0.00  0.00    +0.000 NA
ATOM      7  C   UNL     1      46.584   6.521  11.552  0.00  0.00    +0.000 A 
BRANCH   5   8
ATOM      8  C   UNL     1      44.021   3.941  10.973  0.00  0.00    +0.000 C 
BRANCH   8   9
ATOM      9  C   UNL     1      44.575   2.783  10.143  0.00  0.00    +0.000 C 
BRANCH   9  10
ATOM     10  C   UNL     1      44.620   3.085   8.643  0.00  0.00    +0.000 C 
BRANCH  10  11
ATOM     11  C   UNL     1      45.867   2.449   8.030  0.00  0.00    +0.000 C 
ATOM     12  N   UNL     1      46.133   1.177   8.212  0.00  0.00    +0.000 NA
ATOM     13  C   UNL     1      47.385   0.960   7.426  0.00  0.00    +0.000 C 
ATOM     14  C   UNL     1      47.565   2.202   6.544  0.00  0.00    +0.000 C 
ATOM     15  N   UNL     1      46.746   3.156   7.249  0.00  0.00    +0.000 N 
ATOM     16  H   UNL     1      46.400   3.965   6.747  0.00  0.00    +0.000 HD
ENDBRANCH  10  11
BRANCH  10  17
ATOM     17  O   UNL     1      44.674   4.493   8.434  0.00  0.00    +0.000 OA
ATOM     18  H   UNL     1      45.619   4.690   8.278  0.00  0.00    +0.000 HD
ENDBRANCH  10  17
ENDBRANCH   9  10
ENDBRANCH   8   9
ENDBRANCH   5   8
ENDBRANCH   1   2
BRANCH   1  21
ATOM     19  O   UNL     1      50.128   6.803  15.186  0.00  0.00    +0.000 OA
ATOM     20  C   UNL     1      49.017   6.955  15.694  0.00  0.00    +0.000 C 
ATOM     21  N   UNL     1      47.905   7.247  14.949  0.00  0.00    +0.000 N 
ATOM     22  H   UNL     1      46.993   7.199  15.380  0.00  0.00    +0.000 HD
BRANCH  20  23
ATOM     23  C   UNL     1      48.820   6.886  17.148  0.00  0.00    +0.000 A 
ATOM     24  C   UNL     1      48.499   8.033  17.861  0.00  0.00    +0.000 A 
ATOM     25  S   UNL     1      48.208   7.747  19.518  0.00  0.00    +0.000 S 
ATOM     26  C   UNL     1      48.535   6.086  19.346  0.00  0.00    +0.000 A 
ATOM     27  N   UNL     1      48.439   5.239  20.407  0.00  0.00    +0.000 NA
ATOM     28  C   UNL     1      48.736   4.011  20.138  0.00  0.00    +0.000 A 
ATOM     29  N   UNL     1      49.145   3.556  18.912  0.00  0.00    +0.000 N 
ATOM     30  C   UNL     1      49.252   4.373  17.812  0.00  0.00    +0.000 A 
ATOM     31  O   UNL     1      49.612   3.929  16.727  0.00  0.00    +0.000 OA
ATOM     32  C   UNL     1      48.892   5.760  18.050  0.00  0.00    +0.000 A 
ATOM     33  H   UNL     1      49.377   2.586  18.769  0.00  0.00    +0.000 HD
ENDBRANCH  20  23
ENDBRANCH   1  21
BRANCH   1  34
ATOM     34  C   UNL     1      47.633   8.855  13.101  0.00  0.00    +0.000 C 
BRANCH  34  35
ATOM     35  O   UNL     1      46.328   9.285  13.490  0.00  0.00    +0.000 OA
ATOM     36  H   UNL     1      45.728   8.525  13.407  0.00  0.00    +0.000 HD
ENDBRANCH  34  35
ENDBRANCH   1  34
TORSDOF 10
ENDMDL
MODEL 3
REMARK VINA RESULT:    -6.995      3.468      4.947
REMARK INTER + INTRA:         -12.235
REMARK INTER:                 -10.982
REMARK INTRA:                  -1.253
REMARK UNBOUND:                -1.560
REMARK  Name = 
REMARK  10 active torsions:
REMARK  status: ('A' for Active; 'I' for Inactive)
REMARK    1  A    between atoms: C_2  and  C_22
REMARK    2  A    between atoms: N_3  and  CA_4
REMARK    3  A    between atoms: CA_4  and  C_5
REMARK    4  A    between atoms: CA_4  and  C_7
REMARK    5  A    between atoms: C_5  and  O_6
REMARK    6  A    between atoms: C_10  and  C_11
REMARK    7  A    between atoms: C_11  and  C_12
REMARK    8  A    between atoms: C_12  and  C_13
REMARK    9  A    between atoms: C_13  and  O_14
REMARK   10  A    between atoms: C_13  and  C_15
REMARK                            x       y       z     vdW  Elec       q    Type
REMARK                         _______ _______ _______ _____ _____    ______ ____
ROOT
ATOM      1  CA  UNL     1      48.700   5.976  17.491  0.00  0.00    +0.000 C 
ENDROOT
BRANCH   1   2
ATOM      2  C   UNL     1      48.021   5.449  16.244  0.00  0.00    +0.000 A 
ATOM      3  C   UNL     1      47.956   6.153  15.037  0.00  0.00    +0.000 A 
ATOM      4  C   UNL     1      47.360   5.574  13.921  0.00  0.00    +0.000 A 
ATOM      5  C   UNL     1      46.809   4.302  14.035  0.00  0.00    +0.000 A 
ATOM      6  N   UNL     1      46.801   3.621  15.206  0.00  0.00    +0.000 NA
ATOM      7  C   UNL     1      47.394   4.206  16.274  0.00  0.00    +0.000 A 
BRANCH   5   8
ATOM      8  C   UNL     1      46.234   3.609  12.831  0.00  0.00    +0.000 C 
BRANCH   8   9
ATOM      9  C   UNL     1      44.890   4.186  12.384  0.00  0.00    +0.000 C 
BRANCH   9  10
ATOM     10  C   UNL     1      44.055   3.201  11.563  0.00  0.00    +0.000 C 
BRANCH  10  11
ATOM     11  C   UNL     1      44.624   3.102  10.148  0.00  0.00    +0.000 C 
ATOM     12  N   UNL     1      44.951   4.180   9.477  0.00  0.00    +0.000 NA
ATOM     13  C   UNL     1      45.494   3.647   8.191  0.00  0.00    +0.000 C 
ATOM     14  C   UNL     1      45.708   2.142   8.401  0.00  0.00    +0.000 C 
ATOM     15  N   UNL     1      44.840   1.899   9.525  0.00  0.00    +0.000 N 
ATOM     16  H   UNL     1      45.007   1.082  10.101  0.00  0.00    +0.000 HD
ENDBRANCH  10  11
BRANCH  10  17
ATOM     17  O   UNL     1      42.708   3.658  11.484  0.00  0.00    +0.000 OA
ATOM     18  H   UNL     1      42.220   3.126  12.144  0.00  0.00    +0.000 HD
ENDBRANCH  10  17
ENDBRANCH   9  10
ENDBRANCH   8   9
ENDBRANCH   5   8
ENDBRANCH   1   2
BRANCH   1  21
ATOM     19  O   UNL     1      51.353   6.247  16.512  0.00  0.00    +0.000 OA
ATOM     20  C   UNL     1      51.096   5.329  17.291  0.00  0.00    +0.000 C 
ATOM     21  N   UNL     1      49.843   5.141  17.813  0.00  0.00    +0.000 N 
ATOM     22  H   UNL     1      49.637   4.286  18.310  0.00  0.00    +0.000 HD
BRANCH  20  23
ATOM     23  C   UNL     1      52.135   4.401  17.755  0.00  0.00    +0.000 A 
ATOM     24  C   UNL     1      53.312   4.893  18.303  0.00  0.00    +0.000 A 
ATOM     25  S   UNL     1      54.358   3.675  18.881  0.00  0.00    +0.000 S 
ATOM     26  C   UNL     1      53.290   2.446  18.386  0.00  0.00    +0.000 A 
ATOM     27  N   UNL     1      53.577   1.134  18.610  0.00  0.00    +0.000 NA
ATOM     28  C   UNL     1      52.690   0.310  18.164  0.00  0.00    +0.000 A 
ATOM     29  N   UNL     1      51.553   0.673  17.491  0.00  0.00    +0.000 N 
ATOM     30  C   UNL     1      51.220   1.984  17.246  0.00  0.00    +0.000 A 
ATOM     31  O   UNL     1      50.188   2.273  16.648  0.00  0.00    +0.000 OA
ATOM     32  C   UNL     1      52.166   2.956  17.762  0.00  0.00    +0.000 A 
ATOM     33  H   UNL     1      50.905  -0.021  17.154  0.00  0.00    +0.000 HD
ENDBRANCH  20  23
ENDBRANCH   1  21
BRANCH   1  34
ATOM     34  C   UNL     1      47.745   6.071  18.710  0.00  0.00    +0.000 C 
BRANCH  34  35
ATOM     35  O   UNL     1      47.885   4.961  19.598  0.00  0.00    +0.000 OA
ATOM     36  H   UNL     1      48.535   5.205  20.278  0.00  0.00    +0.000 HD
ENDBRANCH  34  35
ENDBRANCH   1  34
TORSDOF 10
ENDMDL
MODEL 4
REMARK VINA RESULT:    -6.697      2.971      4.622
REMARK INTER + INTRA:         -11.780
REMARK INTER:                 -10.500
REMARK INTRA:                  -1.280
REMARK UNBOUND:                -1.560
REMARK  Name = 
REMARK  10 active torsions:
REMARK  status: ('A' for Active; 'I' for Inactive)
REMARK    1  A    between atoms: C_2  and  C_22
REMARK    2  A    between atoms: N_3  and  CA_4
REMARK    3  A    between atoms: CA_4  and  C_5
REMARK    4  A    between atoms: CA_4  and  C_7
REMARK    5  A    between atoms: C_5  and  O_6
REMARK    6  A    between atoms: C_10  and  C_11
REMARK    7  A    between atoms: C_11  and  C_12
REMARK    8  A    between atoms: C_12  and  C_13
REMARK    9  A    between atoms: C_13  and  O_14
REMARK   10  A    between atoms: C_13  and  C_15
REMARK                            x       y       z     vdW  Elec       q    Type
REMARK                         _______ _______ _______ _____ _____    ______ ____
ROOT
ATOM      1  CA  UNL     1      47.110   5.104  15.134  0.00  0.00    +0.000 C 
ENDROOT
BRANCH   1   2
ATOM      2  C   UNL     1      46.197   4.842  13.955  0.00  0.00    +0.000 A 
ATOM      3  C   UNL     1      45.465   5.839  13.301  0.00  0.00    +0.000 A 
ATOM      4  C   UNL     1      44.690   5.523  12.190  0.00  0.00    +0.000 A 
ATOM      5  C   UNL     1      44.636   4.201  11.759  0.00  0.00    +0.000 A 
ATOM      6  N   UNL     1      45.283   3.204  12.409  0.00  0.00    +0.000 NA
ATOM      7  C   UNL     1      46.035   3.542  13.484  0.00  0.00    +0.000 A 
BRANCH   5   8
ATOM      8  C   UNL     1      43.879   3.834  10.513  0.00  0.00    +0.000 C 
BRANCH   8   9
ATOM      9  C   UNL     1      44.716   3.044   9.507  0.00  0.00    +0.000 C 
BRANCH   9  10
ATOM     10  C   UNL     1      45.013   3.826   8.225  0.00  0.00    +0.000 C 
BRANCH  10  11
ATOM     11  C   UNL     1      46.048   3.069   7.393  0.00  0.00    +0.000 C 
ATOM     12  N   UNL     1      46.549   3.596   6.301  0.00  0.00    +0.000 NA
ATOM     13  C   UNL     1      47.530   2.573   5.830  0.00  0.00    +0.000 C 
ATOM     14  C   UNL     1      47.715   1.583   6.987  0.00  0.00    +0.000 C 
ATOM     15  N   UNL     1      46.516   1.830   7.749  0.00  0.00    +0.000 N 
ATOM     16  H   UNL     1      46.501   1.574   8.729  0.00  0.00    +0.000 HD
ENDBRANCH  10  11
BRANCH  10  17
ATOM     17  O   UNL     1      45.538   5.109   8.552  0.00  0.00    +0.000 OA
ATOM     18  H   UNL     1      46.001   5.408   7.744  0.00  0.00    +0.000 HD
ENDBRANCH  10  17
ENDBRANCH   9  10
ENDBRANCH   8   9
ENDBRANCH   5   8
ENDBRANCH   1   2
BRANCH   1  21
ATOM     19  O   UNL     1      48.583   7.003  16.649  0.00  0.00    +0.000 OA
ATOM     20  C   UNL     1      48.918   6.781  15.485  0.00  0.00    +0.000 C 
ATOM     21  N   UNL     1      48.263   5.872  14.696  0.00  0.00    +0.000 N 
ATOM     22  H   UNL     1      48.460   5.842  13.706  0.00  0.00    +0.000 HD
BRANCH  20  23
ATOM     23  C   UNL     1      50.081   7.441  14.880  0.00  0.00    +0.000 A 
ATOM     24  C   UNL     1      51.292   7.474  15.557  0.00  0.00    +0.000 A 
ATOM     25  S   UNL     1      52.556   8.190  14.662  0.00  0.00    +0.000 S 
ATOM     26  C   UNL     1      51.520   8.512  13.351  0.00  0.00    +0.000 A 
ATOM     27  N   UNL     1      51.986   9.105  12.218  0.00  0.00    +0.000 NA
ATOM     28  C   UNL     1      51.087   9.308  11.314  0.00  0.00    +0.000 A 
ATOM     29  N   UNL     1      49.759   8.997  11.447  0.00  0.00    +0.000 N 
ATOM     30  C   UNL     1      49.245   8.395  12.570  0.00  0.00    +0.000 A 
ATOM     31  O   UNL     1      48.052   8.122  12.651  0.00  0.00    +0.000 OA
ATOM     32  C   UNL     1      50.222   8.108  13.605  0.00  0.00    +0.000 A 
ATOM     33  H   UNL     1      49.103   9.195  10.709  0.00  0.00    +0.000 HD
ENDBRANCH  20  23
ENDBRANCH   1  21
BRANCH   1  34
ATOM     34  C   UNL     1      47.570   3.806  15.847  0.00  0.00    +0.000 C 
BRANCH  34  35
ATOM     35  O   UNL     1      46.743   3.476  16.964  0.00  0.00    +0.000 OA
ATOM     36  H   UNL     1      47.006   4.045  17.706  0.00  0.00    +0.000 HD
ENDBRANCH  34  35
ENDBRANCH   1  34
TORSDOF 10
ENDMDL
MODEL 5
REMARK VINA RESULT:    -6.609      2.804      8.959
REMARK INTER + INTRA:         -11.647
REMARK INTER:                 -10.271
REMARK INTRA:                  -1.376
REMARK UNBOUND:                -1.560
REMARK  Name = 
REMARK  10 active torsions:
REMARK  status: ('A' for Active; 'I' for Inactive)
REMARK    1  A    between atoms: C_2  and  C_22
REMARK    2  A    between atoms: N_3  and  CA_4
REMARK    3  A    between atoms: CA_4  and  C_5
REMARK    4  A    between atoms: CA_4  and  C_7
REMARK    5  A    between atoms: C_5  and  O_6
REMARK    6  A    between atoms: C_10  and  C_11
REMARK    7  A    between atoms: C_11  and  C_12
REMARK    8  A    between atoms: C_12  and  C_13
REMARK    9  A    between atoms: C_13  and  O_14
REMARK   10  A    between atoms: C_13  and  C_15
REMARK                            x       y       z     vdW  Elec       q    Type
REMARK                         _______ _______ _______ _____ _____    ______ ____
ROOT
ATOM      1  CA  UNL     1      47.783   7.711  12.489  0.00  0.00    +0.000 C 
ENDROOT
BRANCH   1   2
ATOM      2  C   UNL     1      48.184   7.781  13.947  0.00  0.00    +0.000 A 
ATOM      3  C   UNL     1      48.453   8.975  14.624  0.00  0.00    +0.000 A 
ATOM      4  C   UNL     1      48.763   8.956  15.980  0.00  0.00    +0.000 A 
ATOM      5  C   UNL     1      48.827   7.733  16.640  0.00  0.00    +0.000 A 
ATOM      6  N   UNL     1      48.633   6.556  15.998  0.00  0.00    +0.000 NA
ATOM      7  C   UNL     1      48.327   6.605  14.679  0.00  0.00    +0.000 A 
BRANCH   5   8
ATOM      8  C   UNL     1      49.074   7.677  18.122  0.00  0.00    +0.000 C 
BRANCH   8   9
ATOM      9  C   UNL     1      47.852   7.228  18.924  0.00  0.00    +0.000 C 
BRANCH   9  10
ATOM     10  C   UNL     1      48.085   5.932  19.702  0.00  0.00    +0.000 C 
BRANCH  10  11
ATOM     11  C   UNL     1      48.166   4.756  18.728  0.00  0.00    +0.000 C 
ATOM     12  N   UNL     1      49.265   4.049  18.617  0.00  0.00    +0.000 NA
ATOM     13  C   UNL     1      48.912   2.998  17.616  0.00  0.00    +0.000 C 
ATOM     14  C   UNL     1      47.387   3.047  17.454  0.00  0.00    +0.000 C 
ATOM     15  N   UNL     1      47.105   4.372  17.949  0.00  0.00    +0.000 N 
ATOM     16  H   UNL     1      46.168   4.580  18.276  0.00  0.00    +0.000 HD
ENDBRANCH  10  11
BRANCH  10  17
ATOM     17  O   UNL     1      47.004   5.707  20.602  0.00  0.00    +0.000 OA
ATOM     18  H   UNL     1      46.248   5.461  20.034  0.00  0.00    +0.000 HD
ENDBRANCH  10  17
ENDBRANCH   9  10
ENDBRANCH   8   9
ENDBRANCH   5   8
ENDBRANCH   1   2
BRANCH   1  21
ATOM     19  O   UNL     1      45.082   7.520  11.629  0.00  0.00    +0.000 OA
ATOM     20  C   UNL     1      45.714   6.485  11.844  0.00  0.00    +0.000 C 
ATOM     21  N   UNL     1      47.023   6.497  12.250  0.00  0.00    +0.000 N 
ATOM     22  H   UNL     1      47.449   5.641  12.573  0.00  0.00    +0.000 HD
BRANCH  20  23
ATOM     23  C   UNL     1      45.118   5.160  11.625  0.00  0.00    +0.000 A 
ATOM     24  C   UNL     1      44.494   4.498  12.673  0.00  0.00    +0.000 A 
ATOM     25  S   UNL     1      43.772   3.022  12.214  0.00  0.00    +0.000 S 
ATOM     26  C   UNL     1      44.300   3.200  10.606  0.00  0.00    +0.000 A 
ATOM     27  N   UNL     1      43.991   2.272   9.660  0.00  0.00    +0.000 NA
ATOM     28  C   UNL     1      44.474   2.522   8.489  0.00  0.00    +0.000 A 
ATOM     29  N   UNL     1      45.259   3.603   8.182  0.00  0.00    +0.000 N 
ATOM     30  C   UNL     1      45.593   4.566   9.103  0.00  0.00    +0.000 A 
ATOM     31  O   UNL     1      46.290   5.526   8.789  0.00  0.00    +0.000 OA
ATOM     32  C   UNL     1      45.042   4.353  10.429  0.00  0.00    +0.000 A 
ATOM     33  H   UNL     1      45.619   3.735   7.250  0.00  0.00    +0.000 HD
ENDBRANCH  20  23
ENDBRANCH   1  21
BRANCH   1  34
ATOM     34  C   UNL     1      48.994   7.785  11.521  0.00  0.00    +0.000 C 
BRANCH  34  35
ATOM     35  O   UNL     1      50.184   7.248  12.098  0.00  0.00    +0.000 OA
ATOM     36  H   UNL     1      50.626   7.964  12.586  0.00  0.00    +0.000 HD
ENDBRANCH  34  35
ENDBRANCH   1  34
TORSDOF 10
ENDMDL
MODEL 6
REMARK VINA RESULT:    -6.482      4.149      8.783
REMARK INTER + INTRA:         -11.452
REMARK INTER:                 -10.297
REMARK INTRA:                  -1.155
REMARK UNBOUND:                -1.560
REMARK  Name = 
REMARK  10 active torsions:
REMARK  status: ('A' for Active; 'I' for Inactive)
REMARK    1  A    between atoms: C_2  and  C_22
REMARK    2  A    between atoms: N_3  and  CA_4
REMARK    3  A    between atoms: CA_4  and  C_5
REMARK    4  A    between atoms: CA_4  and  C_7
REMARK    5  A    between atoms: C_5  and  O_6
REMARK    6  A    between atoms: C_10  and  C_11
REMARK    7  A    between atoms: C_11  and  C_12
REMARK    8  A    between atoms: C_12  and  C_13
REMARK    9  A    between atoms: C_13  and  O_14
REMARK   10  A    between atoms: C_13  and  C_15
REMARK                            x       y       z     vdW  Elec       q    Type
REMARK                         _______ _______ _______ _____ _____    ______ ____
ROOT
ATOM      1  CA  UNL     1      47.844   7.051  13.838  0.00  0.00    +0.000 C 
ENDROOT
BRANCH   1   2
ATOM      2  C   UNL     1      48.291   6.261  15.051  0.00  0.00    +0.000 A 
ATOM      3  C   UNL     1      47.612   5.141  15.543  0.00  0.00    +0.000 A 
ATOM      4  C   UNL     1      48.120   4.438  16.631  0.00  0.00    +0.000 A 
ATOM      5  C   UNL     1      49.291   4.883  17.234  0.00  0.00    +0.000 A 
ATOM      6  N   UNL     1      49.936   6.000  16.820  0.00  0.00    +0.000 NA
ATOM      7  C   UNL     1      49.424   6.661  15.754  0.00  0.00    +0.000 A 
BRANCH   5   8
ATOM      8  C   UNL     1      49.916   4.103  18.356  0.00  0.00    +0.000 C 
BRANCH   8   9
ATOM      9  C   UNL     1      51.206   3.388  17.953  0.00  0.00    +0.000 C 
BRANCH   9  10
ATOM     10  C   UNL     1      51.006   1.898  17.671  0.00  0.00    +0.000 C 
BRANCH  10  11
ATOM     11  C   UNL     1      52.356   1.183  17.709  0.00  0.00    +0.000 C 
ATOM     12  N   UNL     1      53.459   1.808  17.369  0.00  0.00    +0.000 NA
ATOM     13  C   UNL     1      54.528   0.787  17.586  0.00  0.00    +0.000 C 
ATOM     14  C   UNL     1      53.885  -0.351  18.390  0.00  0.00    +0.000 C 
ATOM     15  N   UNL     1      52.488  -0.121  18.116  0.00  0.00    +0.000 N 
ATOM     16  H   UNL     1      51.799  -0.496  18.757  0.00  0.00    +0.000 HD
ENDBRANCH  10  11
BRANCH  10  17
ATOM     17  O   UNL     1      50.432   1.723  16.379  0.00  0.00    +0.000 OA
ATOM     18  H   UNL     1      49.668   2.333  16.356  0.00  0.00    +0.000 HD
ENDBRANCH  10  17
ENDBRANCH   9  10
ENDBRANCH   8   9
ENDBRANCH   5   8
ENDBRANCH   1   2
BRANCH   1  21
ATOM     19  O   UNL     1      46.124   7.850  11.722  0.00  0.00    +0.000 OA
ATOM     20  C   UNL     1      46.272   6.649  11.948  0.00  0.00    +0.000 C 
ATOM     21  N   UNL     1      47.093   6.187  12.944  0.00  0.00    +0.000 N 
ATOM     22  H   UNL     1      47.057   5.211  13.203  0.00  0.00    +0.000 HD
BRANCH  20  23
ATOM     23  C   UNL     1      45.616   5.624  11.126  0.00  0.00    +0.000 A 
ATOM     24  C   UNL     1      45.773   5.636   9.747  0.00  0.00    +0.000 A 
ATOM     25  S   UNL     1      45.026   4.316   8.964  0.00  0.00    +0.000 S 
ATOM     26  C   UNL     1      44.438   3.703  10.439  0.00  0.00    +0.000 A 
ATOM     27  N   UNL     1      43.720   2.547  10.481  0.00  0.00    +0.000 NA
ATOM     28  C   UNL     1      43.319   2.211  11.662  0.00  0.00    +0.000 A 
ATOM     29  N   UNL     1      43.549   2.937  12.802  0.00  0.00    +0.000 N 
ATOM     30  C   UNL     1      44.272   4.105  12.807  0.00  0.00    +0.000 A 
ATOM     31  O   UNL     1      44.466   4.723  13.849  0.00  0.00    +0.000 OA
ATOM     32  C   UNL     1      44.780   4.509  11.508  0.00  0.00    +0.000 A 
ATOM     33  H   UNL     1      43.196   2.628  13.693  0.00  0.00    +0.000 HD
ENDBRANCH  20  23
ENDBRANCH   1  21
BRANCH   1  34
ATOM     34  C   UNL     1      49.021   7.715  13.078  0.00  0.00    +0.000 C 
BRANCH  34  35
ATOM     35  O   UNL     1      49.828   6.763  12.384  0.00  0.00    +0.000 OA
ATOM     36  H   UNL     1      49.304   5.950  12.280  0.00  0.00    +0.000 HD
ENDBRANCH  34  35
ENDBRANCH   1  34
TORSDOF 10
ENDMDL
MODEL 7
REMARK VINA RESULT:    -6.343      3.639      8.360
REMARK INTER + INTRA:         -11.240
REMARK INTER:                  -9.932
REMARK INTRA:                  -1.308
REMARK UNBOUND:                -1.560
REMARK  Name = 
REMARK  10 active torsions:
REMARK  status: ('A' for Active; 'I' for Inactive)
REMARK    1  A    between atoms: C_2  and  C_22
REMARK    2  A    between atoms: N_3  and  CA_4
REMARK    3  A    between atoms: CA_4  and  C_5
REMARK    4  A    between atoms: CA_4  and  C_7
REMARK    5  A    between atoms: C_5  and  O_6
REMARK    6  A    between atoms: C_10  and  C_11
REMARK    7  A    between atoms: C_11  and  C_12
REMARK    8  A    between atoms: C_12  and  C_13
REMARK    9  A    between atoms: C_13  and  O_14
REMARK   10  A    between atoms: C_13  and  C_15
REMARK                            x       y       z     vdW  Elec       q    Type
REMARK                         _______ _______ _______ _____ _____    ______ ____
ROOT
ATOM      1  CA  UNL     1      48.119   8.026  12.445  0.00  0.00    +0.000 C 
ENDROOT
BRANCH   1   2
ATOM      2  C   UNL     1      48.347   7.758  13.918  0.00  0.00    +0.000 A 
ATOM      3  C   UNL     1      48.596   8.760  14.862  0.00  0.00    +0.000 A 
ATOM      4  C   UNL     1      48.740   8.434  16.206  0.00  0.00    +0.000 A 
ATOM      5  C   UNL     1      48.660   7.099  16.589  0.00  0.00    +0.000 A 
ATOM      6  N   UNL     1      48.482   6.101  15.690  0.00  0.00    +0.000 NA
ATOM      7  C   UNL     1      48.338   6.448  14.389  0.00  0.00    +0.000 A 
BRANCH   5   8
ATOM      8  C   UNL     1      48.725   6.715  18.041  0.00  0.00    +0.000 C 
BRANCH   8   9
ATOM      9  C   UNL     1      48.022   5.394  18.351  0.00  0.00    +0.000 C 
BRANCH   9  10
ATOM     10  C   UNL     1      48.929   4.378  19.049  0.00  0.00    +0.000 C 
BRANCH  10  11
ATOM     11  C   UNL     1      49.277   3.250  18.078  0.00  0.00    +0.000 C 
ATOM     12  N   UNL     1      48.465   2.930  17.099  0.00  0.00    +0.000 NA
ATOM     13  C   UNL     1      49.188   1.837  16.381  0.00  0.00    +0.000 C 
ATOM     14  C   UNL     1      50.626   1.844  16.914  0.00  0.00    +0.000 C 
ATOM     15  N   UNL     1      50.449   2.541  18.164  0.00  0.00    +0.000 N 
ATOM     16  H   UNL     1      51.252   2.988  18.589  0.00  0.00    +0.000 HD
ENDBRANCH  10  11
BRANCH  10  17
ATOM     17  O   UNL     1      48.256   3.822  20.175  0.00  0.00    +0.000 OA
ATOM     18  H   UNL     1      48.955   3.681  20.844  0.00  0.00    +0.000 HD
ENDBRANCH  10  17
ENDBRANCH   9  10
ENDBRANCH   8   9
ENDBRANCH   5   8
ENDBRANCH   1   2
BRANCH   1  21
ATOM     19  O   UNL     1      45.455   8.071  11.461  0.00  0.00    +0.000 OA
ATOM     20  C   UNL     1      46.090   7.018  11.412  0.00  0.00    +0.000 C 
ATOM     21  N   UNL     1      47.382   6.921  11.857  0.00  0.00    +0.000 N 
ATOM     22  H   UNL     1      47.806   6.010  11.953  0.00  0.00    +0.000 HD
BRANCH  20  23
ATOM     23  C   UNL     1      45.518   5.801  10.820  0.00  0.00    +0.000 A 
ATOM     24  C   UNL     1      45.732   5.515   9.479  0.00  0.00    +0.000 A 
ATOM     25  S   UNL     1      45.082   4.015   8.989  0.00  0.00    +0.000 S 
ATOM     26  C   UNL     1      44.463   3.713  10.545  0.00  0.00    +0.000 A 
ATOM     27  N   UNL     1      43.799   2.558  10.824  0.00  0.00    +0.000 NA
ATOM     28  C   UNL     1      43.365   2.470  12.036  0.00  0.00    +0.000 A 
ATOM     29  N   UNL     1      43.512   3.442  12.991  0.00  0.00    +0.000 N 
ATOM     30  C   UNL     1      44.178   4.621  12.757  0.00  0.00    +0.000 A 
ATOM     31  O   UNL     1      44.299   5.465  13.639  0.00  0.00    +0.000 OA
ATOM     32  C   UNL     1      44.721   4.755  11.417  0.00  0.00    +0.000 A 
ATOM     33  H   UNL     1      43.137   3.320  13.919  0.00  0.00    +0.000 HD
ENDBRANCH  20  23
ENDBRANCH   1  21
BRANCH   1  34
ATOM     34  C   UNL     1      49.436   8.270  11.661  0.00  0.00    +0.000 C 
BRANCH  34  35
ATOM     35  O   UNL     1      50.487   7.400  12.080  0.00  0.00    +0.000 OA
ATOM     36  H   UNL     1      50.189   6.939  12.882  0.00  0.00    +0.000 HD
ENDBRANCH  34  35
ENDBRANCH   1  34
TORSDOF 10
ENDMDL
MODEL 8
REMARK VINA RESULT:    -6.155      3.723      5.999
REMARK INTER + INTRA:         -10.953
REMARK INTER:                  -9.581
REMARK INTRA:                  -1.372
REMARK UNBOUND:                -1.560
REMARK  Name = 
REMARK  10 active torsions:
REMARK  status: ('A' for Active; 'I' for Inactive)
REMARK    1  A    between atoms: C_2  and  C_22
REMARK    2  A    between atoms: N_3  and  CA_4
REMARK    3  A    between atoms: CA_4  and  C_5
REMARK    4  A    between atoms: CA_4  and  C_7
REMARK    5  A    between atoms: C_5  and  O_6
REMARK    6  A    between atoms: C_10  and  C_11
REMARK    7  A    between atoms: C_11  and  C_12
REMARK    8  A    between atoms: C_12  and  C_13
REMARK    9  A    between atoms: C_13  and  O_14
REMARK   10  A    between atoms: C_13  and  C_15
REMARK                            x       y       z     vdW  Elec       q    Type
REMARK                         _______ _______ _______ _____ _____    ______ ____
ROOT
ATOM      1  CA  UNL     1      48.850   5.755  18.201  0.00  0.00    +0.000 C 
ENDROOT
BRANCH   1   2
ATOM      2  C   UNL     1      48.218   5.496  16.850  0.00  0.00    +0.000 A 
ATOM      3  C   UNL     1      48.409   6.314  15.731  0.00  0.00    +0.000 A 
ATOM      4  C   UNL     1      47.835   5.976  14.510  0.00  0.00    +0.000 A 
ATOM      5  C   UNL     1      47.049   4.831  14.429  0.00  0.00    +0.000 A 
ATOM      6  N   UNL     1      46.794   4.053  15.509  0.00  0.00    +0.000 NA
ATOM      7  C   UNL     1      47.371   4.403  16.683  0.00  0.00    +0.000 A 
BRANCH   5   8
ATOM      8  C   UNL     1      46.482   4.386  13.110  0.00  0.00    +0.000 C 
BRANCH   8   9
ATOM      9  C   UNL     1      45.206   5.130  12.716  0.00  0.00    +0.000 C 
BRANCH   9  10
ATOM     10  C   UNL     1      45.345   5.916  11.411  0.00  0.00    +0.000 C 
BRANCH  10  11
ATOM     11  C   UNL     1      45.012   7.387  11.660  0.00  0.00    +0.000 C 
ATOM     12  N   UNL     1      45.770   8.127  12.433  0.00  0.00    +0.000 NA
ATOM     13  C   UNL     1      45.130   9.476  12.372  0.00  0.00    +0.000 C 
ATOM     14  C   UNL     1      44.125   9.428  11.214  0.00  0.00    +0.000 C 
ATOM     15  N   UNL     1      43.933   8.005  11.081  0.00  0.00    +0.000 N 
ATOM     16  H   UNL     1      43.586   7.641  10.201  0.00  0.00    +0.000 HD
ENDBRANCH  10  11
BRANCH  10  17
ATOM     17  O   UNL     1      44.443   5.401  10.437  0.00  0.00    +0.000 OA
ATOM     18  H   UNL     1      43.577   5.796  10.659  0.00  0.00    +0.000 HD
ENDBRANCH  10  17
ENDBRANCH   9  10
ENDBRANCH   8   9
ENDBRANCH   5   8
ENDBRANCH   1   2
BRANCH   1  21
ATOM     19  O   UNL     1      51.559   6.417  17.658  0.00  0.00    +0.000 OA
ATOM     20  C   UNL     1      51.293   5.288  18.072  0.00  0.00    +0.000 C 
ATOM     21  N   UNL     1      50.013   4.900  18.366  0.00  0.00    +0.000 N 
ATOM     22  H   UNL     1      49.819   3.924  18.542  0.00  0.00    +0.000 HD
BRANCH  20  23
ATOM     23  C   UNL     1      52.345   4.296  18.331  0.00  0.00    +0.000 A 
ATOM     24  C   UNL     1      53.525   4.680  18.952  0.00  0.00    +0.000 A 
ATOM     25  S   UNL     1      54.586   3.381  19.264  0.00  0.00    +0.000 S 
ATOM     26  C   UNL     1      53.520   2.265  18.548  0.00  0.00    +0.000 A 
ATOM     27  N   UNL     1      53.818   0.938  18.505  0.00  0.00    +0.000 NA
ATOM     28  C   UNL     1      52.931   0.210  17.914  0.00  0.00    +0.000 A 
ATOM     29  N   UNL     1      51.782   0.690  17.340  0.00  0.00    +0.000 N 
ATOM     30  C   UNL     1      51.438   2.020  17.363  0.00  0.00    +0.000 A 
ATOM     31  O   UNL     1      50.396   2.412  16.847  0.00  0.00    +0.000 OA
ATOM     32  C   UNL     1      52.385   2.879  18.051  0.00  0.00    +0.000 A 
ATOM     33  H   UNL     1      51.135   0.071  16.879  0.00  0.00    +0.000 HD
ENDBRANCH  20  23
ENDBRANCH   1  21
BRANCH   1  34
ATOM     34  C   UNL     1      47.865   5.555  19.382  0.00  0.00    +0.000 C 
BRANCH  34  35
ATOM     35  O   UNL     1      48.148   4.374  20.133  0.00  0.00    +0.000 OA
ATOM     36  H   UNL     1      47.303   4.016  20.454  0.00  0.00    +0.000 HD
ENDBRANCH  34  35
ENDBRANCH   1  34
TORSDOF 10
ENDMDL
MODEL 9
REMARK VINA RESULT:    -6.106      3.001      9.312
REMARK INTER + INTRA:         -10.878
REMARK INTER:                  -9.288
REMARK INTRA:                  -1.591
REMARK UNBOUND:                -1.560
REMARK  Name = 
REMARK  10 active torsions:
REMARK  status: ('A' for Active; 'I' for Inactive)
REMARK    1  A    between atoms: C_2  and  C_22
REMARK    2  A    between atoms: N_3  and  CA_4
REMARK    3  A    between atoms: CA_4  and  C_5
REMARK    4  A    between atoms: CA_4  and  C_7
REMARK    5  A    between atoms: C_5  and  O_6
REMARK    6  A    between atoms: C_10  and  C_11
REMARK    7  A    between atoms: C_11  and  C_12
REMARK    8  A    between atoms: C_12  and  C_13
REMARK    9  A    between atoms: C_13  and  O_14
REMARK   10  A    between atoms: C_13  and  C_15
REMARK                            x       y       z     vdW  Elec       q    Type
REMARK                         _______ _______ _______ _____ _____    ______ ____
ROOT
ATOM      1  CA  UNL     1      45.182   6.821  12.249  0.00  0.00    +0.000 C 
ENDROOT
BRANCH   1   2
ATOM      2  C   UNL     1      46.411   6.960  13.123  0.00  0.00    +0.000 A 
ATOM      3  C   UNL     1      46.903   8.186  13.584  0.00  0.00    +0.000 A 
ATOM      4  C   UNL     1      48.008   8.223  14.428  0.00  0.00    +0.000 A 
ATOM      5  C   UNL     1      48.628   7.029  14.781  0.00  0.00    +0.000 A 
ATOM      6  N   UNL     1      48.213   5.832  14.301  0.00  0.00    +0.000 NA
ATOM      7  C   UNL     1      47.131   5.825  13.486  0.00  0.00    +0.000 A 
BRANCH   5   8
ATOM      8  C   UNL     1      49.770   7.021  15.758  0.00  0.00    +0.000 C 
BRANCH   8   9
ATOM      9  C   UNL     1      49.345   7.346  17.191  0.00  0.00    +0.000 C 
BRANCH   9  10
ATOM     10  C   UNL     1      49.627   6.210  18.175  0.00  0.00    +0.000 C 
BRANCH  10  11
ATOM     11  C   UNL     1      48.809   4.979  17.786  0.00  0.00    +0.000 C 
ATOM     12  N   UNL     1      47.498   5.006  17.812  0.00  0.00    +0.000 NA
ATOM     13  C   UNL     1      47.104   3.649  17.329  0.00  0.00    +0.000 C 
ATOM     14  C   UNL     1      48.370   3.014  16.739  0.00  0.00    +0.000 C 
ATOM     15  N   UNL     1      49.392   3.808  17.373  0.00  0.00    +0.000 N 
ATOM     16  H   UNL     1      50.310   3.852  16.945  0.00  0.00    +0.000 HD
ENDBRANCH  10  11
BRANCH  10  17
ATOM     17  O   UNL     1      49.258   6.608  19.492  0.00  0.00    +0.000 OA
ATOM     18  H   UNL     1      50.065   7.005  19.874  0.00  0.00    +0.000 HD
ENDBRANCH  10  17
ENDBRANCH   9  10
ENDBRANCH   8   9
ENDBRANCH   5   8
ENDBRANCH   1   2
BRANCH   1  21
ATOM     19  O   UNL     1      43.099   5.210  11.183  0.00  0.00    +0.000 OA
ATOM     20  C   UNL     1      44.267   4.922  10.922  0.00  0.00    +0.000 C 
ATOM     21  N   UNL     1      45.324   5.657  11.391  0.00  0.00    +0.000 N 
ATOM     22  H   UNL     1      46.262   5.294  11.295  0.00  0.00    +0.000 HD
BRANCH  20  23
ATOM     23  C   UNL     1      44.604   3.796  10.042  0.00  0.00    +0.000 A 
ATOM     24  C   UNL     1      44.033   2.550  10.260  0.00  0.00    +0.000 A 
ATOM     25  S   UNL     1      44.458   1.389   9.083  0.00  0.00    +0.000 S 
ATOM     26  C   UNL     1      45.449   2.503   8.263  0.00  0.00    +0.000 A 
ATOM     27  N   UNL     1      46.107   2.151   7.124  0.00  0.00    +0.000 NA
ATOM     28  C   UNL     1      46.839   3.088   6.620  0.00  0.00    +0.000 A 
ATOM     29  N   UNL     1      46.994   4.337   7.161  0.00  0.00    +0.000 N 
ATOM     30  C   UNL     1      46.347   4.737   8.306  0.00  0.00    +0.000 A 
ATOM     31  O   UNL     1      46.503   5.867   8.757  0.00  0.00    +0.000 OA
ATOM     32  C   UNL     1      45.480   3.733   8.894  0.00  0.00    +0.000 A 
ATOM     33  H   UNL     1      47.593   5.021   6.727  0.00  0.00    +0.000 HD
ENDBRANCH  20  23
ENDBRANCH   1  21
BRANCH   1  34
ATOM     34  C   UNL     1      44.896   8.084  11.396  0.00  0.00    +0.000 C 
BRANCH  34  35
ATOM     35  O   UNL     1      43.518   8.199  11.040  0.00  0.00    +0.000 OA
ATOM     36  H   UNL     1      43.317   9.144  10.931  0.00  0.00    +0.000 HD
ENDBRANCH  34  35
ENDBRANCH   1  34
TORSDOF 10
ENDMDL
