MODEL 1
REMARK VINA RESULT:    -7.365      0.000      0.000
REMARK INTER + INTRA:         -13.096
REMARK INTER:                 -11.455
REMARK INTRA:                  -1.641
REMARK UNBOUND:                -1.641
REMARK  Name = 
REMARK  11 active torsions:
REMARK  status: ('A' for Active; 'I' for Inactive)
REMARK    1  A    between atoms: C_1  and  C_2
REMARK    2  A    between atoms: C_2  and  N_3
REMARK    3  A    between atoms: C_2  and  C_15
REMARK    4  A    between atoms: N_3  and  C_4
REMARK    5  A    between atoms: C_4  and  C_5
REMARK    6  A    between atoms: N_8  and  C_9
REMARK    7  A    between atoms: C_9  and  C_10
REMARK    8  A    between atoms: C_10  and  O_12
REMARK    9  A    between atoms: C_18  and  C_19
REMARK   10  A    between atoms: C_19  and  N_20
REMARK   11  A    between atoms: C_21  and  C_23
REMARK                            x       y       z     vdW  Elec       q    Type
REMARK                         _______ _______ _______ _____ _____    ______ ____
ROOT
ATOM      1  C   UNL     1      48.844   8.410  15.856  0.00  0.00    +0.000 A 
ATOM      2  C   UNL     1      48.259   9.441  15.118  0.00  0.00    +0.000 A 
ATOM      3  C   UNL     1      47.920   9.221  13.788  0.00  0.00    +0.000 A 
ATOM      4  C   UNL     1      48.263   8.014  13.182  0.00  0.00    +0.000 A 
ATOM      5  C   UNL     1      48.950   7.087  13.956  0.00  0.00    +0.000 A 
ATOM      6  N   UNL     1      49.238   7.252  15.268  0.00  0.00    +0.000 NA
ENDROOT
BRANCH   1   8
ATOM      7  C   UNL     1      50.303   7.975  17.917  0.00  0.00    +0.000 C 
ATOM      8  C   UNL     1      48.976   8.541  17.380  0.00  0.00    +0.000 C 
BRANCH   8   9
ATOM      9  N   UNL     1      47.828   7.957  18.133  0.00  0.00    +0.000 NA
ATOM     10  H   UNL     1      47.181   8.709  18.370  0.00  0.00    +0.000 HD
BRANCH   9  11
ATOM     11  C   UNL     1      48.237   7.267  19.361  0.00  0.00    +0.000 C 
BRANCH  11  12
ATOM     12  C   UNL     1      47.621   5.858  19.477  0.00  0.00    +0.000 C 
ATOM     13  C   UNL     1      48.529   4.969  20.345  0.00  0.00    +0.000 C 
ATOM     14  C   UNL     1      49.791   4.508  19.605  0.00  0.00    +0.000 C 
ATOM     15  N   UNL     1      49.433   3.783  18.364  0.00  0.00    +0.000 NA
ATOM     16  C   UNL     1      48.687   4.697  17.471  0.00  0.00    +0.000 C 
ATOM     17  C   UNL     1      47.387   5.164  18.126  0.00  0.00    +0.000 C 
BRANCH  15  18
ATOM     18  C   UNL     1      50.665   3.326  17.649  0.00  0.00    +0.000 C 
BRANCH  18  19
ATOM     19  C   UNL     1      50.446   1.946  17.033  0.00  0.00    +0.000 C 
ATOM     20  O   UNL     1      49.720   1.717  16.078  0.00  0.00    +0.000 OA
BRANCH  19  21
ATOM     21  O   UNL     1      51.116   0.974  17.706  0.00  0.00    +0.000 OA
ATOM     22  H   UNL     1      50.988   0.138  17.197  0.00  0.00    +0.000 HD
ENDBRANCH  19  21
ENDBRANCH  18  19
ENDBRANCH  15  18
ENDBRANCH  11  12
ENDBRANCH   9  11
ENDBRANCH   8   9
ENDBRANCH   1   8
BRANCH   4  23
ATOM     23  C   UNL     1      47.868   7.714  11.768  0.00  0.00    +0.000 C 
BRANCH  23  24
ATOM     24  N   UNL     1      47.092   6.497  11.668  0.00  0.00    +0.000 N 
ATOM     25  C   UNL     1      45.731   6.479  11.836  0.00  0.00    +0.000 C 
ATOM     26  O   UNL     1      45.100   7.494  12.127  0.00  0.00    +0.000 OA
ATOM     27  H   UNL     1      47.599   5.620  11.600  0.00  0.00    +0.000 HD
BRANCH  25  28
ATOM     28  C   UNL     1      45.048   5.201  11.594  0.00  0.00    +0.000 A 
ATOM     29  C   UNL     1      44.318   4.616  12.624  0.00  0.00    +0.000 A 
ATOM     30  S   UNL     1      43.578   3.143  12.194  0.00  0.00    +0.000 S 
ATOM     31  C   UNL     1      44.243   3.204  10.631  0.00  0.00    +0.000 A 
ATOM     32  N   UNL     1      44.028   2.194   9.742  0.00  0.00    +0.000 NA
ATOM     33  C   UNL     1      44.622   2.354   8.605  0.00  0.00    +0.000 A 
ATOM     34  N   UNL     1      45.385   3.439   8.265  0.00  0.00    +0.000 N 
ATOM     35  C   UNL     1      45.563   4.514   9.108  0.00  0.00    +0.000 A 
ATOM     36  O   UNL     1      46.143   5.527   8.732  0.00  0.00    +0.000 OA
ATOM     37  C   UNL     1      44.979   4.357  10.423  0.00  0.00    +0.000 A 
ATOM     38  H   UNL     1      45.784   3.519   7.341  0.00  0.00    +0.000 HD
ENDBRANCH  25  28
ENDBRANCH  23  24
ENDBRANCH   4  23
TORSDOF 10
ENDMDL
MODEL 2
REMARK VINA RESULT:    -7.046      5.057      8.807
REMARK INTER + INTRA:         -12.600
REMARK INTER:                 -11.343
REMARK INTRA:                  -1.257
REMARK UNBOUND:                -1.641
REMARK  Name = 
REMARK  11 active torsions:
REMARK  status: ('A' for Active; 'I' for Inactive)
REMARK    1  A    between atoms: C_1  and  C_2
REMARK    2  A    between atoms: C_2  and  N_3
REMARK    3  A    between atoms: C_2  and  C_15
REMARK    4  A    between atoms: N_3  and  C_4
REMARK    5  A    between atoms: C_4  and  C_5
REMARK    6  A    between atoms: N_8  and  C_9
REMARK    7  A    between atoms: C_9  and  C_10
REMARK    8  A    between atoms: C_10  and  O_12
REMARK    9  A    between atoms: C_18  and  C_19
REMARK   10  A    between atoms: C_19  and  N_20
REMARK   11  A    between atoms: C_21  and  C_23
REMARK                            x       y       z     vdW  Elec       q    Type
REMARK                         _______ _______ _______ _____ _____    ______ ____
ROOT
ATOM      1  C   UNL     1      47.277   6.198  12.861  0.00  0.00    +0.000 A 
ATOM      2  C   UNL     1      47.368   7.010  11.729  0.00  0.00    +0.000 A 
ATOM      3  C   UNL     1      48.520   7.757  11.515  0.00  0.00    +0.000 A 
ATOM      4  C   UNL     1      49.523   7.766  12.483  0.00  0.00    +0.000 A 
ATOM      5  C   UNL     1      49.300   7.022  13.635  0.00  0.00    +0.000 A 
ATOM      6  N   UNL     1      48.215   6.239  13.841  0.00  0.00    +0.000 NA
ENDROOT
BRANCH   1   8
ATOM      7  C   UNL     1      46.647   3.754  13.304  0.00  0.00    +0.000 C 
ATOM      8  C   UNL     1      46.142   5.170  12.976  0.00  0.00    +0.000 C 
BRANCH   8   9
ATOM      9  N   UNL     1      45.246   5.132  11.784  0.00  0.00    +0.000 NA
ATOM     10  H   UNL     1      44.354   5.557  12.035  0.00  0.00    +0.000 HD
BRANCH   9  11
ATOM     11  C   UNL     1      45.008   3.772  11.287  0.00  0.00    +0.000 C 
BRANCH  11  12
ATOM     12  C   UNL     1      44.309   3.761   9.913  0.00  0.00    +0.000 C 
ATOM     13  C   UNL     1      44.178   2.311   9.413  0.00  0.00    +0.000 C 
ATOM     14  C   UNL     1      45.505   1.740   8.898  0.00  0.00    +0.000 C 
ATOM     15  N   UNL     1      46.053   2.586   7.813  0.00  0.00    +0.000 NA
ATOM     16  C   UNL     1      46.315   3.941   8.347  0.00  0.00    +0.000 C 
ATOM     17  C   UNL     1      45.024   4.596   8.840  0.00  0.00    +0.000 C 
BRANCH  15  18
ATOM     18  C   UNL     1      47.341   2.022   7.306  0.00  0.00    +0.000 C 
BRANCH  18  19
ATOM     19  C   UNL     1      47.519   2.342   5.824  0.00  0.00    +0.000 C 
ATOM     20  O   UNL     1      46.745   3.012   5.157  0.00  0.00    +0.000 OA
BRANCH  19  21
ATOM     21  O   UNL     1      48.625   1.749   5.303  0.00  0.00    +0.000 OA
ATOM     22  H   UNL     1      49.394   2.320   5.546  0.00  0.00    +0.000 HD
ENDBRANCH  19  21
ENDBRANCH  18  19
ENDBRANCH  15  18
ENDBRANCH  11  12
ENDBRANCH   9  11
ENDBRANCH   8   9
ENDBRANCH   1   8
BRANCH   4  23
ATOM     23  C   UNL     1      50.804   8.512  12.269  0.00  0.00    +0.000 C 
BRANCH  23  24
ATOM     24  N   UNL     1      51.259   8.427  10.899  0.00  0.00    +0.000 N 
ATOM     25  C   UNL     1      52.576   8.228  10.574  0.00  0.00    +0.000 C 
ATOM     26  O   UNL     1      53.452   8.156  11.434  0.00  0.00    +0.000 OA
ATOM     27  H   UNL     1      50.592   8.653  10.167  0.00  0.00    +0.000 HD
BRANCH  25  28
ATOM     28  C   UNL     1      52.890   8.043   9.150  0.00  0.00    +0.000 A 
ATOM     29  C   UNL     1      52.759   9.121   8.282  0.00  0.00    +0.000 A 
ATOM     30  S   UNL     1      53.164   8.758   6.666  0.00  0.00    +0.000 S 
ATOM     31  C   UNL     1      53.484   7.135   7.057  0.00  0.00    +0.000 A 
ATOM     32  N   UNL     1      53.844   6.244   6.091  0.00  0.00    +0.000 NA
ATOM     33  C   UNL     1      54.022   5.039   6.521  0.00  0.00    +0.000 A 
ATOM     34  N   UNL     1      53.900   4.647   7.827  0.00  0.00    +0.000 N 
ATOM     35  C   UNL     1      53.611   5.532   8.843  0.00  0.00    +0.000 A 
ATOM     36  O   UNL     1      53.634   5.180  10.018  0.00  0.00    +0.000 OA
ATOM     37  C   UNL     1      53.332   6.884   8.408  0.00  0.00    +0.000 A 
ATOM     38  H   UNL     1      54.096   3.695   8.101  0.00  0.00    +0.000 HD
ENDBRANCH  25  28
ENDBRANCH  23  24
ENDBRANCH   4  23
TORSDOF 10
ENDMDL
MODEL 3
REMARK VINA RESULT:    -6.937      2.178      2.600
REMARK INTER + INTRA:         -12.431
REMARK INTER:                 -10.724
REMARK INTRA:                  -1.707
REMARK UNBOUND:                -1.641
REMARK  Name = 
REMARK  11 active torsions:
REMARK  status: ('A' for Active; 'I' for Inactive)
REMARK    1  A    between atoms: C_1  and  C_2
REMARK    2  A    between atoms: C_2  and  N_3
REMARK    3  A    between atoms: C_2  and  C_15
REMARK    4  A    between atoms: N_3  and  C_4
REMARK    5  A    between atoms: C_4  and  C_5
REMARK    6  A    between atoms: N_8  and  C_9
REMARK    7  A    between atoms: C_9  and  C_10
REMARK    8  A    between atoms: C_10  and  O_12
REMARK    9  A    between atoms: C_18  and  C_19
REMARK   10  A    between atoms: C_19  and  N_20
REMARK   11  A    between atoms: C_21  and  C_23
REMARK                            x       y       z     vdW  Elec       q    Type
REMARK                         _______ _______ _______ _____ _____    ______ ____
ROOT
ATOM      1  C   UNL     1      49.020   9.063  17.639  0.00  0.00    +0.000 A 
ATOM      2  C   UNL     1      48.254   9.522  16.566  0.00  0.00    +0.000 A 
ATOM      3  C   UNL     1      48.440   8.963  15.306  0.00  0.00    +0.000 A 
ATOM      4  C   UNL     1      49.457   8.030  15.112  0.00  0.00    +0.000 A 
ATOM      5  C   UNL     1      50.250   7.717  16.209  0.00  0.00    +0.000 A 
ATOM      6  N   UNL     1      50.052   8.201  17.457  0.00  0.00    +0.000 NA
ENDROOT
BRANCH   1   8
ATOM      7  C   UNL     1      49.875   9.638  19.985  0.00  0.00    +0.000 C 
ATOM      8  C   UNL     1      48.647   9.468  19.072  0.00  0.00    +0.000 C 
BRANCH   8   9
ATOM      9  N   UNL     1      47.653   8.558  19.713  0.00  0.00    +0.000 NA
ATOM     10  H   UNL     1      47.079   9.106  20.353  0.00  0.00    +0.000 HD
BRANCH   9  11
ATOM     11  C   UNL     1      48.277   7.453  20.450  0.00  0.00    +0.000 C 
BRANCH  11  12
ATOM     12  C   UNL     1      47.426   6.169  20.417  0.00  0.00    +0.000 C 
ATOM     13  C   UNL     1      48.292   4.965  20.829  0.00  0.00    +0.000 C 
ATOM     14  C   UNL     1      49.256   4.522  19.721  0.00  0.00    +0.000 C 
ATOM     15  N   UNL     1      48.513   4.192  18.483  0.00  0.00    +0.000 NA
ATOM     16  C   UNL     1      47.802   5.401  18.012  0.00  0.00    +0.000 C 
ATOM     17  C   UNL     1      46.785   5.878  19.051  0.00  0.00    +0.000 C 
BRANCH  15  18
ATOM     18  C   UNL     1      49.454   3.750  17.407  0.00  0.00    +0.000 C 
BRANCH  18  19
ATOM     19  C   UNL     1      48.800   2.688  16.527  0.00  0.00    +0.000 C 
ATOM     20  O   UNL     1      49.379   1.724  16.050  0.00  0.00    +0.000 OA
BRANCH  19  21
ATOM     21  O   UNL     1      47.492   2.962  16.283  0.00  0.00    +0.000 OA
ATOM     22  H   UNL     1      47.215   3.636  16.950  0.00  0.00    +0.000 HD
ENDBRANCH  19  21
ENDBRANCH  18  19
ENDBRANCH  15  18
ENDBRANCH  11  12
ENDBRANCH   9  11
ENDBRANCH   8   9
ENDBRANCH   1   8
BRANCH   4  23
ATOM     23  C   UNL     1      49.656   7.363  13.785  0.00  0.00    +0.000 C 
BRANCH  23  24
ATOM     24  N   UNL     1      48.400   7.086  13.123  0.00  0.00    +0.000 N 
ATOM     25  C   UNL     1      47.580   6.056  13.507  0.00  0.00    +0.000 C 
ATOM     26  O   UNL     1      47.893   5.281  14.410  0.00  0.00    +0.000 OA
ATOM     27  H   UNL     1      48.196   7.596  12.269  0.00  0.00    +0.000 HD
BRANCH  25  28
ATOM     28  C   UNL     1      46.280   5.952  12.831  0.00  0.00    +0.000 A 
ATOM     29  C   UNL     1      45.679   7.105  12.338  0.00  0.00    +0.000 A 
ATOM     30  S   UNL     1      44.180   6.829  11.575  0.00  0.00    +0.000 S 
ATOM     31  C   UNL     1      44.254   5.165  11.916  0.00  0.00    +0.000 A 
ATOM     32  N   UNL     1      43.233   4.335  11.563  0.00  0.00    +0.000 NA
ATOM     33  C   UNL     1      43.405   3.104  11.915  0.00  0.00    +0.000 A 
ATOM     34  N   UNL     1      44.511   2.621  12.561  0.00  0.00    +0.000 N 
ATOM     35  C   UNL     1      45.596   3.412  12.868  0.00  0.00    +0.000 A 
ATOM     36  O   UNL     1      46.625   2.930  13.330  0.00  0.00    +0.000 OA
ATOM     37  C   UNL     1      45.428   4.817  12.560  0.00  0.00    +0.000 A 
ATOM     38  H   UNL     1      44.599   1.636  12.767  0.00  0.00    +0.000 HD
ENDBRANCH  25  28
ENDBRANCH  23  24
ENDBRANCH   4  23
TORSDOF 10
ENDMDL
MODEL 4
REMARK VINA RESULT:    -6.930      3.041      9.200
REMARK INTER + INTRA:         -12.419
REMARK INTER:                 -11.571
REMARK INTRA:                  -0.848
REMARK UNBOUND:                -1.641
REMARK  Name = 
REMARK  11 active torsions:
REMARK  status: ('A' for Active; 'I' for Inactive)
REMARK    1  A    between atoms: C_1  and  C_2
REMARK    2  A    between atoms: C_2  and  N_3
REMARK    3  A    between atoms: C_2  and  C_15
REMARK    4  A    between atoms: N_3  and  C_4
REMARK    5  A    between atoms: C_4  and  C_5
REMARK    6  A    between atoms: N_8  and  C_9
REMARK    7  A    between atoms: C_9  and  C_10
REMARK    8  A    between atoms: C_10  and  O_12
REMARK    9  A    between atoms: C_18  and  C_19
REMARK   10  A    between atoms: C_19  and  N_20
REMARK   11  A    between atoms: C_21  and  C_23
REMARK                            x       y       z     vdW  Elec       q    Type
REMARK                         _______ _______ _______ _____ _____    ______ ____
ROOT
ATOM      1  C   UNL     1      45.151   5.763  12.467  0.00  0.00    +0.000 A 
ATOM      2  C   UNL     1      46.339   5.130  12.837  0.00  0.00    +0.000 A 
ATOM      3  C   UNL     1      47.369   5.881  13.391  0.00  0.00    +0.000 A 
ATOM      4  C   UNL     1      47.243   7.266  13.472  0.00  0.00    +0.000 A 
ATOM      5  C   UNL     1      46.075   7.828  12.972  0.00  0.00    +0.000 A 
ATOM      6  N   UNL     1      45.033   7.115  12.483  0.00  0.00    +0.000 NA
ENDROOT
BRANCH   1   8
ATOM      7  C   UNL     1      42.656   5.355  12.881  0.00  0.00    +0.000 C 
ATOM      8  C   UNL     1      43.916   4.924  12.110  0.00  0.00    +0.000 C 
BRANCH   8   9
ATOM      9  N   UNL     1      44.128   3.454  12.255  0.00  0.00    +0.000 NA
ATOM     10  H   UNL     1      44.595   3.281  13.145  0.00  0.00    +0.000 HD
BRANCH   9  11
ATOM     11  C   UNL     1      44.931   2.879  11.169  0.00  0.00    +0.000 C 
BRANCH  11  12
ATOM     12  C   UNL     1      44.196   2.911   9.814  0.00  0.00    +0.000 C 
ATOM     13  C   UNL     1      44.634   1.706   8.962  0.00  0.00    +0.000 C 
ATOM     14  C   UNL     1      46.036   1.881   8.365  0.00  0.00    +0.000 C 
ATOM     15  N   UNL     1      46.105   3.113   7.546  0.00  0.00    +0.000 NA
ATOM     16  C   UNL     1      45.828   4.281   8.411  0.00  0.00    +0.000 C 
ATOM     17  C   UNL     1      44.423   4.200   9.009  0.00  0.00    +0.000 C 
BRANCH  15  18
ATOM     18  C   UNL     1      47.470   3.276   6.956  0.00  0.00    +0.000 C 
BRANCH  18  19
ATOM     19  C   UNL     1      47.577   2.514   5.638  0.00  0.00    +0.000 C 
ATOM     20  O   UNL     1      46.759   2.567   4.733  0.00  0.00    +0.000 OA
BRANCH  19  21
ATOM     21  O   UNL     1      48.676   1.715   5.599  0.00  0.00    +0.000 OA
ATOM     22  H   UNL     1      48.578   1.138   4.803  0.00  0.00    +0.000 HD
ENDBRANCH  19  21
ENDBRANCH  18  19
ENDBRANCH  15  18
ENDBRANCH  11  12
ENDBRANCH   9  11
ENDBRANCH   8   9
ENDBRANCH   1   8
BRANCH   4  23
ATOM     23  C   UNL     1      48.304   8.108  14.112  0.00  0.00    +0.000 C 
BRANCH  23  24
ATOM     24  N   UNL     1      48.520   7.749  15.497  0.00  0.00    +0.000 N 
ATOM     25  C   UNL     1      49.714   7.248  15.948  0.00  0.00    +0.000 C 
ATOM     26  O   UNL     1      50.655   7.033  15.186  0.00  0.00    +0.000 OA
ATOM     27  H   UNL     1      47.714   7.752  16.114  0.00  0.00    +0.000 HD
BRANCH  25  28
ATOM     28  C   UNL     1      49.842   7.033  17.396  0.00  0.00    +0.000 A 
ATOM     29  C   UNL     1      50.654   7.884  18.138  0.00  0.00    +0.000 A 
ATOM     30  S   UNL     1      50.698   7.517  19.802  0.00  0.00    +0.000 S 
ATOM     31  C   UNL     1      49.673   6.177  19.587  0.00  0.00    +0.000 A 
ATOM     32  N   UNL     1      49.340   5.379  20.639  0.00  0.00    +0.000 NA
ATOM     33  C   UNL     1      48.584   4.378  20.326  0.00  0.00    +0.000 A 
ATOM     34  N   UNL     1      48.110   4.118  19.069  0.00  0.00    +0.000 N 
ATOM     35  C   UNL     1      48.362   4.943  17.995  0.00  0.00    +0.000 A 
ATOM     36  O   UNL     1      47.820   4.758  16.910  0.00  0.00    +0.000 OA
ATOM     37  C   UNL     1      49.263   6.041  18.273  0.00  0.00    +0.000 A 
ATOM     38  H   UNL     1      47.487   3.341  18.904  0.00  0.00    +0.000 HD
ENDBRANCH  25  28
ENDBRANCH  23  24
ENDBRANCH   4  23
TORSDOF 10
ENDMDL
MODEL 5
REMARK VINA RESULT:    -6.815      3.436      8.764
REMARK INTER + INTRA:         -12.240
REMARK INTER:                 -11.114
REMARK INTRA:                  -1.126
REMARK UNBOUND:                -1.641
REMARK  Name = 
REMARK  11 active torsions:
REMARK  status: ('A' for Active; 'I' for Inactive)
REMARK    1  A    between atoms: C_1  and  C_2
REMARK    2  A    between atoms: C_2  and  N_3
REMARK    3  A    between atoms: C_2  and  C_15
REMARK    4  A    between atoms: N_3  and  C_4
REMARK    5  A    between atoms: C_4  and  C_5
REMARK    6  A    between atoms: N_8  and  C_9
REMARK    7  A    between atoms: C_9  and  C_10
REMARK    8  A    between atoms: C_10  and  O_12
REMARK    9  A    between atoms: C_18  and  C_19
REMARK   10  A    between atoms: C_19  and  N_20
REMARK   11  A    between atoms: C_21  and  C_23
REMARK                            x       y       z     vdW  Elec       q    Type
REMARK                         _______ _______ _______ _____ _____    ______ ____
ROOT
ATOM      1  C   UNL     1      48.333   6.541  13.878  0.00  0.00    +0.000 A 
ATOM      2  C   UNL     1      49.304   7.380  13.327  0.00  0.00    +0.000 A 
ATOM      3  C   UNL     1      50.415   7.728  14.086  0.00  0.00    +0.000 A 
ATOM      4  C   UNL     1      50.493   7.323  15.417  0.00  0.00    +0.000 A 
ATOM      5  C   UNL     1      49.426   6.589  15.921  0.00  0.00    +0.000 A 
ATOM      6  N   UNL     1      48.363   6.186  15.187  0.00  0.00    +0.000 NA
ENDROOT
BRANCH   1   8
ATOM      7  C   UNL     1      46.879   6.837  11.790  0.00  0.00    +0.000 C 
ATOM      8  C   UNL     1      47.250   5.931  12.977  0.00  0.00    +0.000 C 
BRANCH   8   9
ATOM      9  N   UNL     1      46.019   5.521  13.714  0.00  0.00    +0.000 NA
ATOM     10  H   UNL     1      45.981   4.503  13.741  0.00  0.00    +0.000 HD
BRANCH   9  11
ATOM     11  C   UNL     1      44.787   6.034  13.105  0.00  0.00    +0.000 C 
BRANCH  11  12
ATOM     12  C   UNL     1      43.735   4.929  12.883  0.00  0.00    +0.000 C 
ATOM     13  C   UNL     1      44.443   3.585  12.636  0.00  0.00    +0.000 C 
ATOM     14  C   UNL     1      45.049   3.484  11.231  0.00  0.00    +0.000 C 
ATOM     15  N   UNL     1      44.008   3.689  10.197  0.00  0.00    +0.000 NA
ATOM     16  C   UNL     1      43.437   5.045  10.352  0.00  0.00    +0.000 C 
ATOM     17  C   UNL     1      42.771   5.206  11.719  0.00  0.00    +0.000 C 
BRANCH  15  18
ATOM     18  C   UNL     1      44.600   3.580   8.827  0.00  0.00    +0.000 C 
BRANCH  18  19
ATOM     19  C   UNL     1      45.336   2.252   8.666  0.00  0.00    +0.000 C 
ATOM     20  O   UNL     1      46.454   2.128   8.190  0.00  0.00    +0.000 OA
BRANCH  19  21
ATOM     21  O   UNL     1      44.581   1.197   9.069  0.00  0.00    +0.000 OA
ATOM     22  H   UNL     1      43.644   1.508   9.082  0.00  0.00    +0.000 HD
ENDBRANCH  19  21
ENDBRANCH  18  19
ENDBRANCH  15  18
ENDBRANCH  11  12
ENDBRANCH   9  11
ENDBRANCH   8   9
ENDBRANCH   1   8
BRANCH   4  23
ATOM     23  C   UNL     1      51.697   7.630  16.254  0.00  0.00    +0.000 C 
BRANCH  23  24
ATOM     24  N   UNL     1      52.344   6.429  16.735  0.00  0.00    +0.000 N 
ATOM     25  C   UNL     1      52.151   5.951  18.006  0.00  0.00    +0.000 C 
ATOM     26  O   UNL     1      51.450   6.546  18.823  0.00  0.00    +0.000 OA
ATOM     27  H   UNL     1      53.058   6.012  16.147  0.00  0.00    +0.000 HD
BRANCH  25  28
ATOM     28  C   UNL     1      52.773   4.660  18.333  0.00  0.00    +0.000 A 
ATOM     29  C   UNL     1      53.996   4.646  18.995  0.00  0.00    +0.000 A 
ATOM     30  S   UNL     1      54.589   3.079  19.311  0.00  0.00    +0.000 S 
ATOM     31  C   UNL     1      53.258   2.361  18.533  0.00  0.00    +0.000 A 
ATOM     32  N   UNL     1      53.171   1.007  18.410  0.00  0.00    +0.000 NA
ATOM     33  C   UNL     1      52.126   0.601  17.766  0.00  0.00    +0.000 A 
ATOM     34  N   UNL     1      51.151   1.417  17.259  0.00  0.00    +0.000 N 
ATOM     35  C   UNL     1      51.166   2.784  17.429  0.00  0.00    +0.000 A 
ATOM     36  O   UNL     1      50.218   3.479  17.078  0.00  0.00    +0.000 OA
ATOM     37  C   UNL     1      52.350   3.301  18.081  0.00  0.00    +0.000 A 
ATOM     38  H   UNL     1      50.338   1.028  16.805  0.00  0.00    +0.000 HD
ENDBRANCH  25  28
ENDBRANCH  23  24
ENDBRANCH   4  23
TORSDOF 10
ENDMDL
MODEL 6
REMARK VINA RESULT:    -6.739      3.048      7.681
REMARK INTER + INTRA:         -12.123
REMARK INTER:                 -10.056
REMARK INTRA:                  -2.067
REMARK UNBOUND:                -1.641
REMARK  Name = 
REMARK  11 active torsions:
REMARK  status: ('A' for Active; 'I' for Inactive)
REMARK    1  A    between atoms: C_1  and  C_2
REMARK    2  A    between atoms: C_2  and  N_3
REMARK    3  A    between atoms: C_2  and  C_15
REMARK    4  A    between atoms: N_3  and  C_4
REMARK    5  A    between atoms: C_4  and  C_5
REMARK    6  A    between atoms: N_8  and  C_9
REMARK    7  A    between atoms: C_9  and  C_10
REMARK    8  A    between atoms: C_10  and  O_12
REMARK    9  A    between atoms: C_18  and  C_19
REMARK   10  A    between atoms: C_19  and  N_20
REMARK   11  A    between atoms: C_21  and  C_23
REMARK                            x       y       z     vdW  Elec       q    Type
REMARK                         _______ _______ _______ _____ _____    ______ ____
ROOT
ATOM      1  C   UNL     1      45.214   7.879  11.505  0.00  0.00    +0.000 A 
ATOM      2  C   UNL     1      46.135   6.963  10.992  0.00  0.00    +0.000 A 
ATOM      3  C   UNL     1      47.306   6.706  11.695  0.00  0.00    +0.000 A 
ATOM      4  C   UNL     1      47.594   7.441  12.843  0.00  0.00    +0.000 A 
ATOM      5  C   UNL     1      46.679   8.416  13.219  0.00  0.00    +0.000 A 
ATOM      6  N   UNL     1      45.504   8.645  12.587  0.00  0.00    +0.000 NA
ENDROOT
BRANCH   1   8
ATOM      7  C   UNL     1      43.189   9.377  11.034  0.00  0.00    +0.000 C 
ATOM      8  C   UNL     1      43.809   7.975  10.894  0.00  0.00    +0.000 C 
BRANCH   8   9
ATOM      9  N   UNL     1      42.862   6.942  11.404  0.00  0.00    +0.000 NA
ATOM     10  H   UNL     1      42.968   6.877  12.416  0.00  0.00    +0.000 HD
BRANCH   9  11
ATOM     11  C   UNL     1      43.081   5.618  10.811  0.00  0.00    +0.000 C 
BRANCH  11  12
ATOM     12  C   UNL     1      42.819   4.474  11.810  0.00  0.00    +0.000 C 
ATOM     13  C   UNL     1      43.201   4.931  13.229  0.00  0.00    +0.000 C 
ATOM     14  C   UNL     1      44.718   4.965  13.452  0.00  0.00    +0.000 C 
ATOM     15  N   UNL     1      45.316   3.636  13.186  0.00  0.00    +0.000 NA
ATOM     16  C   UNL     1      45.070   3.273  11.773  0.00  0.00    +0.000 C 
ATOM     17  C   UNL     1      43.571   3.174  11.485  0.00  0.00    +0.000 C 
BRANCH  15  18
ATOM     18  C   UNL     1      46.794   3.670  13.414  0.00  0.00    +0.000 C 
BRANCH  18  19
ATOM     19  C   UNL     1      47.106   3.642  14.908  0.00  0.00    +0.000 C 
ATOM     20  O   UNL     1      46.683   4.447  15.724  0.00  0.00    +0.000 OA
BRANCH  19  21
ATOM     21  O   UNL     1      47.962   2.638  15.232  0.00  0.00    +0.000 OA
ATOM     22  H   UNL     1      48.059   2.077  14.425  0.00  0.00    +0.000 HD
ENDBRANCH  19  21
ENDBRANCH  18  19
ENDBRANCH  15  18
ENDBRANCH  11  12
ENDBRANCH   9  11
ENDBRANCH   8   9
ENDBRANCH   1   8
BRANCH   4  23
ATOM     23  C   UNL     1      48.817   7.159  13.660  0.00  0.00    +0.000 C 
BRANCH  23  24
ATOM     24  N   UNL     1      48.499   6.929  15.052  0.00  0.00    +0.000 N 
ATOM     25  C   UNL     1      49.190   7.531  16.072  0.00  0.00    +0.000 C 
ATOM     26  O   UNL     1      50.152   8.267  15.857  0.00  0.00    +0.000 OA
ATOM     27  H   UNL     1      47.827   6.198  15.267  0.00  0.00    +0.000 HD
BRANCH  25  28
ATOM     28  C   UNL     1      48.694   7.306  17.437  0.00  0.00    +0.000 A 
ATOM     29  C   UNL     1      48.050   8.343  18.103  0.00  0.00    +0.000 A 
ATOM     30  S   UNL     1      47.525   7.933  19.672  0.00  0.00    +0.000 S 
ATOM     31  C   UNL     1      48.180   6.369  19.539  0.00  0.00    +0.000 A 
ATOM     32  N   UNL     1      48.112   5.495  20.582  0.00  0.00    +0.000 NA
ATOM     33  C   UNL     1      48.681   4.357  20.356  0.00  0.00    +0.000 A 
ATOM     34  N   UNL     1      49.286   4.003  19.179  0.00  0.00    +0.000 N 
ATOM     35  C   UNL     1      49.309   4.830  18.079  0.00  0.00    +0.000 A 
ATOM     36  O   UNL     1      49.743   4.441  16.999  0.00  0.00    +0.000 OA
ATOM     37  C   UNL     1      48.748   6.147  18.298  0.00  0.00    +0.000 A 
ATOM     38  H   UNL     1      49.673   3.078  19.057  0.00  0.00    +0.000 HD
ENDBRANCH  25  28
ENDBRANCH  23  24
ENDBRANCH   4  23
TORSDOF 10
ENDMDL
MODEL 7
REMARK VINA RESULT:    -6.642      2.857      7.767
REMARK INTER + INTRA:         -11.972
REMARK INTER:                 -10.475
REMARK INTRA:                  -1.497
REMARK UNBOUND:                -1.641
REMARK  Name = 
REMARK  11 active torsions:
REMARK  status: ('A' for Active; 'I' for Inactive)
REMARK    1  A    between atoms: C_1  and  C_2
REMARK    2  A    between atoms: C_2  and  N_3
REMARK    3  A    between atoms: C_2  and  C_15
REMARK    4  A    between atoms: N_3  and  C_4
REMARK    5  A    between atoms: C_4  and  C_5
REMARK    6  A    between atoms: N_8  and  C_9
REMARK    7  A    between atoms: C_9  and  C_10
REMARK    8  A    between atoms: C_10  and  O_12
REMARK    9  A    between atoms: C_18  and  C_19
REMARK   10  A    between atoms: C_19  and  N_20
REMARK   11  A    between atoms: C_21  and  C_23
REMARK                            x       y       z     vdW  Elec       q    Type
REMARK                         _______ _______ _______ _____ _____    ______ ____
ROOT
ATOM      1  C   UNL     1      46.410   8.007  12.103  0.00  0.00    +0.000 A 
ATOM      2  C   UNL     1      47.461   7.251  11.579  0.00  0.00    +0.000 A 
ATOM      3  C   UNL     1      48.671   7.200  12.261  0.00  0.00    +0.000 A 
ATOM      4  C   UNL     1      48.853   7.985  13.398  0.00  0.00    +0.000 A 
ATOM      5  C   UNL     1      47.795   8.799  13.783  0.00  0.00    +0.000 A 
ATOM      6  N   UNL     1      46.588   8.822  13.173  0.00  0.00    +0.000 NA
ENDROOT
BRANCH   1   8
ATOM      7  C   UNL     1      44.376   9.210  11.111  0.00  0.00    +0.000 C 
ATOM      8  C   UNL     1      44.998   7.862  11.518  0.00  0.00    +0.000 C 
BRANCH   8   9
ATOM      9  N   UNL     1      44.059   7.110  12.400  0.00  0.00    +0.000 NA
ATOM     10  H   UNL     1      43.817   7.701  13.194  0.00  0.00    +0.000 HD
BRANCH   9  11
ATOM     11  C   UNL     1      44.620   5.847  12.893  0.00  0.00    +0.000 C 
BRANCH  11  12
ATOM     12  C   UNL     1      43.730   4.635  12.552  0.00  0.00    +0.000 C 
ATOM     13  C   UNL     1      44.600   3.369  12.449  0.00  0.00    +0.000 C 
ATOM     14  C   UNL     1      45.415   3.313  11.151  0.00  0.00    +0.000 C 
ATOM     15  N   UNL     1      44.524   3.394   9.971  0.00  0.00    +0.000 NA
ATOM     16  C   UNL     1      43.801   4.685  10.001  0.00  0.00    +0.000 C 
ATOM     17  C   UNL     1      42.927   4.794  11.251  0.00  0.00    +0.000 C 
BRANCH  15  18
ATOM     18  C   UNL     1      45.319   3.329   8.706  0.00  0.00    +0.000 C 
BRANCH  18  19
ATOM     19  C   UNL     1      45.784   1.900   8.439  0.00  0.00    +0.000 C 
ATOM     20  O   UNL     1      46.773   1.598   7.787  0.00  0.00    +0.000 OA
BRANCH  19  21
ATOM     21  O   UNL     1      44.937   0.980   8.969  0.00  0.00    +0.000 OA
ATOM     22  H   UNL     1      44.090   1.451   9.159  0.00  0.00    +0.000 HD
ENDBRANCH  19  21
ENDBRANCH  18  19
ENDBRANCH  15  18
ENDBRANCH  11  12
ENDBRANCH   9  11
ENDBRANCH   8   9
ENDBRANCH   1   8
BRANCH   4  23
ATOM     23  C   UNL     1      50.121   7.918  14.193  0.00  0.00    +0.000 C 
BRANCH  23  24
ATOM     24  N   UNL     1      50.031   6.967  15.278  0.00  0.00    +0.000 N 
ATOM     25  C   UNL     1      49.659   7.332  16.547  0.00  0.00    +0.000 C 
ATOM     26  O   UNL     1      49.424   8.504  16.840  0.00  0.00    +0.000 OA
ATOM     27  H   UNL     1      50.382   6.028  15.111  0.00  0.00    +0.000 HD
BRANCH  25  28
ATOM     28  C   UNL     1      49.494   6.253  17.529  0.00  0.00    +0.000 A 
ATOM     29  C   UNL     1      50.128   6.356  18.763  0.00  0.00    +0.000 A 
ATOM     30  S   UNL     1      49.839   5.034  19.799  0.00  0.00    +0.000 S 
ATOM     31  C   UNL     1      48.896   4.250  18.622  0.00  0.00    +0.000 A 
ATOM     32  N   UNL     1      48.367   3.017  18.860  0.00  0.00    +0.000 NA
ATOM     33  C   UNL     1      47.702   2.525  17.867  0.00  0.00    +0.000 A 
ATOM     34  N   UNL     1      47.495   3.159  16.671  0.00  0.00    +0.000 N 
ATOM     35  C   UNL     1      47.949   4.435  16.420  0.00  0.00    +0.000 A 
ATOM     36  O   UNL     1      47.641   5.029  15.392  0.00  0.00    +0.000 OA
ATOM     37  C   UNL     1      48.761   5.008  17.472  0.00  0.00    +0.000 A 
ATOM     38  H   UNL     1      46.928   2.733  15.954  0.00  0.00    +0.000 HD
ENDBRANCH  25  28
ENDBRANCH  23  24
ENDBRANCH   4  23
TORSDOF 10
ENDMDL
MODEL 8
REMARK VINA RESULT:    -6.556      3.980      9.271
REMARK INTER + INTRA:         -11.838
REMARK INTER:                 -11.581
REMARK INTRA:                  -0.257
REMARK UNBOUND:                -1.641
REMARK  Name = 
REMARK  11 active torsions:
REMARK  status: ('A' for Active; 'I' for Inactive)
REMARK    1  A    between atoms: C_1  and  C_2
REMARK    2  A    between atoms: C_2  and  N_3
REMARK    3  A    between atoms: C_2  and  C_15
REMARK    4  A    between atoms: N_3  and  C_4
REMARK    5  A    between atoms: C_4  and  C_5
REMARK    6  A    between atoms: N_8  and  C_9
REMARK    7  A    between atoms: C_9  and  C_10
REMARK    8  A    between atoms: C_10  and  O_12
REMARK    9  A    between atoms: C_18  and  C_19
REMARK   10  A    between atoms: C_19  and  N_20
REMARK   11  A    between atoms: C_21  and  C_23
REMARK                            x       y       z     vdW  Elec       q    Type
REMARK                         _______ _______ _______ _____ _____    ______ ____
ROOT
ATOM      1  C   UNL     1      46.895   5.902  12.977  0.00  0.00    +0.000 A 
ATOM      2  C   UNL     1      47.066   6.693  11.839  0.00  0.00    +0.000 A 
ATOM      3  C   UNL     1      48.144   7.569  11.772  0.00  0.00    +0.000 A 
ATOM      4  C   UNL     1      48.975   7.722  12.880  0.00  0.00    +0.000 A 
ATOM      5  C   UNL     1      48.663   6.983  14.014  0.00  0.00    +0.000 A 
ATOM      6  N   UNL     1      47.657   6.080  14.085  0.00  0.00    +0.000 NA
ENDROOT
BRANCH   1   8
ATOM      7  C   UNL     1      46.512   3.394  13.334  0.00  0.00    +0.000 C 
ATOM      8  C   UNL     1      45.883   4.748  12.961  0.00  0.00    +0.000 C 
BRANCH   8   9
ATOM      9  N   UNL     1      45.132   4.628  11.677  0.00  0.00    +0.000 NA
ATOM     10  H   UNL     1      44.199   5.017  11.809  0.00  0.00    +0.000 HD
BRANCH   9  11
ATOM     11  C   UNL     1      45.015   3.243  11.207  0.00  0.00    +0.000 C 
BRANCH  11  12
ATOM     12  C   UNL     1      44.219   3.133   9.892  0.00  0.00    +0.000 C 
ATOM     13  C   UNL     1      44.634   1.854   9.143  0.00  0.00    +0.000 C 
ATOM     14  C   UNL     1      46.004   1.982   8.466  0.00  0.00    +0.000 C 
ATOM     15  N   UNL     1      46.018   3.127   7.527  0.00  0.00    +0.000 NA
ATOM     16  C   UNL     1      45.765   4.373   8.285  0.00  0.00    +0.000 C 
ATOM     17  C   UNL     1      44.390   4.337   8.953  0.00  0.00    +0.000 C 
BRANCH  15  18
ATOM     18  C   UNL     1      47.352   3.244   6.860  0.00  0.00    +0.000 C 
BRANCH  18  19
ATOM     19  C   UNL     1      47.864   1.868   6.444  0.00  0.00    +0.000 C 
ATOM     20  O   UNL     1      47.829   0.869   7.146  0.00  0.00    +0.000 OA
BRANCH  19  21
ATOM     21  O   UNL     1      48.422   1.885   5.204  0.00  0.00    +0.000 OA
ATOM     22  H   UNL     1      48.517   0.942   4.924  0.00  0.00    +0.000 HD
ENDBRANCH  19  21
ENDBRANCH  18  19
ENDBRANCH  15  18
ENDBRANCH  11  12
ENDBRANCH   9  11
ENDBRANCH   8   9
ENDBRANCH   1   8
BRANCH   4  23
ATOM     23  C   UNL     1      50.179   8.613  12.832  0.00  0.00    +0.000 C 
BRANCH  23  24
ATOM     24  N   UNL     1      51.334   7.997  13.446  0.00  0.00    +0.000 N 
ATOM     25  C   UNL     1      51.811   8.391  14.671  0.00  0.00    +0.000 C 
ATOM     26  O   UNL     1      51.306   9.325  15.293  0.00  0.00    +0.000 OA
ATOM     27  H   UNL     1      51.874   7.345  12.886  0.00  0.00    +0.000 HD
BRANCH  25  28
ATOM     28  C   UNL     1      52.918   7.609  15.237  0.00  0.00    +0.000 A 
ATOM     29  C   UNL     1      54.221   7.896  14.843  0.00  0.00    +0.000 A 
ATOM     30  S   UNL     1      55.398   6.912  15.587  0.00  0.00    +0.000 S 
ATOM     31  C   UNL     1      54.208   6.034  16.427  0.00  0.00    +0.000 A 
ATOM     32  N   UNL     1      54.552   4.989  17.231  0.00  0.00    +0.000 NA
ATOM     33  C   UNL     1      53.546   4.390  17.779  0.00  0.00    +0.000 A 
ATOM     34  N   UNL     1      52.236   4.754  17.620  0.00  0.00    +0.000 N 
ATOM     35  C   UNL     1      51.855   5.849  16.877  0.00  0.00    +0.000 A 
ATOM     36  O   UNL     1      50.688   6.229  16.856  0.00  0.00    +0.000 OA
ATOM     37  C   UNL     1      52.935   6.516  16.182  0.00  0.00    +0.000 A 
ATOM     38  H   UNL     1      51.503   4.267  18.115  0.00  0.00    +0.000 HD
ENDBRANCH  25  28
ENDBRANCH  23  24
ENDBRANCH   4  23
TORSDOF 10
ENDMDL
MODEL 9
REMARK VINA RESULT:    -6.411      2.329      2.827
REMARK INTER + INTRA:         -11.613
REMARK INTER:                  -9.404
REMARK INTRA:                  -2.208
REMARK UNBOUND:                -1.641
REMARK  Name = 
REMARK  11 active torsions:
REMARK  status: ('A' for Active; 'I' for Inactive)
REMARK    1  A    between atoms: C_1  and  C_2
REMARK    2  A    between atoms: C_2  and  N_3
REMARK    3  A    between atoms: C_2  and  C_15
REMARK    4  A    between atoms: N_3  and  C_4
REMARK    5  A    between atoms: C_4  and  C_5
REMARK    6  A    between atoms: N_8  and  C_9
REMARK    7  A    between atoms: C_9  and  C_10
REMARK    8  A    between atoms: C_10  and  O_12
REMARK    9  A    between atoms: C_18  and  C_19
REMARK   10  A    between atoms: C_19  and  N_20
REMARK   11  A    between atoms: C_21  and  C_23
REMARK                            x       y       z     vdW  Elec       q    Type
REMARK                         _______ _______ _______ _____ _____    ______ ____
ROOT
ATOM      1  C   UNL     1      50.565   9.083  17.033  0.00  0.00    +0.000 A 
ATOM      2  C   UNL     1      49.668  10.146  16.912  0.00  0.00    +0.000 A 
ATOM      3  C   UNL     1      48.962  10.312  15.726  0.00  0.00    +0.000 A 
ATOM      4  C   UNL     1      49.236   9.482  14.641  0.00  0.00    +0.000 A 
ATOM      5  C   UNL     1      50.229   8.524  14.810  0.00  0.00    +0.000 A 
ATOM      6  N   UNL     1      50.887   8.302  15.971  0.00  0.00    +0.000 NA
ENDROOT
BRANCH   1   8
ATOM      7  C   UNL     1      51.790   7.329  18.442  0.00  0.00    +0.000 C 
ATOM      8  C   UNL     1      51.144   8.725  18.409  0.00  0.00    +0.000 C 
BRANCH   8   9
ATOM      9  N   UNL     1      50.164   8.862  19.526  0.00  0.00    +0.000 NA
ATOM     10  H   UNL     1      50.486   9.600  20.151  0.00  0.00    +0.000 HD
BRANCH   9  11
ATOM     11  C   UNL     1      49.988   7.623  20.292  0.00  0.00    +0.000 C 
BRANCH  11  12
ATOM     12  C   UNL     1      48.524   7.141  20.304  0.00  0.00    +0.000 C 
ATOM     13  C   UNL     1      48.438   5.768  20.993  0.00  0.00    +0.000 C 
ATOM     14  C   UNL     1      48.953   4.627  20.107  0.00  0.00    +0.000 C 
ATOM     15  N   UNL     1      48.208   4.582  18.827  0.00  0.00    +0.000 NA
ATOM     16  C   UNL     1      48.420   5.855  18.103  0.00  0.00    +0.000 C 
ATOM     17  C   UNL     1      47.887   7.039  18.909  0.00  0.00    +0.000 C 
BRANCH  15  18
ATOM     18  C   UNL     1      48.705   3.462  17.969  0.00  0.00    +0.000 C 
BRANCH  18  19
ATOM     19  C   UNL     1      47.655   3.078  16.930  0.00  0.00    +0.000 C 
ATOM     20  O   UNL     1      47.874   2.937  15.736  0.00  0.00    +0.000 OA
BRANCH  19  21
ATOM     21  O   UNL     1      46.417   2.958  17.476  0.00  0.00    +0.000 OA
ATOM     22  H   UNL     1      45.777   3.292  16.802  0.00  0.00    +0.000 HD
ENDBRANCH  19  21
ENDBRANCH  18  19
ENDBRANCH  15  18
ENDBRANCH  11  12
ENDBRANCH   9  11
ENDBRANCH   8   9
ENDBRANCH   1   8
BRANCH   4  23
ATOM     23  C   UNL     1      48.462   9.590  13.363  0.00  0.00    +0.000 C 
BRANCH  23  24
ATOM     24  N   UNL     1      47.459   8.555  13.247  0.00  0.00    +0.000 N 
ATOM     25  C   UNL     1      47.669   7.408  12.523  0.00  0.00    +0.000 C 
ATOM     26  O   UNL     1      48.709   7.221  11.894  0.00  0.00    +0.000 OA
ATOM     27  H   UNL     1      46.532   8.755  13.609  0.00  0.00    +0.000 HD
BRANCH  25  28
ATOM     28  C   UNL     1      46.617   6.384  12.580  0.00  0.00    +0.000 A 
ATOM     29  C   UNL     1      46.919   5.131  13.102  0.00  0.00    +0.000 A 
ATOM     30  S   UNL     1      45.600   4.051  13.109  0.00  0.00    +0.000 S 
ATOM     31  C   UNL     1      44.588   5.200  12.370  0.00  0.00    +0.000 A 
ATOM     32  N   UNL     1      43.301   4.890  12.048  0.00  0.00    +0.000 NA
ATOM     33  C   UNL     1      42.658   5.844  11.459  0.00  0.00    +0.000 A 
ATOM     34  N   UNL     1      43.171   7.084  11.188  0.00  0.00    +0.000 N 
ATOM     35  C   UNL     1      44.442   7.460  11.566  0.00  0.00    +0.000 A 
ATOM     36  O   UNL     1      44.831   8.615  11.427  0.00  0.00    +0.000 OA
ATOM     37  C   UNL     1      45.233   6.407  12.165  0.00  0.00    +0.000 A 
ATOM     38  H   UNL     1      42.597   7.798  10.765  0.00  0.00    +0.000 HD
ENDBRANCH  25  28
ENDBRANCH  23  24
ENDBRANCH   4  23
TORSDOF 10
ENDMDL
