MODEL 1
REMARK VINA RESULT:    -6.925      0.000      0.000
REMARK INTER + INTRA:          -9.071
REMARK INTER:                  -8.747
REMARK INTRA:                  -0.324
REMARK UNBOUND:                -0.324
REMARK  Name = 
REMARK  5 active torsions:
REMARK  status: ('A' for Active; 'I' for Inactive)
REMARK    1  A    between atoms: N_1  and  C_2
REMARK    2  A    between atoms: C_2  and  C_3
REMARK    3  A    between atoms: N_8  and  C_9
REMARK    4  A    between atoms: C_9  and  C_10
REMARK    5  A    between atoms: C_10  and  N_11
REMARK                            x       y       z     vdW  Elec       q    Type
REMARK                         _______ _______ _______ _____ _____    ______ ____
ROOT
ATOM      1  C   UNL     1      46.502   2.690   6.910  0.00  0.00    +0.000 A 
ATOM      2  C   UNL     1      46.574   1.487   7.581  0.00  0.00    +0.000 A 
ATOM      3  C   UNL     1      45.758   1.365   8.676  0.00  0.00    +0.000 A 
ATOM      4  N   UNL     1      44.933   2.338   9.097  0.00  0.00    +0.000 NA
ATOM      5  C   UNL     1      44.924   3.475   8.388  0.00  0.00    +0.000 A 
ATOM      6  N   UNL     1      44.098   4.529   8.754  0.00  0.00    +0.000 N 
ATOM      7  N   UNL     1      45.683   3.691   7.308  0.00  0.00    +0.000 NA
ATOM      8  H   UNL     1      44.500   5.355   8.327  0.00  0.00    +0.000 HD
ENDROOT
BRANCH   1   9
ATOM      9  C   UNL     1      47.336   2.931   5.673  0.00  0.00    +0.000 C 
BRANCH   9  10
ATOM     10  N   UNL     1      48.437   1.973   5.539  0.00  0.00    +0.000 NA
ATOM     11  H   UNL     1      48.409   1.577   4.601  0.00  0.00    +0.000 HD
ATOM     12  H   UNL     1      48.252   1.193   6.173  0.00  0.00    +0.000 HD
ENDBRANCH   9  10
ENDBRANCH   1   9
BRANCH   6  13
ATOM     13  C   UNL     1      43.828   4.614  10.182  0.00  0.00    +0.000 C 
BRANCH  13  14
ATOM     14  C   UNL     1      44.870   5.532  10.857  0.00  0.00    +0.000 C 
BRANCH  14  15
ATOM     15  N   UNL     1      44.604   5.856  12.275  0.00  0.00    +0.000 NA
ATOM     16  C   UNL     1      45.495   6.908  12.817  0.00  0.00    +0.000 C 
ATOM     17  C   UNL     1      46.956   6.457  12.984  0.00  0.00    +0.000 C 
ATOM     18  O   UNL     1      47.045   5.304  13.830  0.00  0.00    +0.000 OA
ATOM     19  C   UNL     1      46.246   4.229  13.320  0.00  0.00    +0.000 C 
ATOM     20  C   UNL     1      44.777   4.653  13.128  0.00  0.00    +0.000 C 
ENDBRANCH  14  15
ENDBRANCH  13  14
ENDBRANCH   6  13
TORSDOF 5
ENDMDL
MODEL 2
REMARK VINA RESULT:    -6.192      1.559      2.048
REMARK INTER + INTRA:          -8.146
REMARK INTER:                  -7.752
REMARK INTRA:                  -0.394
REMARK UNBOUND:                -0.324
REMARK  Name = 
REMARK  5 active torsions:
REMARK  status: ('A' for Active; 'I' for Inactive)
REMARK    1  A    between atoms: N_1  and  C_2
REMARK    2  A    between atoms: C_2  and  C_3
REMARK    3  A    between atoms: N_8  and  C_9
REMARK    4  A    between atoms: C_9  and  C_10
REMARK    5  A    between atoms: C_10  and  N_11
REMARK                            x       y       z     vdW  Elec       q    Type
REMARK                         _______ _______ _______ _____ _____    ______ ____
ROOT
ATOM      1  C   UNL     1      45.791   3.340   7.873  0.00  0.00    +0.000 A 
ATOM      2  C   UNL     1      45.654   2.045   8.327  0.00  0.00    +0.000 A 
ATOM      3  C   UNL     1      44.775   1.866   9.363  0.00  0.00    +0.000 A 
ATOM      4  N   UNL     1      44.080   2.869   9.926  0.00  0.00    +0.000 NA
ATOM      5  C   UNL     1      44.271   4.097   9.425  0.00  0.00    +0.000 A 
ATOM      6  N   UNL     1      43.590   5.187   9.947  0.00  0.00    +0.000 N 
ATOM      7  N   UNL     1      45.108   4.373   8.418  0.00  0.00    +0.000 NA
ATOM      8  H   UNL     1      44.128   6.003   9.680  0.00  0.00    +0.000 HD
ENDROOT
BRANCH   1   9
ATOM      9  C   UNL     1      46.713   3.656   6.717  0.00  0.00    +0.000 C 
BRANCH   9  10
ATOM     10  N   UNL     1      47.968   2.900   6.773  0.00  0.00    +0.000 NA
ATOM     11  H   UNL     1      48.710   3.528   7.077  0.00  0.00    +0.000 HD
ATOM     12  H   UNL     1      48.211   2.627   5.818  0.00  0.00    +0.000 HD
ENDBRANCH   9  10
ENDBRANCH   1   9
BRANCH   6  13
ATOM     13  C   UNL     1      43.263   5.071  11.362  0.00  0.00    +0.000 C 
BRANCH  13  14
ATOM     14  C   UNL     1      44.182   5.999  12.187  0.00  0.00    +0.000 C 
BRANCH  14  15
ATOM     15  N   UNL     1      45.194   6.743  11.407  0.00  0.00    +0.000 NA
ATOM     16  C   UNL     1      46.588   6.385  11.758  0.00  0.00    +0.000 C 
ATOM     17  C   UNL     1      47.018   6.864  13.155  0.00  0.00    +0.000 C 
ATOM     18  O   UNL     1      46.866   8.283  13.281  0.00  0.00    +0.000 OA
ATOM     19  C   UNL     1      45.516   8.682  13.010  0.00  0.00    +0.000 C 
ATOM     20  C   UNL     1      45.050   8.205  11.621  0.00  0.00    +0.000 C 
ENDBRANCH  14  15
ENDBRANCH  13  14
ENDBRANCH   6  13
TORSDOF 5
ENDMDL
MODEL 3
REMARK VINA RESULT:    -5.664      4.545      8.227
REMARK INTER + INTRA:          -7.479
REMARK INTER:                  -7.233
REMARK INTRA:                  -0.246
REMARK UNBOUND:                -0.324
REMARK  Name = 
REMARK  5 active torsions:
REMARK  status: ('A' for Active; 'I' for Inactive)
REMARK    1  A    between atoms: N_1  and  C_2
REMARK    2  A    between atoms: C_2  and  C_3
REMARK    3  A    between atoms: N_8  and  C_9
REMARK    4  A    between atoms: C_9  and  C_10
REMARK    5  A    between atoms: C_10  and  N_11
REMARK                            x       y       z     vdW  Elec       q    Type
REMARK                         _______ _______ _______ _____ _____    ______ ____
ROOT
ATOM      1  C   UNL     1      48.245   4.341  18.274  0.00  0.00    +0.000 A 
ATOM      2  C   UNL     1      48.730   3.057  18.140  0.00  0.00    +0.000 A 
ATOM      3  C   UNL     1      48.683   2.530  16.876  0.00  0.00    +0.000 A 
ATOM      4  N   UNL     1      48.197   3.194  15.814  0.00  0.00    +0.000 NA
ATOM      5  C   UNL     1      47.746   4.437  16.030  0.00  0.00    +0.000 A 
ATOM      6  N   UNL     1      47.230   5.193  14.987  0.00  0.00    +0.000 N 
ATOM      7  N   UNL     1      47.747   5.038  17.226  0.00  0.00    +0.000 NA
ATOM      8  H   UNL     1      46.654   5.905  15.420  0.00  0.00    +0.000 HD
ENDROOT
BRANCH   1   9
ATOM      9  C   UNL     1      48.269   5.036  19.616  0.00  0.00    +0.000 C 
BRANCH   9  10
ATOM     10  N   UNL     1      49.158   4.377  20.577  0.00  0.00    +0.000 NA
ATOM     11  H   UNL     1      48.591   3.809  21.204  0.00  0.00    +0.000 HD
ATOM     12  H   UNL     1      49.577   5.102  21.164  0.00  0.00    +0.000 HD
ENDBRANCH   9  10
ENDBRANCH   1   9
BRANCH   6  13
ATOM     13  C   UNL     1      46.597   4.412  13.933  0.00  0.00    +0.000 C 
BRANCH  13  14
ATOM     14  C   UNL     1      45.311   5.122  13.457  0.00  0.00    +0.000 C 
BRANCH  14  15
ATOM     15  N   UNL     1      44.171   4.230  13.157  0.00  0.00    +0.000 NA
ATOM     16  C   UNL     1      44.415   3.329  12.007  0.00  0.00    +0.000 C 
ATOM     17  C   UNL     1      44.467   4.053  10.652  0.00  0.00    +0.000 C 
ATOM     18  O   UNL     1      43.256   4.782  10.411  0.00  0.00    +0.000 OA
ATOM     19  C   UNL     1      42.999   5.716  11.468  0.00  0.00    +0.000 C 
ATOM     20  C   UNL     1      42.955   5.022  12.842  0.00  0.00    +0.000 C 
ENDBRANCH  14  15
ENDBRANCH  13  14
ENDBRANCH   6  13
TORSDOF 5
ENDMDL
MODEL 4
REMARK VINA RESULT:    -5.612      4.026      6.162
REMARK INTER + INTRA:          -7.413
REMARK INTER:                  -7.189
REMARK INTRA:                  -0.223
REMARK UNBOUND:                -0.324
REMARK  Name = 
REMARK  5 active torsions:
REMARK  status: ('A' for Active; 'I' for Inactive)
REMARK    1  A    between atoms: N_1  and  C_2
REMARK    2  A    between atoms: C_2  and  C_3
REMARK    3  A    between atoms: N_8  and  C_9
REMARK    4  A    between atoms: C_9  and  C_10
REMARK    5  A    between atoms: C_10  and  N_11
REMARK                            x       y       z     vdW  Elec       q    Type
REMARK                         _______ _______ _______ _____ _____    ______ ____
ROOT
ATOM      1  C   UNL     1      44.803   3.868  11.474  0.00  0.00    +0.000 A 
ATOM      2  C   UNL     1      45.091   5.129  10.995  0.00  0.00    +0.000 A 
ATOM      3  C   UNL     1      45.998   5.852  11.724  0.00  0.00    +0.000 A 
ATOM      4  N   UNL     1      46.585   5.392  12.842  0.00  0.00    +0.000 NA
ATOM      5  C   UNL     1      46.250   4.157  13.239  0.00  0.00    +0.000 A 
ATOM      6  N   UNL     1      46.812   3.605  14.382  0.00  0.00    +0.000 N 
ATOM      7  N   UNL     1      45.374   3.375  12.598  0.00  0.00    +0.000 NA
ATOM      8  H   UNL     1      46.182   2.865  14.670  0.00  0.00    +0.000 HD
ENDROOT
BRANCH   1   9
ATOM      9  C   UNL     1      43.836   2.969  10.739  0.00  0.00    +0.000 C 
BRANCH   9  10
ATOM     10  N   UNL     1      43.047   2.128  11.644  0.00  0.00    +0.000 NA
ATOM     11  H   UNL     1      42.124   2.547  11.752  0.00  0.00    +0.000 HD
ATOM     12  H   UNL     1      43.480   2.171  12.569  0.00  0.00    +0.000 HD
ENDBRANCH   9  10
ENDBRANCH   1   9
BRANCH   6  13
ATOM     13  C   UNL     1      47.169   4.577  15.406  0.00  0.00    +0.000 C 
BRANCH  13  14
ATOM     14  C   UNL     1      47.846   3.858  16.594  0.00  0.00    +0.000 C 
BRANCH  14  15
ATOM     15  N   UNL     1      49.225   4.297  16.894  0.00  0.00    +0.000 NA
ATOM     16  C   UNL     1      49.724   3.818  18.205  0.00  0.00    +0.000 C 
ATOM     17  C   UNL     1      49.035   4.479  19.410  0.00  0.00    +0.000 C 
ATOM     18  O   UNL     1      49.174   5.905  19.363  0.00  0.00    +0.000 OA
ATOM     19  C   UNL     1      48.651   6.433  18.137  0.00  0.00    +0.000 C 
ATOM     20  C   UNL     1      49.313   5.779  16.909  0.00  0.00    +0.000 C 
ENDBRANCH  14  15
ENDBRANCH  13  14
ENDBRANCH   6  13
TORSDOF 5
ENDMDL
MODEL 5
REMARK VINA RESULT:    -5.523      2.566      6.562
REMARK INTER + INTRA:          -7.300
REMARK INTER:                  -6.968
REMARK INTRA:                  -0.332
REMARK UNBOUND:                -0.324
REMARK  Name = 
REMARK  5 active torsions:
REMARK  status: ('A' for Active; 'I' for Inactive)
REMARK    1  A    between atoms: N_1  and  C_2
REMARK    2  A    between atoms: C_2  and  C_3
REMARK    3  A    between atoms: N_8  and  C_9
REMARK    4  A    between atoms: C_9  and  C_10
REMARK    5  A    between atoms: C_10  and  N_11
REMARK                            x       y       z     vdW  Elec       q    Type
REMARK                         _______ _______ _______ _____ _____    ______ ____
ROOT
ATOM      1  C   UNL     1      47.042   4.968  14.566  0.00  0.00    +0.000 A 
ATOM      2  C   UNL     1      47.621   6.026  13.896  0.00  0.00    +0.000 A 
ATOM      3  C   UNL     1      46.960   6.456  12.774  0.00  0.00    +0.000 A 
ATOM      4  N   UNL     1      45.821   5.900  12.328  0.00  0.00    +0.000 NA
ATOM      5  C   UNL     1      45.325   4.877  13.037  0.00  0.00    +0.000 A 
ATOM      6  N   UNL     1      44.150   4.249  12.646  0.00  0.00    +0.000 N 
ATOM      7  N   UNL     1      45.897   4.385  14.142  0.00  0.00    +0.000 NA
ATOM      8  H   UNL     1      44.165   3.338  13.087  0.00  0.00    +0.000 HD
ENDROOT
BRANCH   1   9
ATOM      9  C   UNL     1      47.667   4.424  15.830  0.00  0.00    +0.000 C 
BRANCH   9  10
ATOM     10  N   UNL     1      46.727   3.634  16.630  0.00  0.00    +0.000 NA
ATOM     11  H   UNL     1      46.075   3.171  15.999  0.00  0.00    +0.000 HD
ATOM     12  H   UNL     1      46.163   4.283  17.183  0.00  0.00    +0.000 HD
ENDBRANCH   9  10
ENDBRANCH   1   9
BRANCH   6  13
ATOM     13  C   UNL     1      43.912   4.262  11.210  0.00  0.00    +0.000 C 
BRANCH  13  14
ATOM     14  C   UNL     1      44.567   3.023  10.561  0.00  0.00    +0.000 C 
BRANCH  14  15
ATOM     15  N   UNL     1      44.165   2.755   9.164  0.00  0.00    +0.000 NA
ATOM     16  C   UNL     1      44.804   1.547   8.588  0.00  0.00    +0.000 C 
ATOM     17  C   UNL     1      46.313   1.705   8.338  0.00  0.00    +0.000 C 
ATOM     18  O   UNL     1      46.578   2.817   7.474  0.00  0.00    +0.000 OA
ATOM     19  C   UNL     1      46.032   4.028   8.011  0.00  0.00    +0.000 C 
ATOM     20  C   UNL     1      44.522   3.898   8.287  0.00  0.00    +0.000 C 
ENDBRANCH  14  15
ENDBRANCH  13  14
ENDBRANCH   6  13
TORSDOF 5
ENDMDL
MODEL 6
REMARK VINA RESULT:    -5.465      2.632      6.407
REMARK INTER + INTRA:          -7.227
REMARK INTER:                  -6.931
REMARK INTRA:                  -0.295
REMARK UNBOUND:                -0.324
REMARK  Name = 
REMARK  5 active torsions:
REMARK  status: ('A' for Active; 'I' for Inactive)
REMARK    1  A    between atoms: N_1  and  C_2
REMARK    2  A    between atoms: C_2  and  C_3
REMARK    3  A    between atoms: N_8  and  C_9
REMARK    4  A    between atoms: C_9  and  C_10
REMARK    5  A    between atoms: C_10  and  N_11
REMARK                            x       y       z     vdW  Elec       q    Type
REMARK                         _______ _______ _______ _____ _____    ______ ____
ROOT
ATOM      1  C   UNL     1      46.153   4.746  13.509  0.00  0.00    +0.000 A 
ATOM      2  C   UNL     1      45.879   5.989  12.978  0.00  0.00    +0.000 A 
ATOM      3  C   UNL     1      45.093   5.999  11.855  0.00  0.00    +0.000 A 
ATOM      4  N   UNL     1      44.609   4.885  11.281  0.00  0.00    +0.000 NA
ATOM      5  C   UNL     1      44.922   3.718  11.861  0.00  0.00    +0.000 A 
ATOM      6  N   UNL     1      44.459   2.520  11.333  0.00  0.00    +0.000 N 
ATOM      7  N   UNL     1      45.682   3.604  12.956  0.00  0.00    +0.000 NA
ATOM      8  H   UNL     1      45.078   1.803  11.692  0.00  0.00    +0.000 HD
ENDROOT
BRANCH   1   9
ATOM      9  C   UNL     1      46.988   4.612  14.762  0.00  0.00    +0.000 C 
BRANCH   9  10
ATOM     10  N   UNL     1      47.548   3.268  14.927  0.00  0.00    +0.000 NA
ATOM     11  H   UNL     1      48.359   3.178  14.318  0.00  0.00    +0.000 HD
ATOM     12  H   UNL     1      46.861   2.597  14.574  0.00  0.00    +0.000 HD
ENDBRANCH   9  10
ENDBRANCH   1   9
BRANCH   6  13
ATOM     13  C   UNL     1      44.264   2.534   9.890  0.00  0.00    +0.000 C 
BRANCH  13  14
ATOM     14  C   UNL     1      45.602   2.231   9.180  0.00  0.00    +0.000 C 
BRANCH  14  15
ATOM     15  N   UNL     1      45.501   1.967   7.729  0.00  0.00    +0.000 NA
ATOM     16  C   UNL     1      46.501   0.990   7.237  0.00  0.00    +0.000 C 
ATOM     17  C   UNL     1      47.943   1.523   7.245  0.00  0.00    +0.000 C 
ATOM     18  O   UNL     1      48.054   2.721   6.466  0.00  0.00    +0.000 OA
ATOM     19  C   UNL     1      47.147   3.727   6.937  0.00  0.00    +0.000 C 
ATOM     20  C   UNL     1      45.693   3.218   6.954  0.00  0.00    +0.000 C 
ENDBRANCH  14  15
ENDBRANCH  13  14
ENDBRANCH   6  13
TORSDOF 5
ENDMDL
MODEL 7
REMARK VINA RESULT:    -5.365      2.289      3.835
REMARK INTER + INTRA:          -7.100
REMARK INTER:                  -6.655
REMARK INTRA:                  -0.445
REMARK UNBOUND:                -0.324
REMARK  Name = 
REMARK  5 active torsions:
REMARK  status: ('A' for Active; 'I' for Inactive)
REMARK    1  A    between atoms: N_1  and  C_2
REMARK    2  A    between atoms: C_2  and  C_3
REMARK    3  A    between atoms: N_8  and  C_9
REMARK    4  A    between atoms: C_9  and  C_10
REMARK    5  A    between atoms: C_10  and  N_11
REMARK                            x       y       z     vdW  Elec       q    Type
REMARK                         _______ _______ _______ _____ _____    ______ ____
ROOT
ATOM      1  C   UNL     1      44.264   3.482  10.061  0.00  0.00    +0.000 A 
ATOM      2  C   UNL     1      43.660   2.877  11.143  0.00  0.00    +0.000 A 
ATOM      3  C   UNL     1      43.421   3.687  12.223  0.00  0.00    +0.000 A 
ATOM      4  N   UNL     1      43.746   4.990  12.258  0.00  0.00    +0.000 NA
ATOM      5  C   UNL     1      44.330   5.499  11.164  0.00  0.00    +0.000 A 
ATOM      6  N   UNL     1      44.695   6.838  11.116  0.00  0.00    +0.000 N 
ATOM      7  N   UNL     1      44.606   4.791  10.063  0.00  0.00    +0.000 NA
ATOM      8  H   UNL     1      45.399   6.906  10.391  0.00  0.00    +0.000 HD
ENDROOT
BRANCH   1   9
ATOM      9  C   UNL     1      44.554   2.695   8.803  0.00  0.00    +0.000 C 
BRANCH   9  10
ATOM     10  N   UNL     1      45.266   1.443   9.072  0.00  0.00    +0.000 NA
ATOM     11  H   UNL     1      45.104   0.805   8.295  0.00  0.00    +0.000 HD
ATOM     12  H   UNL     1      44.830   1.003   9.886  0.00  0.00    +0.000 HD
ENDBRANCH   9  10
ENDBRANCH   1   9
BRANCH   6  13
ATOM     13  C   UNL     1      45.048   7.411  12.408  0.00  0.00    +0.000 C 
BRANCH  13  14
ATOM     14  C   UNL     1      46.536   7.826  12.405  0.00  0.00    +0.000 C 
BRANCH  14  15
ATOM     15  N   UNL     1      47.499   6.724  12.192  0.00  0.00    +0.000 NA
ATOM     16  C   UNL     1      47.406   5.655  13.213  0.00  0.00    +0.000 C 
ATOM     17  C   UNL     1      47.894   6.083  14.606  0.00  0.00    +0.000 C 
ATOM     18  O   UNL     1      49.249   6.549  14.555  0.00  0.00    +0.000 OA
ATOM     19  C   UNL     1      49.388   7.628  13.623  0.00  0.00    +0.000 C 
ATOM     20  C   UNL     1      48.892   7.234  12.218  0.00  0.00    +0.000 C 
ENDBRANCH  14  15
ENDBRANCH  13  14
ENDBRANCH   6  13
TORSDOF 5
ENDMDL
MODEL 8
REMARK VINA RESULT:    -5.144      4.308      6.097
REMARK INTER + INTRA:          -6.822
REMARK INTER:                  -6.543
REMARK INTRA:                  -0.279
REMARK UNBOUND:                -0.324
REMARK  Name = 
REMARK  5 active torsions:
REMARK  status: ('A' for Active; 'I' for Inactive)
REMARK    1  A    between atoms: N_1  and  C_2
REMARK    2  A    between atoms: C_2  and  C_3
REMARK    3  A    between atoms: N_8  and  C_9
REMARK    4  A    between atoms: C_9  and  C_10
REMARK    5  A    between atoms: C_10  and  N_11
REMARK                            x       y       z     vdW  Elec       q    Type
REMARK                         _______ _______ _______ _____ _____    ______ ____
ROOT
ATOM      1  C   UNL     1      43.616   5.287  11.742  0.00  0.00    +0.000 A 
ATOM      2  C   UNL     1      43.403   4.007  11.272  0.00  0.00    +0.000 A 
ATOM      3  C   UNL     1      44.101   3.014  11.907  0.00  0.00    +0.000 A 
ATOM      4  N   UNL     1      44.951   3.239  12.923  0.00  0.00    +0.000 NA
ATOM      5  C   UNL     1      45.100   4.510  13.320  0.00  0.00    +0.000 A 
ATOM      6  N   UNL     1      45.956   4.829  14.365  0.00  0.00    +0.000 N 
ATOM      7  N   UNL     1      44.466   5.548  12.763  0.00  0.00    +0.000 NA
ATOM      8  H   UNL     1      46.173   5.812  14.254  0.00  0.00    +0.000 HD
ENDROOT
BRANCH   1   9
ATOM      9  C   UNL     1      42.882   6.461  11.137  0.00  0.00    +0.000 C 
BRANCH   9  10
ATOM     10  N   UNL     1      43.621   7.719  11.271  0.00  0.00    +0.000 NA
ATOM     11  H   UNL     1      44.581   7.564  10.967  0.00  0.00    +0.000 HD
ATOM     12  H   UNL     1      43.679   7.944  12.266  0.00  0.00    +0.000 HD
ENDBRANCH   9  10
ENDBRANCH   1   9
BRANCH   6  13
ATOM     13  C   UNL     1      47.096   3.933  14.503  0.00  0.00    +0.000 C 
BRANCH  13  14
ATOM     14  C   UNL     1      47.459   3.776  15.996  0.00  0.00    +0.000 C 
BRANCH  14  15
ATOM     15  N   UNL     1      48.803   4.262  16.373  0.00  0.00    +0.000 NA
ATOM     16  C   UNL     1      49.383   3.549  17.535  0.00  0.00    +0.000 C 
ATOM     17  C   UNL     1      48.676   3.855  18.866  0.00  0.00    +0.000 C 
ATOM     18  O   UNL     1      48.687   5.261  19.143  0.00  0.00    +0.000 OA
ATOM     19  C   UNL     1      48.082   6.000  18.074  0.00  0.00    +0.000 C 
ATOM     20  C   UNL     1      48.760   5.704  16.723  0.00  0.00    +0.000 C 
ENDBRANCH  14  15
ENDBRANCH  13  14
ENDBRANCH   6  13
TORSDOF 5
ENDMDL
MODEL 9
REMARK VINA RESULT:    -4.949      3.326      5.360
REMARK INTER + INTRA:          -6.575
REMARK INTER:                  -6.339
REMARK INTRA:                  -0.236
REMARK UNBOUND:                -0.324
REMARK  Name = 
REMARK  5 active torsions:
REMARK  status: ('A' for Active; 'I' for Inactive)
REMARK    1  A    between atoms: N_1  and  C_2
REMARK    2  A    between atoms: C_2  and  C_3
REMARK    3  A    between atoms: N_8  and  C_9
REMARK    4  A    between atoms: C_9  and  C_10
REMARK    5  A    between atoms: C_10  and  N_11
REMARK                            x       y       z     vdW  Elec       q    Type
REMARK                         _______ _______ _______ _____ _____    ______ ____
ROOT
ATOM      1  C   UNL     1      44.195   4.162  10.842  0.00  0.00    +0.000 A 
ATOM      2  C   UNL     1      43.039   4.691  11.377  0.00  0.00    +0.000 A 
ATOM      3  C   UNL     1      43.168   5.282  12.608  0.00  0.00    +0.000 A 
ATOM      4  N   UNL     1      44.330   5.352  13.278  0.00  0.00    +0.000 NA
ATOM      5  C   UNL     1      45.406   4.814  12.686  0.00  0.00    +0.000 A 
ATOM      6  N   UNL     1      46.646   4.848  13.309  0.00  0.00    +0.000 N 
ATOM      7  N   UNL     1      45.382   4.215  11.490  0.00  0.00    +0.000 NA
ATOM      8  H   UNL     1      47.192   4.112  12.877  0.00  0.00    +0.000 HD
ENDROOT
BRANCH   1   9
ATOM      9  C   UNL     1      44.182   3.509   9.479  0.00  0.00    +0.000 C 
BRANCH   9  10
ATOM     10  N   UNL     1      44.564   2.095   9.526  0.00  0.00    +0.000 NA
ATOM     11  H   UNL     1      43.838   1.580  10.020  0.00  0.00    +0.000 HD
ATOM     12  H   UNL     1      45.402   2.016  10.106  0.00  0.00    +0.000 HD
ENDBRANCH   9  10
ENDBRANCH   1   9
BRANCH   6  13
ATOM     13  C   UNL     1      46.589   4.832  14.764  0.00  0.00    +0.000 C 
BRANCH  13  14
ATOM     14  C   UNL     1      47.523   3.731  15.311  0.00  0.00    +0.000 C 
BRANCH  14  15
ATOM     15  N   UNL     1      47.312   3.370  16.729  0.00  0.00    +0.000 NA
ATOM     16  C   UNL     1      47.189   4.545  17.624  0.00  0.00    +0.000 C 
ATOM     17  C   UNL     1      48.501   5.325  17.807  0.00  0.00    +0.000 C 
ATOM     18  O   UNL     1      49.539   4.474  18.311  0.00  0.00    +0.000 OA
ATOM     19  C   UNL     1      49.743   3.347  17.450  0.00  0.00    +0.000 C 
ATOM     20  C   UNL     1      48.442   2.552  17.235  0.00  0.00    +0.000 C 
ENDBRANCH  14  15
ENDBRANCH  13  14
ENDBRANCH   6  13
TORSDOF 5
ENDMDL
