MODEL 1
REMARK VINA RESULT:    -7.844      0.000      0.000
REMARK INTER + INTRA:         -12.772
REMARK INTER:                 -11.512
REMARK INTRA:                  -1.260
REMARK UNBOUND:                -1.260
REMARK  Name = 
REMARK  10 active torsions:
REMARK  status: ('A' for Active; 'I' for Inactive)
REMARK    1  A    between atoms: C_1  and  C_2
REMARK    2  A    between atoms: C_2  and  C_3
REMARK    3  A    between atoms: C_2  and  C_22
REMARK    4  A    between atoms: C_3  and  N_4
REMARK    5  A    between atoms: N_4  and  C_5
REMARK    6  A    between atoms: C_7  and  C_8
REMARK    7  A    between atoms: C_8  and  C_9
REMARK    8  A    between atoms: C_14  and  O_15
REMARK    9  A    between atoms: O_15  and  C_16
REMARK   10  A    between atoms: C_18  and  C_19
REMARK                            x       y       z     vdW  Elec       q    Type
REMARK                         _______ _______ _______ _____ _____    ______ ____
ROOT
ATOM      1  C   UNL     1      45.613   5.455  11.812  0.00  0.00    +0.000 A 
ATOM      2  C   UNL     1      46.381   6.631  11.781  0.00  0.00    +0.000 A 
ATOM      3  C   UNL     1      47.306   6.942  12.804  0.00  0.00    +0.000 A 
ATOM      4  C   UNL     1      47.455   6.060  13.883  0.00  0.00    +0.000 A 
ATOM      5  C   UNL     1      46.677   4.910  13.937  0.00  0.00    +0.000 A 
ATOM      6  C   UNL     1      45.772   4.619  12.917  0.00  0.00    +0.000 A 
ENDROOT
BRANCH   1   7
ATOM      7  N   UNL     1      44.641   5.236  10.819  0.00  0.00    +0.000 N 
ATOM      8  H   UNL     1      43.930   5.965  10.828  0.00  0.00    +0.000 HD
BRANCH   7   9
ATOM      9  C   UNL     1      45.098   4.845   9.481  0.00  0.00    +0.000 C 
BRANCH   9  11
ATOM     10  C   UNL     1      44.100   2.624  10.247  0.00  0.00    +0.000 C 
ATOM     11  C   UNL     1      44.566   3.461   9.050  0.00  0.00    +0.000 C 
BRANCH  11  12
ATOM     12  C   UNL     1      45.626   2.724   8.242  0.00  0.00    +0.000 A 
ATOM     13  C   UNL     1      46.412   3.399   7.304  0.00  0.00    +0.000 A 
ATOM     14  C   UNL     1      47.400   2.714   6.601  0.00  0.00    +0.000 A 
ATOM     15  C   UNL     1      47.578   1.366   6.859  0.00  0.00    +0.000 A 
ATOM     16  N   UNL     1      46.844   0.675   7.754  0.00  0.00    +0.000 NA
ATOM     17  C   UNL     1      45.889   1.365   8.421  0.00  0.00    +0.000 A 
ENDBRANCH  11  12
ENDBRANCH   9  11
ENDBRANCH   7   9
ENDBRANCH   1   7
BRANCH   3  18
ATOM     18  C   UNL     1      48.081   8.242  12.772  0.00  0.00    +0.000 C 
BRANCH  18  19
ATOM     19  C   UNL     1      49.491   8.189  12.192  0.00  0.00    +0.000 C 
ATOM     20  F   UNL     1      50.004   9.400  11.895  0.00  0.00    +0.000 F 
ATOM     21  F   UNL     1      50.341   7.595  13.064  0.00  0.00    +0.000 F 
ATOM     22  F   UNL     1      49.510   7.452  11.054  0.00  0.00    +0.000 F 
ENDBRANCH  18  19
ENDBRANCH   3  18
BRANCH   5  23
ATOM     23  O   UNL     1      46.728   3.972  14.932  0.00  0.00    +0.000 OA
BRANCH  23  24
ATOM     24  C   UNL     1      47.653   4.155  16.018  0.00  0.00    +0.000 C 
ATOM     25  C   UNL     1      47.099   4.371  17.452  0.00  0.00    +0.000 C 
ATOM     26  C   UNL     1      48.173   3.383  17.970  0.00  0.00    +0.000 C 
ATOM     27  C   UNL     1      49.478   3.978  18.472  0.00  0.00    +0.000 C 
ATOM     28  C   UNL     1      48.240   2.815  16.537  0.00  0.00    +0.000 C 
ENDBRANCH  23  24
ENDBRANCH   5  23
TORSDOF 8
ENDMDL
MODEL 2
REMARK VINA RESULT:    -7.528      1.241      1.699
REMARK INTER + INTRA:         -12.308
REMARK INTER:                 -10.907
REMARK INTRA:                  -1.401
REMARK UNBOUND:                -1.260
REMARK  Name = 
REMARK  10 active torsions:
REMARK  status: ('A' for Active; 'I' for Inactive)
REMARK    1  A    between atoms: C_1  and  C_2
REMARK    2  A    between atoms: C_2  and  C_3
REMARK    3  A    between atoms: C_2  and  C_22
REMARK    4  A    between atoms: C_3  and  N_4
REMARK    5  A    between atoms: N_4  and  C_5
REMARK    6  A    between atoms: C_7  and  C_8
REMARK    7  A    between atoms: C_8  and  C_9
REMARK    8  A    between atoms: C_14  and  O_15
REMARK    9  A    between atoms: O_15  and  C_16
REMARK   10  A    between atoms: C_18  and  C_19
REMARK                            x       y       z     vdW  Elec       q    Type
REMARK                         _______ _______ _______ _____ _____    ______ ____
ROOT
ATOM      1  C   UNL     1      45.165   5.595  12.942  0.00  0.00    +0.000 A 
ATOM      2  C   UNL     1      45.780   6.806  12.584  0.00  0.00    +0.000 A 
ATOM      3  C   UNL     1      47.077   7.143  13.032  0.00  0.00    +0.000 A 
ATOM      4  C   UNL     1      47.766   6.250  13.865  0.00  0.00    +0.000 A 
ATOM      5  C   UNL     1      47.154   5.064  14.249  0.00  0.00    +0.000 A 
ATOM      6  C   UNL     1      45.874   4.748  13.794  0.00  0.00    +0.000 A 
ENDROOT
BRANCH   1   7
ATOM      7  N   UNL     1      43.838   5.347  12.545  0.00  0.00    +0.000 N 
ATOM      8  H   UNL     1      43.179   5.910  13.081  0.00  0.00    +0.000 HD
BRANCH   7   9
ATOM      9  C   UNL     1      43.550   5.271  11.108  0.00  0.00    +0.000 C 
BRANCH   9  11
ATOM     10  C   UNL     1      43.446   2.805  11.755  0.00  0.00    +0.000 C 
ATOM     11  C   UNL     1      43.402   3.819  10.606  0.00  0.00    +0.000 C 
BRANCH  11  12
ATOM     12  C   UNL     1      44.470   3.516   9.565  0.00  0.00    +0.000 A 
ATOM     13  C   UNL     1      44.879   2.202   9.317  0.00  0.00    +0.000 A 
ATOM     14  C   UNL     1      45.833   1.943   8.335  0.00  0.00    +0.000 A 
ATOM     15  C   UNL     1      46.352   3.009   7.622  0.00  0.00    +0.000 A 
ATOM     16  N   UNL     1      45.987   4.291   7.827  0.00  0.00    +0.000 NA
ATOM     17  C   UNL     1      45.061   4.515   8.788  0.00  0.00    +0.000 A 
ENDBRANCH  11  12
ENDBRANCH   9  11
ENDBRANCH   7   9
ENDBRANCH   1   7
BRANCH   3  18
ATOM     18  C   UNL     1      47.693   8.479  12.675  0.00  0.00    +0.000 C 
BRANCH  18  19
ATOM     19  C   UNL     1      48.970   8.447  11.840  0.00  0.00    +0.000 C 
ATOM     20  F   UNL     1      49.239   9.610  11.212  0.00  0.00    +0.000 F 
ATOM     21  F   UNL     1      50.039   8.153  12.618  0.00  0.00    +0.000 F 
ATOM     22  F   UNL     1      48.893   7.484  10.890  0.00  0.00    +0.000 F 
ENDBRANCH  18  19
ENDBRANCH   3  18
BRANCH   5  23
ATOM     23  O   UNL     1      47.718   4.112  15.054  0.00  0.00    +0.000 OA
BRANCH  23  24
ATOM     24  C   UNL     1      47.778   4.343  16.473  0.00  0.00    +0.000 C 
ATOM     25  C   UNL     1      47.412   3.187  17.441  0.00  0.00    +0.000 C 
ATOM     26  C   UNL     1      48.645   3.569  18.296  0.00  0.00    +0.000 C 
ATOM     27  C   UNL     1      48.413   4.513  19.465  0.00  0.00    +0.000 C 
ATOM     28  C   UNL     1      49.222   4.244  17.034  0.00  0.00    +0.000 C 
ENDBRANCH  23  24
ENDBRANCH   5  23
TORSDOF 8
ENDMDL
MODEL 3
REMARK VINA RESULT:    -7.192      3.226      5.925
REMARK INTER + INTRA:         -11.816
REMARK INTER:                 -10.094
REMARK INTRA:                  -1.721
REMARK UNBOUND:                -1.260
REMARK  Name = 
REMARK  10 active torsions:
REMARK  status: ('A' for Active; 'I' for Inactive)
REMARK    1  A    between atoms: C_1  and  C_2
REMARK    2  A    between atoms: C_2  and  C_3
REMARK    3  A    between atoms: C_2  and  C_22
REMARK    4  A    between atoms: C_3  and  N_4
REMARK    5  A    between atoms: N_4  and  C_5
REMARK    6  A    between atoms: C_7  and  C_8
REMARK    7  A    between atoms: C_8  and  C_9
REMARK    8  A    between atoms: C_14  and  O_15
REMARK    9  A    between atoms: O_15  and  C_16
REMARK   10  A    between atoms: C_18  and  C_19
REMARK                            x       y       z     vdW  Elec       q    Type
REMARK                         _______ _______ _______ _____ _____    ______ ____
ROOT
ATOM      1  C   UNL     1      44.809   5.840  12.683  0.00  0.00    +0.000 A 
ATOM      2  C   UNL     1      44.313   4.975  11.693  0.00  0.00    +0.000 A 
ATOM      3  C   UNL     1      44.766   3.642  11.575  0.00  0.00    +0.000 A 
ATOM      4  C   UNL     1      45.744   3.171  12.462  0.00  0.00    +0.000 A 
ATOM      5  C   UNL     1      46.263   4.028  13.424  0.00  0.00    +0.000 A 
ATOM      6  C   UNL     1      45.801   5.340  13.527  0.00  0.00    +0.000 A 
ENDROOT
BRANCH   1   7
ATOM      7  N   UNL     1      44.394   7.184  12.701  0.00  0.00    +0.000 N 
ATOM      8  H   UNL     1      44.251   7.515  13.653  0.00  0.00    +0.000 HD
BRANCH   7   9
ATOM      9  C   UNL     1      45.087   8.132  11.821  0.00  0.00    +0.000 C 
BRANCH   9  11
ATOM     10  C   UNL     1      46.032  10.503  11.847  0.00  0.00    +0.000 C 
ATOM     11  C   UNL     1      45.916   9.174  12.602  0.00  0.00    +0.000 C 
BRANCH  11  12
ATOM     12  C   UNL     1      47.290   8.606  12.930  0.00  0.00    +0.000 A 
ATOM     13  C   UNL     1      47.999   7.854  11.988  0.00  0.00    +0.000 A 
ATOM     14  C   UNL     1      49.271   7.373  12.295  0.00  0.00    +0.000 A 
ATOM     15  C   UNL     1      49.802   7.662  13.539  0.00  0.00    +0.000 A 
ATOM     16  N   UNL     1      49.155   8.383  14.477  0.00  0.00    +0.000 NA
ATOM     17  C   UNL     1      47.921   8.836  14.154  0.00  0.00    +0.000 A 
ENDBRANCH  11  12
ENDBRANCH   9  11
ENDBRANCH   7   9
ENDBRANCH   1   7
BRANCH   3  18
ATOM     18  C   UNL     1      44.254   2.750  10.465  0.00  0.00    +0.000 C 
BRANCH  18  19
ATOM     19  C   UNL     1      45.008   2.799   9.139  0.00  0.00    +0.000 C 
ATOM     20  F   UNL     1      45.837   3.856   9.024  0.00  0.00    +0.000 F 
ATOM     21  F   UNL     1      45.756   1.681   8.976  0.00  0.00    +0.000 F 
ATOM     22  F   UNL     1      44.140   2.851   8.099  0.00  0.00    +0.000 F 
ENDBRANCH  18  19
ENDBRANCH   3  18
BRANCH   5  23
ATOM     23  O   UNL     1      47.217   3.691  14.346  0.00  0.00    +0.000 OA
BRANCH  23  24
ATOM     24  C   UNL     1      47.096   4.190  15.691  0.00  0.00    +0.000 C 
ATOM     25  C   UNL     1      47.576   3.301  16.869  0.00  0.00    +0.000 C 
ATOM     26  C   UNL     1      48.242   4.555  17.487  0.00  0.00    +0.000 C 
ATOM     27  C   UNL     1      47.434   5.336  18.511  0.00  0.00    +0.000 C 
ATOM     28  C   UNL     1      48.241   5.167  16.071  0.00  0.00    +0.000 C 
ENDBRANCH  23  24
ENDBRANCH   5  23
TORSDOF 8
ENDMDL
MODEL 4
REMARK VINA RESULT:    -7.161      2.439      7.271
REMARK INTER + INTRA:         -11.770
REMARK INTER:                 -10.616
REMARK INTRA:                  -1.155
REMARK UNBOUND:                -1.260
REMARK  Name = 
REMARK  10 active torsions:
REMARK  status: ('A' for Active; 'I' for Inactive)
REMARK    1  A    between atoms: C_1  and  C_2
REMARK    2  A    between atoms: C_2  and  C_3
REMARK    3  A    between atoms: C_2  and  C_22
REMARK    4  A    between atoms: C_3  and  N_4
REMARK    5  A    between atoms: N_4  and  C_5
REMARK    6  A    between atoms: C_7  and  C_8
REMARK    7  A    between atoms: C_8  and  C_9
REMARK    8  A    between atoms: C_14  and  O_15
REMARK    9  A    between atoms: O_15  and  C_16
REMARK   10  A    between atoms: C_18  and  C_19
REMARK                            x       y       z     vdW  Elec       q    Type
REMARK                         _______ _______ _______ _____ _____    ______ ____
ROOT
ATOM      1  C   UNL     1      46.195   4.898  13.600  0.00  0.00    +0.000 A 
ATOM      2  C   UNL     1      46.633   6.223  13.439  0.00  0.00    +0.000 A 
ATOM      3  C   UNL     1      46.386   6.949  12.252  0.00  0.00    +0.000 A 
ATOM      4  C   UNL     1      45.694   6.329  11.202  0.00  0.00    +0.000 A 
ATOM      5  C   UNL     1      45.284   5.009  11.341  0.00  0.00    +0.000 A 
ATOM      6  C   UNL     1      45.535   4.309  12.521  0.00  0.00    +0.000 A 
ENDROOT
BRANCH   1   7
ATOM      7  N   UNL     1      46.545   4.188  14.763  0.00  0.00    +0.000 N 
ATOM      8  H   UNL     1      46.751   3.213  14.555  0.00  0.00    +0.000 HD
BRANCH   7   9
ATOM      9  C   UNL     1      47.475   4.822  15.704  0.00  0.00    +0.000 C 
BRANCH   9  11
ATOM     10  C   UNL     1      47.334   4.952  18.249  0.00  0.00    +0.000 C 
ATOM     11  C   UNL     1      47.594   4.051  17.036  0.00  0.00    +0.000 C 
BRANCH  11  12
ATOM     12  C   UNL     1      48.958   3.382  17.131  0.00  0.00    +0.000 A 
ATOM     13  C   UNL     1      50.003   3.981  17.841  0.00  0.00    +0.000 A 
ATOM     14  C   UNL     1      51.234   3.337  17.946  0.00  0.00    +0.000 A 
ATOM     15  C   UNL     1      51.386   2.103  17.338  0.00  0.00    +0.000 A 
ATOM     16  N   UNL     1      50.406   1.488  16.645  0.00  0.00    +0.000 NA
ATOM     17  C   UNL     1      49.222   2.138  16.556  0.00  0.00    +0.000 A 
ENDBRANCH  11  12
ENDBRANCH   9  11
ENDBRANCH   7   9
ENDBRANCH   1   7
BRANCH   3  18
ATOM     18  C   UNL     1      46.917   8.357  12.086  0.00  0.00    +0.000 C 
BRANCH  18  19
ATOM     19  C   UNL     1      48.419   8.502  11.859  0.00  0.00    +0.000 C 
ATOM     20  F   UNL     1      48.941   7.561  11.047  0.00  0.00    +0.000 F 
ATOM     21  F   UNL     1      48.703   9.709  11.312  0.00  0.00    +0.000 F 
ATOM     22  F   UNL     1      49.087   8.434  13.037  0.00  0.00    +0.000 F 
ENDBRANCH  18  19
ENDBRANCH   3  18
BRANCH   5  23
ATOM     23  O   UNL     1      44.603   4.293  10.394  0.00  0.00    +0.000 OA
BRANCH  23  24
ATOM     24  C   UNL     1      45.345   3.529   9.427  0.00  0.00    +0.000 C 
ATOM     25  C   UNL     1      44.574   2.751   8.329  0.00  0.00    +0.000 C 
ATOM     26  C   UNL     1      45.611   3.261   7.299  0.00  0.00    +0.000 C 
ATOM     27  C   UNL     1      46.793   2.354   6.997  0.00  0.00    +0.000 C 
ATOM     28  C   UNL     1      45.920   4.407   8.284  0.00  0.00    +0.000 C 
ENDBRANCH  23  24
ENDBRANCH   5  23
TORSDOF 8
ENDMDL
MODEL 5
REMARK VINA RESULT:    -6.593      3.496      7.556
REMARK INTER + INTRA:         -10.936
REMARK INTER:                  -9.749
REMARK INTRA:                  -1.187
REMARK UNBOUND:                -1.260
REMARK  Name = 
REMARK  10 active torsions:
REMARK  status: ('A' for Active; 'I' for Inactive)
REMARK    1  A    between atoms: C_1  and  C_2
REMARK    2  A    between atoms: C_2  and  C_3
REMARK    3  A    between atoms: C_2  and  C_22
REMARK    4  A    between atoms: C_3  and  N_4
REMARK    5  A    between atoms: N_4  and  C_5
REMARK    6  A    between atoms: C_7  and  C_8
REMARK    7  A    between atoms: C_8  and  C_9
REMARK    8  A    between atoms: C_14  and  O_15
REMARK    9  A    between atoms: O_15  and  C_16
REMARK   10  A    between atoms: C_18  and  C_19
REMARK                            x       y       z     vdW  Elec       q    Type
REMARK                         _______ _______ _______ _____ _____    ______ ____
ROOT
ATOM      1  C   UNL     1      46.323   4.683  13.462  0.00  0.00    +0.000 A 
ATOM      2  C   UNL     1      45.375   4.127  12.587  0.00  0.00    +0.000 A 
ATOM      3  C   UNL     1      45.139   4.670  11.304  0.00  0.00    +0.000 A 
ATOM      4  C   UNL     1      45.863   5.798  10.894  0.00  0.00    +0.000 A 
ATOM      5  C   UNL     1      46.781   6.372  11.765  0.00  0.00    +0.000 A 
ATOM      6  C   UNL     1      47.002   5.821  13.027  0.00  0.00    +0.000 A 
ENDROOT
BRANCH   1   7
ATOM      7  N   UNL     1      46.455   4.163  14.763  0.00  0.00    +0.000 N 
ATOM      8  H   UNL     1      46.343   3.151  14.771  0.00  0.00    +0.000 HD
BRANCH   7   9
ATOM      9  C   UNL     1      47.553   4.664  15.598  0.00  0.00    +0.000 C 
BRANCH   9  11
ATOM     10  C   UNL     1      47.107   4.806  18.106  0.00  0.00    +0.000 C 
ATOM     11  C   UNL     1      47.644   3.942  16.959  0.00  0.00    +0.000 C 
BRANCH  11  12
ATOM     12  C   UNL     1      49.078   3.507  17.223  0.00  0.00    +0.000 A 
ATOM     13  C   UNL     1      49.489   2.195  16.968  0.00  0.00    +0.000 A 
ATOM     14  C   UNL     1      50.815   1.825  17.183  0.00  0.00    +0.000 A 
ATOM     15  C   UNL     1      51.699   2.783  17.647  0.00  0.00    +0.000 A 
ATOM     16  N   UNL     1      51.347   4.059  17.906  0.00  0.00    +0.000 NA
ATOM     17  C   UNL     1      50.053   4.390  17.691  0.00  0.00    +0.000 A 
ENDBRANCH  11  12
ENDBRANCH   9  11
ENDBRANCH   7   9
ENDBRANCH   1   7
BRANCH   3  18
ATOM     18  C   UNL     1      44.072   4.083  10.404  0.00  0.00    +0.000 C 
BRANCH  18  19
ATOM     19  C   UNL     1      44.550   3.195   9.258  0.00  0.00    +0.000 C 
ATOM     20  F   UNL     1      44.281   3.693   8.034  0.00  0.00    +0.000 F 
ATOM     21  F   UNL     1      45.890   3.006   9.331  0.00  0.00    +0.000 F 
ATOM     22  F   UNL     1      43.972   1.971   9.332  0.00  0.00    +0.000 F 
ENDBRANCH  18  19
ENDBRANCH   3  18
BRANCH   5  23
ATOM     23  O   UNL     1      47.549   7.471  11.486  0.00  0.00    +0.000 OA
BRANCH  23  24
ATOM     24  C   UNL     1      48.796   7.646  12.181  0.00  0.00    +0.000 C 
ATOM     25  C   UNL     1      50.103   7.792  11.357  0.00  0.00    +0.000 C 
ATOM     26  C   UNL     1      50.518   8.947  12.301  0.00  0.00    +0.000 C 
ATOM     27  C   UNL     1      51.401   8.592  13.486  0.00  0.00    +0.000 C 
ATOM     28  C   UNL     1      49.023   9.110  12.644  0.00  0.00    +0.000 C 
ENDBRANCH  23  24
ENDBRANCH   5  23
TORSDOF 8
ENDMDL
MODEL 6
REMARK VINA RESULT:    -6.509      4.204      7.871
REMARK INTER + INTRA:         -10.813
REMARK INTER:                  -9.631
REMARK INTRA:                  -1.182
REMARK UNBOUND:                -1.260
REMARK  Name = 
REMARK  10 active torsions:
REMARK  status: ('A' for Active; 'I' for Inactive)
REMARK    1  A    between atoms: C_1  and  C_2
REMARK    2  A    between atoms: C_2  and  C_3
REMARK    3  A    between atoms: C_2  and  C_22
REMARK    4  A    between atoms: C_3  and  N_4
REMARK    5  A    between atoms: N_4  and  C_5
REMARK    6  A    between atoms: C_7  and  C_8
REMARK    7  A    between atoms: C_8  and  C_9
REMARK    8  A    between atoms: C_14  and  O_15
REMARK    9  A    between atoms: O_15  and  C_16
REMARK   10  A    between atoms: C_18  and  C_19
REMARK                            x       y       z     vdW  Elec       q    Type
REMARK                         _______ _______ _______ _____ _____    ______ ____
ROOT
ATOM      1  C   UNL     1      47.041   5.405  14.137  0.00  0.00    +0.000 A 
ATOM      2  C   UNL     1      46.330   4.391  13.475  0.00  0.00    +0.000 A 
ATOM      3  C   UNL     1      45.721   4.609  12.218  0.00  0.00    +0.000 A 
ATOM      4  C   UNL     1      45.820   5.872  11.619  0.00  0.00    +0.000 A 
ATOM      5  C   UNL     1      46.496   6.890  12.281  0.00  0.00    +0.000 A 
ATOM      6  C   UNL     1      47.093   6.655  13.519  0.00  0.00    +0.000 A 
ENDROOT
BRANCH   1   7
ATOM      7  N   UNL     1      47.551   5.166  15.426  0.00  0.00    +0.000 N 
ATOM      8  H   UNL     1      47.593   6.023  15.974  0.00  0.00    +0.000 HD
BRANCH   7   9
ATOM      9  C   UNL     1      47.051   3.997  16.159  0.00  0.00    +0.000 C 
BRANCH   9  11
ATOM     10  C   UNL     1      47.606   5.227  18.325  0.00  0.00    +0.000 C 
ATOM     11  C   UNL     1      47.642   3.887  17.581  0.00  0.00    +0.000 C 
BRANCH  11  12
ATOM     12  C   UNL     1      49.059   3.333  17.515  0.00  0.00    +0.000 A 
ATOM     13  C   UNL     1      50.127   4.024  18.095  0.00  0.00    +0.000 A 
ATOM     14  C   UNL     1      51.411   3.483  18.054  0.00  0.00    +0.000 A 
ATOM     15  C   UNL     1      51.591   2.259  17.435  0.00  0.00    +0.000 A 
ATOM     16  N   UNL     1      50.590   1.558  16.863  0.00  0.00    +0.000 NA
ATOM     17  C   UNL     1      49.354   2.108  16.915  0.00  0.00    +0.000 A 
ENDBRANCH  11  12
ENDBRANCH   9  11
ENDBRANCH   7   9
ENDBRANCH   1   7
BRANCH   3  18
ATOM     18  C   UNL     1      44.914   3.514  11.554  0.00  0.00    +0.000 C 
BRANCH  18  19
ATOM     19  C   UNL     1      43.444   3.403  11.952  0.00  0.00    +0.000 C 
ATOM     20  F   UNL     1      43.210   3.684  13.251  0.00  0.00    +0.000 F 
ATOM     21  F   UNL     1      42.687   4.250  11.214  0.00  0.00    +0.000 F 
ATOM     22  F   UNL     1      42.981   2.150  11.720  0.00  0.00    +0.000 F 
ENDBRANCH  18  19
ENDBRANCH   3  18
BRANCH   5  23
ATOM     23  O   UNL     1      46.663   8.162  11.806  0.00  0.00    +0.000 OA
BRANCH  23  24
ATOM     24  C   UNL     1      47.805   8.924  12.236  0.00  0.00    +0.000 C 
ATOM     25  C   UNL     1      49.160   8.729  11.506  0.00  0.00    +0.000 C 
ATOM     26  C   UNL     1      49.336  10.268  11.511  0.00  0.00    +0.000 C 
ATOM     27  C   UNL     1      50.133  10.871  12.657  0.00  0.00    +0.000 C 
ATOM     28  C   UNL     1      47.805  10.371  11.674  0.00  0.00    +0.000 C 
ENDBRANCH  23  24
ENDBRANCH   5  23
TORSDOF 8
ENDMDL
MODEL 7
REMARK VINA RESULT:    -6.492      2.599      8.033
REMARK INTER + INTRA:         -10.788
REMARK INTER:                  -9.633
REMARK INTRA:                  -1.155
REMARK UNBOUND:                -1.260
REMARK  Name = 
REMARK  10 active torsions:
REMARK  status: ('A' for Active; 'I' for Inactive)
REMARK    1  A    between atoms: C_1  and  C_2
REMARK    2  A    between atoms: C_2  and  C_3
REMARK    3  A    between atoms: C_2  and  C_22
REMARK    4  A    between atoms: C_3  and  N_4
REMARK    5  A    between atoms: N_4  and  C_5
REMARK    6  A    between atoms: C_7  and  C_8
REMARK    7  A    between atoms: C_8  and  C_9
REMARK    8  A    between atoms: C_14  and  O_15
REMARK    9  A    between atoms: O_15  and  C_16
REMARK   10  A    between atoms: C_18  and  C_19
REMARK                            x       y       z     vdW  Elec       q    Type
REMARK                         _______ _______ _______ _____ _____    ______ ____
ROOT
ATOM      1  C   UNL     1      46.499   4.800  13.889  0.00  0.00    +0.000 A 
ATOM      2  C   UNL     1      46.883   6.138  13.698  0.00  0.00    +0.000 A 
ATOM      3  C   UNL     1      46.523   6.857  12.535  0.00  0.00    +0.000 A 
ATOM      4  C   UNL     1      45.772   6.216  11.540  0.00  0.00    +0.000 A 
ATOM      5  C   UNL     1      45.414   4.884  11.707  0.00  0.00    +0.000 A 
ATOM      6  C   UNL     1      45.776   4.192  12.862  0.00  0.00    +0.000 A 
ENDROOT
BRANCH   1   7
ATOM      7  N   UNL     1      46.959   4.101  15.020  0.00  0.00    +0.000 N 
ATOM      8  H   UNL     1      47.311   3.179  14.769  0.00  0.00    +0.000 HD
BRANCH   7   9
ATOM      9  C   UNL     1      47.785   4.828  15.991  0.00  0.00    +0.000 C 
BRANCH   9  11
ATOM     10  C   UNL     1      47.295   2.873  17.556  0.00  0.00    +0.000 C 
ATOM     11  C   UNL     1      48.327   3.917  17.113  0.00  0.00    +0.000 C 
BRANCH  11  12
ATOM     12  C   UNL     1      48.795   4.761  18.289  0.00  0.00    +0.000 A 
ATOM     13  C   UNL     1      48.829   4.233  19.583  0.00  0.00    +0.000 A 
ATOM     14  C   UNL     1      49.294   5.011  20.642  0.00  0.00    +0.000 A 
ATOM     15  C   UNL     1      49.717   6.301  20.375  0.00  0.00    +0.000 A 
ATOM     16  N   UNL     1      49.703   6.851  19.144  0.00  0.00    +0.000 NA
ATOM     17  C   UNL     1      49.244   6.074  18.135  0.00  0.00    +0.000 A 
ENDBRANCH  11  12
ENDBRANCH   9  11
ENDBRANCH   7   9
ENDBRANCH   1   7
BRANCH   3  18
ATOM     18  C   UNL     1      46.998   8.280  12.333  0.00  0.00    +0.000 C 
BRANCH  18  19
ATOM     19  C   UNL     1      48.452   8.466  11.909  0.00  0.00    +0.000 C 
ATOM     20  F   UNL     1      48.922   7.474  11.126  0.00  0.00    +0.000 F 
ATOM     21  F   UNL     1      48.603   9.626  11.225  0.00  0.00    +0.000 F 
ATOM     22  F   UNL     1      49.258   8.539  12.996  0.00  0.00    +0.000 F 
ENDBRANCH  18  19
ENDBRANCH   3  18
BRANCH   5  23
ATOM     23  O   UNL     1      44.684   4.148  10.813  0.00  0.00    +0.000 OA
BRANCH  23  24
ATOM     24  C   UNL     1      45.364   3.491   9.728  0.00  0.00    +0.000 C 
ATOM     25  C   UNL     1      44.549   2.586   8.767  0.00  0.00    +0.000 C 
ATOM     26  C   UNL     1      45.309   3.233   7.583  0.00  0.00    +0.000 C 
ATOM     27  C   UNL     1      46.549   2.513   7.079  0.00  0.00    +0.000 C 
ATOM     28  C   UNL     1      45.598   4.429   8.514  0.00  0.00    +0.000 C 
ENDBRANCH  23  24
ENDBRANCH   5  23
TORSDOF 8
ENDMDL
MODEL 8
REMARK VINA RESULT:    -6.420      3.830      5.053
REMARK INTER + INTRA:         -10.683
REMARK INTER:                  -9.630
REMARK INTRA:                  -1.053
REMARK UNBOUND:                -1.260
REMARK  Name = 
REMARK  10 active torsions:
REMARK  status: ('A' for Active; 'I' for Inactive)
REMARK    1  A    between atoms: C_1  and  C_2
REMARK    2  A    between atoms: C_2  and  C_3
REMARK    3  A    between atoms: C_2  and  C_22
REMARK    4  A    between atoms: C_3  and  N_4
REMARK    5  A    between atoms: N_4  and  C_5
REMARK    6  A    between atoms: C_7  and  C_8
REMARK    7  A    between atoms: C_8  and  C_9
REMARK    8  A    between atoms: C_14  and  O_15
REMARK    9  A    between atoms: O_15  and  C_16
REMARK   10  A    between atoms: C_18  and  C_19
REMARK                            x       y       z     vdW  Elec       q    Type
REMARK                         _______ _______ _______ _____ _____    ______ ____
ROOT
ATOM      1  C   UNL     1      45.760   6.623  11.631  0.00  0.00    +0.000 A 
ATOM      2  C   UNL     1      44.884   7.719  11.563  0.00  0.00    +0.000 A 
ATOM      3  C   UNL     1      45.300   9.027  11.900  0.00  0.00    +0.000 A 
ATOM      4  C   UNL     1      46.620   9.237  12.323  0.00  0.00    +0.000 A 
ATOM      5  C   UNL     1      47.485   8.155  12.422  0.00  0.00    +0.000 A 
ATOM      6  C   UNL     1      47.057   6.872  12.083  0.00  0.00    +0.000 A 
ENDROOT
BRANCH   1   7
ATOM      7  N   UNL     1      45.274   5.329  11.374  0.00  0.00    +0.000 N 
ATOM      8  H   UNL     1      45.235   4.771  12.225  0.00  0.00    +0.000 HD
BRANCH   7   9
ATOM      9  C   UNL     1      44.103   5.193  10.500  0.00  0.00    +0.000 C 
BRANCH   9  11
ATOM     10  C   UNL     1      43.703   2.847  11.420  0.00  0.00    +0.000 C 
ATOM     11  C   UNL     1      43.777   3.722  10.164  0.00  0.00    +0.000 C 
BRANCH  11  12
ATOM     12  C   UNL     1      44.795   3.176   9.173  0.00  0.00    +0.000 A 
ATOM     13  C   UNL     1      45.424   4.020   8.252  0.00  0.00    +0.000 A 
ATOM     14  C   UNL     1      46.379   3.507   7.377  0.00  0.00    +0.000 A 
ATOM     15  C   UNL     1      46.683   2.159   7.449  0.00  0.00    +0.000 A 
ATOM     16  N   UNL     1      46.102   1.310   8.320  0.00  0.00    +0.000 NA
ATOM     17  C   UNL     1      45.177   1.834   9.157  0.00  0.00    +0.000 A 
ENDBRANCH  11  12
ENDBRANCH   9  11
ENDBRANCH   7   9
ENDBRANCH   1   7
BRANCH   3  18
ATOM     18  C   UNL     1      44.318  10.179  11.870  0.00  0.00    +0.000 C 
BRANCH  18  19
ATOM     19  C   UNL     1      43.399  10.268  10.654  0.00  0.00    +0.000 C 
ATOM     20  F   UNL     1      42.425   9.336  10.638  0.00  0.00    +0.000 F 
ATOM     21  F   UNL     1      42.797  11.481  10.601  0.00  0.00    +0.000 F 
ATOM     22  F   UNL     1      44.111  10.128   9.509  0.00  0.00    +0.000 F 
ENDBRANCH  18  19
ENDBRANCH   3  18
BRANCH   5  23
ATOM     23  O   UNL     1      48.792   8.227  12.820  0.00  0.00    +0.000 OA
BRANCH  23  24
ATOM     24  C   UNL     1      49.764   8.802  11.928  0.00  0.00    +0.000 C 
ATOM     25  C   UNL     1      51.097   9.340  12.511  0.00  0.00    +0.000 C 
ATOM     26  C   UNL     1      51.837   8.657  11.335  0.00  0.00    +0.000 C 
ATOM     27  C   UNL     1      52.125   9.508  10.109  0.00  0.00    +0.000 C 
ATOM     28  C   UNL     1      50.613   7.729  11.196  0.00  0.00    +0.000 C 
ENDBRANCH  23  24
ENDBRANCH   5  23
TORSDOF 8
ENDMDL
MODEL 9
REMARK VINA RESULT:    -6.156      3.289      5.568
REMARK INTER + INTRA:         -10.296
REMARK INTER:                  -9.075
REMARK INTRA:                  -1.220
REMARK UNBOUND:                -1.260
REMARK  Name = 
REMARK  10 active torsions:
REMARK  status: ('A' for Active; 'I' for Inactive)
REMARK    1  A    between atoms: C_1  and  C_2
REMARK    2  A    between atoms: C_2  and  C_3
REMARK    3  A    between atoms: C_2  and  C_22
REMARK    4  A    between atoms: C_3  and  N_4
REMARK    5  A    between atoms: N_4  and  C_5
REMARK    6  A    between atoms: C_7  and  C_8
REMARK    7  A    between atoms: C_8  and  C_9
REMARK    8  A    between atoms: C_14  and  O_15
REMARK    9  A    between atoms: O_15  and  C_16
REMARK   10  A    between atoms: C_18  and  C_19
REMARK                            x       y       z     vdW  Elec       q    Type
REMARK                         _______ _______ _______ _____ _____    ______ ____
ROOT
ATOM      1  C   UNL     1      47.011   4.797  14.915  0.00  0.00    +0.000 A 
ATOM      2  C   UNL     1      47.551   4.426  16.158  0.00  0.00    +0.000 A 
ATOM      3  C   UNL     1      48.592   5.163  16.767  0.00  0.00    +0.000 A 
ATOM      4  C   UNL     1      49.107   6.289  16.110  0.00  0.00    +0.000 A 
ATOM      5  C   UNL     1      48.600   6.646  14.867  0.00  0.00    +0.000 A 
ATOM      6  C   UNL     1      47.571   5.908  14.283  0.00  0.00    +0.000 A 
ENDROOT
BRANCH   1   7
ATOM      7  N   UNL     1      46.041   3.979  14.308  0.00  0.00    +0.000 N 
ATOM      8  H   UNL     1      45.106   4.194  14.652  0.00  0.00    +0.000 HD
BRANCH   7   9
ATOM      9  C   UNL     1      46.126   3.767  12.859  0.00  0.00    +0.000 C 
BRANCH   9  11
ATOM     10  C   UNL     1      43.589   3.998  12.693  0.00  0.00    +0.000 C 
ATOM     11  C   UNL     1      44.942   4.398  12.094  0.00  0.00    +0.000 C 
BRANCH  11  12
ATOM     12  C   UNL     1      45.020   4.031  10.618  0.00  0.00    +0.000 A 
ATOM     13  C   UNL     1      44.617   2.769  10.171  0.00  0.00    +0.000 A 
ATOM     14  C   UNL     1      44.663   2.464   8.812  0.00  0.00    +0.000 A 
ATOM     15  C   UNL     1      45.110   3.435   7.934  0.00  0.00    +0.000 A 
ATOM     16  N   UNL     1      45.508   4.664   8.321  0.00  0.00    +0.000 NA
ATOM     17  C   UNL     1      45.456   4.932   9.646  0.00  0.00    +0.000 A 
ENDBRANCH  11  12
ENDBRANCH   9  11
ENDBRANCH   7   9
ENDBRANCH   1   7
BRANCH   3  18
ATOM     18  C   UNL     1      49.191   4.708  18.080  0.00  0.00    +0.000 C 
BRANCH  18  19
ATOM     19  C   UNL     1      48.553   5.254  19.354  0.00  0.00    +0.000 C 
ATOM     20  F   UNL     1      48.493   4.359  20.361  0.00  0.00    +0.000 F 
ATOM     21  F   UNL     1      49.243   6.327  19.809  0.00  0.00    +0.000 F 
ATOM     22  F   UNL     1      47.286   5.672  19.110  0.00  0.00    +0.000 F 
ENDBRANCH  18  19
ENDBRANCH   3  18
BRANCH   5  23
ATOM     23  O   UNL     1      49.015   7.719  14.127  0.00  0.00    +0.000 OA
BRANCH  23  24
ATOM     24  C   UNL     1      49.813   7.491  12.951  0.00  0.00    +0.000 C 
ATOM     25  C   UNL     1      49.330   8.059  11.591  0.00  0.00    +0.000 C 
ATOM     26  C   UNL     1      50.782   8.521  11.316  0.00  0.00    +0.000 C 
ATOM     27  C   UNL     1      51.670   7.582  10.517  0.00  0.00    +0.000 C 
ATOM     28  C   UNL     1      51.010   8.473  12.841  0.00  0.00    +0.000 C 
ENDBRANCH  23  24
ENDBRANCH   5  23
TORSDOF 8
ENDMDL
