MODEL 1
REMARK VINA RESULT:    -6.936      0.000      0.000
REMARK INTER + INTRA:          -9.116
REMARK INTER:                  -8.558
REMARK INTRA:                  -0.558
REMARK UNBOUND:                -0.558
REMARK  Name = 
REMARK  7 active torsions:
REMARK  status: ('A' for Active; 'I' for Inactive)
REMARK    1  A    between atoms: C_1  and  C_2
REMARK    2  A    between atoms: C_2  and  C_3
REMARK    3  A    between atoms: C_2  and  C_4
REMARK    4  A    between atoms: C_2  and  C_5
REMARK    5  A    between atoms: N_7  and  C_8
REMARK    6  A    between atoms: C_8  and  C_9
REMARK    7  A    between atoms: C_18  and  C_19
REMARK                            x       y       z     vdW  Elec       q    Type
REMARK                         _______ _______ _______ _____ _____    ______ ____
ROOT
ATOM      1  C   UNL     1      46.017   7.025  11.976  0.00  0.00    +0.000 A 
ATOM      2  N   UNL     1      45.307   6.693  10.887  0.00  0.00    +0.000 NA
ATOM      3  N   UNL     1      45.098   5.370  10.997  0.00  0.00    +0.000 N 
ATOM      4  C   UNL     1      45.715   4.806  12.087  0.00  0.00    +0.000 A 
ATOM      5  C   UNL     1      45.841   3.477  12.517  0.00  0.00    +0.000 A 
ATOM      6  C   UNL     1      46.484   3.247  13.738  0.00  0.00    +0.000 A 
ATOM      7  C   UNL     1      46.984   4.305  14.503  0.00  0.00    +0.000 A 
ATOM      8  C   UNL     1      46.883   5.625  14.037  0.00  0.00    +0.000 A 
ATOM      9  C   UNL     1      46.255   5.877  12.797  0.00  0.00    +0.000 A 
ENDROOT
BRANCH   7  10
ATOM     10  C   UNL     1      47.585   3.984  15.826  0.00  0.00    +0.000 C 
ATOM     11  N   UNL     1      47.256   4.781  16.886  0.00  0.00    +0.000 N 
ATOM     12  O   UNL     1      48.373   3.052  15.966  0.00  0.00    +0.000 OA
ATOM     13  H   UNL     1      46.811   5.679  16.782  0.00  0.00    +0.000 HD
ATOM     14  H   UNL     1      47.747   4.595  17.753  0.00  0.00    +0.000 HD
ENDBRANCH   7  10
BRANCH   1  16
ATOM     15  C   UNL     1      46.507   8.869  13.659  0.00  0.00    +0.000 C 
ATOM     16  C   UNL     1      46.493   8.464  12.165  0.00  0.00    +0.000 C 
ATOM     17  C   UNL     1      45.548   9.444  11.438  0.00  0.00    +0.000 C 
ATOM     18  C   UNL     1      47.922   8.642  11.619  0.00  0.00    +0.000 C 
ENDBRANCH   1  16
BRANCH   3  19
ATOM     19  C   UNL     1      44.378   4.683   9.932  0.00  0.00    +0.000 C 
BRANCH  19  20
ATOM     20  C   UNL     1      45.253   3.808   9.075  0.00  0.00    +0.000 A 
ATOM     21  C   UNL     1      46.023   4.343   8.035  0.00  0.00    +0.000 A 
ATOM     22  C   UNL     1      46.702   3.497   7.165  0.00  0.00    +0.000 A 
ATOM     23  C   UNL     1      46.599   2.130   7.363  0.00  0.00    +0.000 A 
ATOM     24  N   UNL     1      45.894   1.576   8.370  0.00  0.00    +0.000 NA
ATOM     25  C   UNL     1      45.241   2.420   9.202  0.00  0.00    +0.000 A 
ENDBRANCH  19  20
ENDBRANCH   3  19
TORSDOF 4
ENDMDL
MODEL 2
REMARK VINA RESULT:    -6.884      2.709      6.252
REMARK INTER + INTRA:          -9.052
REMARK INTER:                  -8.346
REMARK INTRA:                  -0.706
REMARK UNBOUND:                -0.558
REMARK  Name = 
REMARK  7 active torsions:
REMARK  status: ('A' for Active; 'I' for Inactive)
REMARK    1  A    between atoms: C_1  and  C_2
REMARK    2  A    between atoms: C_2  and  C_3
REMARK    3  A    between atoms: C_2  and  C_4
REMARK    4  A    between atoms: C_2  and  C_5
REMARK    5  A    between atoms: N_7  and  C_8
REMARK    6  A    between atoms: C_8  and  C_9
REMARK    7  A    between atoms: C_18  and  C_19
REMARK                            x       y       z     vdW  Elec       q    Type
REMARK                         _______ _______ _______ _____ _____    ______ ____
ROOT
ATOM      1  C   UNL     1      48.171   6.614  13.683  0.00  0.00    +0.000 A 
ATOM      2  N   UNL     1      48.251   6.114  14.925  0.00  0.00    +0.000 NA
ATOM      3  N   UNL     1      47.328   5.139  14.968  0.00  0.00    +0.000 N 
ATOM      4  C   UNL     1      46.588   5.032  13.815  0.00  0.00    +0.000 A 
ATOM      5  C   UNL     1      45.483   4.239  13.473  0.00  0.00    +0.000 A 
ATOM      6  C   UNL     1      45.005   4.322  12.161  0.00  0.00    +0.000 A 
ATOM      7  C   UNL     1      45.607   5.167  11.223  0.00  0.00    +0.000 A 
ATOM      8  C   UNL     1      46.688   5.982  11.596  0.00  0.00    +0.000 A 
ATOM      9  C   UNL     1      47.173   5.928  12.921  0.00  0.00    +0.000 A 
ENDROOT
BRANCH   7  10
ATOM     10  C   UNL     1      45.089   5.140   9.829  0.00  0.00    +0.000 C 
ATOM     11  N   UNL     1      43.764   4.858   9.646  0.00  0.00    +0.000 N 
ATOM     12  O   UNL     1      45.824   5.337   8.865  0.00  0.00    +0.000 OA
ATOM     13  H   UNL     1      43.180   4.465  10.367  0.00  0.00    +0.000 HD
ATOM     14  H   UNL     1      43.458   4.758   8.685  0.00  0.00    +0.000 HD
ENDBRANCH   7  10
BRANCH   1  16
ATOM     15  C   UNL     1      49.757   7.549  11.926  0.00  0.00    +0.000 C 
ATOM     16  C   UNL     1      49.050   7.797  13.280  0.00  0.00    +0.000 C 
ATOM     17  C   UNL     1      50.155   8.031  14.333  0.00  0.00    +0.000 C 
ATOM     18  C   UNL     1      48.208   9.079  13.140  0.00  0.00    +0.000 C 
ENDBRANCH   1  16
BRANCH   3  19
ATOM     19  C   UNL     1      47.130   4.415  16.218  0.00  0.00    +0.000 C 
BRANCH  19  20
ATOM     20  C   UNL     1      48.310   3.573  16.625  0.00  0.00    +0.000 A 
ATOM     21  C   UNL     1      49.271   4.053  17.523  0.00  0.00    +0.000 A 
ATOM     22  C   UNL     1      50.427   3.317  17.765  0.00  0.00    +0.000 A 
ATOM     23  C   UNL     1      50.588   2.110  17.104  0.00  0.00    +0.000 A 
ATOM     24  N   UNL     1      49.672   1.599  16.257  0.00  0.00    +0.000 NA
ATOM     25  C   UNL     1      48.557   2.334  16.036  0.00  0.00    +0.000 A 
ENDBRANCH  19  20
ENDBRANCH   3  19
TORSDOF 4
ENDMDL
MODEL 3
REMARK VINA RESULT:    -6.516      3.020      5.283
REMARK INTER + INTRA:          -8.598
REMARK INTER:                  -7.825
REMARK INTRA:                  -0.772
REMARK UNBOUND:                -0.558
REMARK  Name = 
REMARK  7 active torsions:
REMARK  status: ('A' for Active; 'I' for Inactive)
REMARK    1  A    between atoms: C_1  and  C_2
REMARK    2  A    between atoms: C_2  and  C_3
REMARK    3  A    between atoms: C_2  and  C_4
REMARK    4  A    between atoms: C_2  and  C_5
REMARK    5  A    between atoms: N_7  and  C_8
REMARK    6  A    between atoms: C_8  and  C_9
REMARK    7  A    between atoms: C_18  and  C_19
REMARK                            x       y       z     vdW  Elec       q    Type
REMARK                         _______ _______ _______ _____ _____    ______ ____
ROOT
ATOM      1  C   UNL     1      47.594   4.541  15.675  0.00  0.00    +0.000 A 
ATOM      2  N   UNL     1      46.938   3.600  14.979  0.00  0.00    +0.000 NA
ATOM      3  N   UNL     1      46.747   4.137  13.762  0.00  0.00    +0.000 N 
ATOM      4  C   UNL     1      47.189   5.434  13.658  0.00  0.00    +0.000 A 
ATOM      5  C   UNL     1      47.099   6.383  12.629  0.00  0.00    +0.000 A 
ATOM      6  C   UNL     1      47.734   7.614  12.823  0.00  0.00    +0.000 A 
ATOM      7  C   UNL     1      48.433   7.890  14.002  0.00  0.00    +0.000 A 
ATOM      8  C   UNL     1      48.479   6.942  15.036  0.00  0.00    +0.000 A 
ATOM      9  C   UNL     1      47.827   5.700  14.869  0.00  0.00    +0.000 A 
ENDROOT
BRANCH   7  10
ATOM     10  C   UNL     1      49.147   9.192  14.099  0.00  0.00    +0.000 C 
ATOM     11  N   UNL     1      48.483  10.242  14.669  0.00  0.00    +0.000 N 
ATOM     12  O   UNL     1      50.284   9.337  13.659  0.00  0.00    +0.000 OA
ATOM     13  H   UNL     1      47.488  10.243  14.828  0.00  0.00    +0.000 HD
ATOM     14  H   UNL     1      48.957  11.137  14.642  0.00  0.00    +0.000 HD
ENDBRANCH   7  10
BRANCH   1  16
ATOM     15  C   UNL     1      49.461   4.420  17.400  0.00  0.00    +0.000 C 
ATOM     16  C   UNL     1      47.939   4.300  17.144  0.00  0.00    +0.000 C 
ATOM     17  C   UNL     1      47.518   2.876  17.569  0.00  0.00    +0.000 C 
ATOM     18  C   UNL     1      47.230   5.326  18.046  0.00  0.00    +0.000 C 
ENDBRANCH   1  16
BRANCH   3  19
ATOM     19  C   UNL     1      46.011   3.370  12.764  0.00  0.00    +0.000 C 
BRANCH  19  20
ATOM     20  C   UNL     1      44.719   4.012  12.334  0.00  0.00    +0.000 A 
ATOM     21  C   UNL     1      44.510   4.409  11.008  0.00  0.00    +0.000 A 
ATOM     22  C   UNL     1      43.372   5.134  10.670  0.00  0.00    +0.000 A 
ATOM     23  C   UNL     1      42.465   5.439  11.673  0.00  0.00    +0.000 A 
ATOM     24  N   UNL     1      42.615   5.050  12.954  0.00  0.00    +0.000 NA
ATOM     25  C   UNL     1      43.731   4.346  13.258  0.00  0.00    +0.000 A 
ENDBRANCH  19  20
ENDBRANCH   3  19
TORSDOF 4
ENDMDL
MODEL 4
REMARK VINA RESULT:    -6.513      2.978      6.757
REMARK INTER + INTRA:          -8.594
REMARK INTER:                  -7.968
REMARK INTRA:                  -0.626
REMARK UNBOUND:                -0.558
REMARK  Name = 
REMARK  7 active torsions:
REMARK  status: ('A' for Active; 'I' for Inactive)
REMARK    1  A    between atoms: C_1  and  C_2
REMARK    2  A    between atoms: C_2  and  C_3
REMARK    3  A    between atoms: C_2  and  C_4
REMARK    4  A    between atoms: C_2  and  C_5
REMARK    5  A    between atoms: N_7  and  C_8
REMARK    6  A    between atoms: C_8  and  C_9
REMARK    7  A    between atoms: C_18  and  C_19
REMARK                            x       y       z     vdW  Elec       q    Type
REMARK                         _______ _______ _______ _____ _____    ______ ____
ROOT
ATOM      1  C   UNL     1      44.834   4.895  12.376  0.00  0.00    +0.000 A 
ATOM      2  N   UNL     1      45.612   4.049  13.067  0.00  0.00    +0.000 NA
ATOM      3  N   UNL     1      46.562   4.822  13.620  0.00  0.00    +0.000 N 
ATOM      4  C   UNL     1      46.478   6.143  13.252  0.00  0.00    +0.000 A 
ATOM      5  C   UNL     1      47.303   7.248  13.507  0.00  0.00    +0.000 A 
ATOM      6  C   UNL     1      46.881   8.496  13.037  0.00  0.00    +0.000 A 
ATOM      7  C   UNL     1      45.679   8.637  12.336  0.00  0.00    +0.000 A 
ATOM      8  C   UNL     1      44.887   7.513  12.057  0.00  0.00    +0.000 A 
ATOM      9  C   UNL     1      45.304   6.240  12.506  0.00  0.00    +0.000 A 
ENDROOT
BRANCH   7  10
ATOM     10  C   UNL     1      45.263  10.009  11.938  0.00  0.00    +0.000 C 
ATOM     11  N   UNL     1      43.963  10.370  12.157  0.00  0.00    +0.000 N 
ATOM     12  O   UNL     1      46.047  10.790  11.404  0.00  0.00    +0.000 OA
ATOM     13  H   UNL     1      43.236   9.706  12.370  0.00  0.00    +0.000 HD
ATOM     14  H   UNL     1      43.685  11.275  11.796  0.00  0.00    +0.000 HD
ENDBRANCH   7  10
BRANCH   1  16
ATOM     15  C   UNL     1      43.945   4.429  10.038  0.00  0.00    +0.000 C 
ATOM     16  C   UNL     1      43.661   4.356  11.558  0.00  0.00    +0.000 C 
ATOM     17  C   UNL     1      42.390   5.191  11.823  0.00  0.00    +0.000 C 
ATOM     18  C   UNL     1      43.381   2.884  11.911  0.00  0.00    +0.000 C 
ENDBRANCH   1  16
BRANCH   3  19
ATOM     19  C   UNL     1      47.608   4.188  14.413  0.00  0.00    +0.000 C 
BRANCH  19  20
ATOM     20  C   UNL     1      47.658   4.660  15.842  0.00  0.00    +0.000 A 
ATOM     21  C   UNL     1      48.556   5.655  16.248  0.00  0.00    +0.000 A 
ATOM     22  C   UNL     1      48.687   5.965  17.598  0.00  0.00    +0.000 A 
ATOM     23  C   UNL     1      47.906   5.272  18.510  0.00  0.00    +0.000 A 
ATOM     24  N   UNL     1      47.009   4.331  18.157  0.00  0.00    +0.000 NA
ATOM     25  C   UNL     1      46.901   4.046  16.838  0.00  0.00    +0.000 A 
ENDBRANCH  19  20
ENDBRANCH   3  19
TORSDOF 4
ENDMDL
MODEL 5
REMARK VINA RESULT:    -6.236      2.753      4.210
REMARK INTER + INTRA:          -8.253
REMARK INTER:                  -7.448
REMARK INTRA:                  -0.805
REMARK UNBOUND:                -0.558
REMARK  Name = 
REMARK  7 active torsions:
REMARK  status: ('A' for Active; 'I' for Inactive)
REMARK    1  A    between atoms: C_1  and  C_2
REMARK    2  A    between atoms: C_2  and  C_3
REMARK    3  A    between atoms: C_2  and  C_4
REMARK    4  A    between atoms: C_2  and  C_5
REMARK    5  A    between atoms: N_7  and  C_8
REMARK    6  A    between atoms: C_8  and  C_9
REMARK    7  A    between atoms: C_18  and  C_19
REMARK                            x       y       z     vdW  Elec       q    Type
REMARK                         _______ _______ _______ _____ _____    ______ ____
ROOT
ATOM      1  C   UNL     1      48.268   6.396  14.593  0.00  0.00    +0.000 A 
ATOM      2  N   UNL     1      47.649   5.765  13.584  0.00  0.00    +0.000 NA
ATOM      3  N   UNL     1      47.141   4.648  14.131  0.00  0.00    +0.000 N 
ATOM      4  C   UNL     1      47.471   4.485  15.454  0.00  0.00    +0.000 A 
ATOM      5  C   UNL     1      47.243   3.440  16.362  0.00  0.00    +0.000 A 
ATOM      6  C   UNL     1      47.655   3.628  17.685  0.00  0.00    +0.000 A 
ATOM      7  C   UNL     1      48.274   4.815  18.090  0.00  0.00    +0.000 A 
ATOM      8  C   UNL     1      48.527   5.834  17.158  0.00  0.00    +0.000 A 
ATOM      9  C   UNL     1      48.137   5.656  15.811  0.00  0.00    +0.000 A 
ENDROOT
BRANCH   7  10
ATOM     10  C   UNL     1      48.611   4.968  19.531  0.00  0.00    +0.000 C 
ATOM     11  N   UNL     1      48.543   3.857  20.323  0.00  0.00    +0.000 N 
ATOM     12  O   UNL     1      48.916   6.058  20.008  0.00  0.00    +0.000 OA
ATOM     13  H   UNL     1      48.080   3.007  20.041  0.00  0.00    +0.000 HD
ATOM     14  H   UNL     1      48.691   4.007  21.315  0.00  0.00    +0.000 HD
ENDBRANCH   7  10
BRANCH   1  16
ATOM     15  C   UNL     1      50.489   7.617  14.814  0.00  0.00    +0.000 C 
ATOM     16  C   UNL     1      49.021   7.699  14.330  0.00  0.00    +0.000 C 
ATOM     17  C   UNL     1      48.358   8.867  15.090  0.00  0.00    +0.000 C 
ATOM     18  C   UNL     1      49.042   8.022  12.825  0.00  0.00    +0.000 C 
ENDBRANCH   1  16
BRANCH   3  19
ATOM     19  C   UNL     1      46.432   3.707  13.272  0.00  0.00    +0.000 C 
BRANCH  19  20
ATOM     20  C   UNL     1      45.244   4.304  12.566  0.00  0.00    +0.000 A 
ATOM     21  C   UNL     1      44.131   4.767  13.279  0.00  0.00    +0.000 A 
ATOM     22  C   UNL     1      42.988   5.173  12.598  0.00  0.00    +0.000 A 
ATOM     23  C   UNL     1      42.992   5.113  11.213  0.00  0.00    +0.000 A 
ATOM     24  N   UNL     1      44.053   4.703  10.490  0.00  0.00    +0.000 NA
ATOM     25  C   UNL     1      45.152   4.312  11.176  0.00  0.00    +0.000 A 
ENDBRANCH  19  20
ENDBRANCH   3  19
TORSDOF 4
ENDMDL
MODEL 6
REMARK VINA RESULT:    -6.173      3.336      6.574
REMARK INTER + INTRA:          -8.174
REMARK INTER:                  -7.705
REMARK INTRA:                  -0.469
REMARK UNBOUND:                -0.558
REMARK  Name = 
REMARK  7 active torsions:
REMARK  status: ('A' for Active; 'I' for Inactive)
REMARK    1  A    between atoms: C_1  and  C_2
REMARK    2  A    between atoms: C_2  and  C_3
REMARK    3  A    between atoms: C_2  and  C_4
REMARK    4  A    between atoms: C_2  and  C_5
REMARK    5  A    between atoms: N_7  and  C_8
REMARK    6  A    between atoms: C_8  and  C_9
REMARK    7  A    between atoms: C_18  and  C_19
REMARK                            x       y       z     vdW  Elec       q    Type
REMARK                         _______ _______ _______ _____ _____    ______ ____
ROOT
ATOM      1  C   UNL     1      46.157   5.032  13.511  0.00  0.00    +0.000 A 
ATOM      2  N   UNL     1      46.074   4.448  14.716  0.00  0.00    +0.000 NA
ATOM      3  N   UNL     1      47.082   4.977  15.430  0.00  0.00    +0.000 N 
ATOM      4  C   UNL     1      47.875   5.836  14.707  0.00  0.00    +0.000 A 
ATOM      5  C   UNL     1      49.063   6.513  15.020  0.00  0.00    +0.000 A 
ATOM      6  C   UNL     1      49.584   7.388  14.061  0.00  0.00    +0.000 A 
ATOM      7  C   UNL     1      48.944   7.581  12.833  0.00  0.00    +0.000 A 
ATOM      8  C   UNL     1      47.777   6.864  12.523  0.00  0.00    +0.000 A 
ATOM      9  C   UNL     1      47.245   5.960  13.470  0.00  0.00    +0.000 A 
ENDROOT
BRANCH   7  10
ATOM     10  C   UNL     1      49.519   8.586  11.899  0.00  0.00    +0.000 C 
ATOM     11  N   UNL     1      48.774   9.698  11.621  0.00  0.00    +0.000 N 
ATOM     12  O   UNL     1      50.613   8.419  11.367  0.00  0.00    +0.000 OA
ATOM     13  H   UNL     1      47.792   9.771  11.838  0.00  0.00    +0.000 HD
ATOM     14  H   UNL     1      49.149  10.321  10.915  0.00  0.00    +0.000 HD
ENDBRANCH   7  10
BRANCH   1  16
ATOM     15  C   UNL     1      45.506   5.357  11.073  0.00  0.00    +0.000 C 
ATOM     16  C   UNL     1      45.188   4.629  12.401  0.00  0.00    +0.000 C 
ATOM     17  C   UNL     1      43.741   5.001  12.788  0.00  0.00    +0.000 C 
ATOM     18  C   UNL     1      45.265   3.114  12.134  0.00  0.00    +0.000 C 
ENDBRANCH   1  16
BRANCH   3  19
ATOM     19  C   UNL     1      47.296   4.511  16.794  0.00  0.00    +0.000 C 
BRANCH  19  20
ATOM     20  C   UNL     1      48.477   3.590  16.944  0.00  0.00    +0.000 A 
ATOM     21  C   UNL     1      49.605   3.967  17.683  0.00  0.00    +0.000 A 
ATOM     22  C   UNL     1      50.740   3.163  17.679  0.00  0.00    +0.000 A 
ATOM     23  C   UNL     1      50.714   1.992  16.938  0.00  0.00    +0.000 A 
ATOM     24  N   UNL     1      49.638   1.579  16.240  0.00  0.00    +0.000 NA
ATOM     25  C   UNL     1      48.547   2.379  16.257  0.00  0.00    +0.000 A 
ENDBRANCH  19  20
ENDBRANCH   3  19
TORSDOF 4
ENDMDL
MODEL 7
REMARK VINA RESULT:    -6.072      2.358      5.177
REMARK INTER + INTRA:          -8.049
REMARK INTER:                  -7.251
REMARK INTRA:                  -0.799
REMARK UNBOUND:                -0.558
REMARK  Name = 
REMARK  7 active torsions:
REMARK  status: ('A' for Active; 'I' for Inactive)
REMARK    1  A    between atoms: C_1  and  C_2
REMARK    2  A    between atoms: C_2  and  C_3
REMARK    3  A    between atoms: C_2  and  C_4
REMARK    4  A    between atoms: C_2  and  C_5
REMARK    5  A    between atoms: N_7  and  C_8
REMARK    6  A    between atoms: C_8  and  C_9
REMARK    7  A    between atoms: C_18  and  C_19
REMARK                            x       y       z     vdW  Elec       q    Type
REMARK                         _______ _______ _______ _____ _____    ______ ____
ROOT
ATOM      1  C   UNL     1      45.551   5.453  12.409  0.00  0.00    +0.000 A 
ATOM      2  N   UNL     1      45.799   6.651  11.860  0.00  0.00    +0.000 NA
ATOM      3  N   UNL     1      46.786   7.178  12.604  0.00  0.00    +0.000 N 
ATOM      4  C   UNL     1      47.144   6.396  13.675  0.00  0.00    +0.000 A 
ATOM      5  C   UNL     1      48.034   6.602  14.740  0.00  0.00    +0.000 A 
ATOM      6  C   UNL     1      48.225   5.549  15.640  0.00  0.00    +0.000 A 
ATOM      7  C   UNL     1      47.552   4.333  15.486  0.00  0.00    +0.000 A 
ATOM      8  C   UNL     1      46.636   4.159  14.436  0.00  0.00    +0.000 A 
ATOM      9  C   UNL     1      46.414   5.217  13.527  0.00  0.00    +0.000 A 
ENDROOT
BRANCH   7  10
ATOM     10  C   UNL     1      47.869   3.236  16.440  0.00  0.00    +0.000 C 
ATOM     11  N   UNL     1      47.003   3.021  17.475  0.00  0.00    +0.000 N 
ATOM     12  O   UNL     1      48.887   2.558  16.326  0.00  0.00    +0.000 OA
ATOM     13  H   UNL     1      46.293   3.684  17.746  0.00  0.00    +0.000 HD
ATOM     14  H   UNL     1      47.287   2.329  18.159  0.00  0.00    +0.000 HD
ENDBRANCH   7  10
BRANCH   1  16
ATOM     15  C   UNL     1      44.979   3.238  11.295  0.00  0.00    +0.000 C 
ATOM     16  C   UNL     1      44.432   4.575  11.850  0.00  0.00    +0.000 C 
ATOM     17  C   UNL     1      43.717   5.292  10.685  0.00  0.00    +0.000 C 
ATOM     18  C   UNL     1      43.403   4.241  12.946  0.00  0.00    +0.000 C 
ENDBRANCH   1  16
BRANCH   3  19
ATOM     19  C   UNL     1      47.263   8.519  12.288  0.00  0.00    +0.000 C 
BRANCH  19  20
ATOM     20  C   UNL     1      48.753   8.601  12.084  0.00  0.00    +0.000 A 
ATOM     21  C   UNL     1      49.425   7.697  11.254  0.00  0.00    +0.000 A 
ATOM     22  C   UNL     1      50.815   7.700  11.202  0.00  0.00    +0.000 A 
ATOM     23  C   UNL     1      51.500   8.619  11.982  0.00  0.00    +0.000 A 
ATOM     24  N   UNL     1      50.889   9.526  12.770  0.00  0.00    +0.000 NA
ATOM     25  C   UNL     1      49.536   9.501  12.804  0.00  0.00    +0.000 A 
ENDBRANCH  19  20
ENDBRANCH   3  19
TORSDOF 4
ENDMDL
MODEL 8
REMARK VINA RESULT:    -5.909      3.451      6.730
REMARK INTER + INTRA:          -7.849
REMARK INTER:                  -7.150
REMARK INTRA:                  -0.699
REMARK UNBOUND:                -0.558
REMARK  Name = 
REMARK  7 active torsions:
REMARK  status: ('A' for Active; 'I' for Inactive)
REMARK    1  A    between atoms: C_1  and  C_2
REMARK    2  A    between atoms: C_2  and  C_3
REMARK    3  A    between atoms: C_2  and  C_4
REMARK    4  A    between atoms: C_2  and  C_5
REMARK    5  A    between atoms: N_7  and  C_8
REMARK    6  A    between atoms: C_8  and  C_9
REMARK    7  A    between atoms: C_18  and  C_19
REMARK                            x       y       z     vdW  Elec       q    Type
REMARK                         _______ _______ _______ _____ _____    ______ ____
ROOT
ATOM      1  C   UNL     1      45.340   5.631  12.120  0.00  0.00    +0.000 A 
ATOM      2  N   UNL     1      46.416   5.521  12.912  0.00  0.00    +0.000 NA
ATOM      3  N   UNL     1      46.756   6.785  13.218  0.00  0.00    +0.000 N 
ATOM      4  C   UNL     1      45.981   7.729  12.588  0.00  0.00    +0.000 A 
ATOM      5  C   UNL     1      46.050   9.129  12.542  0.00  0.00    +0.000 A 
ATOM      6  C   UNL     1      45.039   9.807  11.853  0.00  0.00    +0.000 A 
ATOM      7  C   UNL     1      43.996   9.114  11.230  0.00  0.00    +0.000 A 
ATOM      8  C   UNL     1      43.966   7.710  11.254  0.00  0.00    +0.000 A 
ATOM      9  C   UNL     1      44.989   7.005  11.928  0.00  0.00    +0.000 A 
ENDROOT
BRANCH   7  10
ATOM     10  C   UNL     1      42.918   9.911  10.585  0.00  0.00    +0.000 C 
ATOM     11  N   UNL     1      41.624   9.615  10.912  0.00  0.00    +0.000 N 
ATOM     12  O   UNL     1      43.170  10.788   9.763  0.00  0.00    +0.000 OA
ATOM     13  H   UNL     1      41.356   8.769  11.388  0.00  0.00    +0.000 HD
ATOM     14  H   UNL     1      40.909  10.111  10.393  0.00  0.00    +0.000 HD
ENDBRANCH   7  10
BRANCH   1  16
ATOM     15  C   UNL     1      43.176   4.336  11.782  0.00  0.00    +0.000 C 
ATOM     16  C   UNL     1      44.701   4.378  11.523  0.00  0.00    +0.000 C 
ATOM     17  C   UNL     1      45.305   3.109  12.162  0.00  0.00    +0.000 C 
ATOM     18  C   UNL     1      44.919   4.328  10.000  0.00  0.00    +0.000 C 
ENDBRANCH   1  16
BRANCH   3  19
ATOM     19  C   UNL     1      47.934   7.014  14.045  0.00  0.00    +0.000 C 
BRANCH  19  20
ATOM     20  C   UNL     1      49.096   7.610  13.297  0.00  0.00    +0.000 A 
ATOM     21  C   UNL     1      49.328   7.305  11.950  0.00  0.00    +0.000 A 
ATOM     22  C   UNL     1      50.490   7.746  11.327  0.00  0.00    +0.000 A 
ATOM     23  C   UNL     1      51.391   8.494  12.069  0.00  0.00    +0.000 A 
ATOM     24  N   UNL     1      51.190   8.835  13.357  0.00  0.00    +0.000 NA
ATOM     25  C   UNL     1      50.052   8.392  13.942  0.00  0.00    +0.000 A 
ENDBRANCH  19  20
ENDBRANCH   3  19
TORSDOF 4
ENDMDL
MODEL 9
REMARK VINA RESULT:    -5.848      3.367      7.270
REMARK INTER + INTRA:          -7.774
REMARK INTER:                  -6.892
REMARK INTRA:                  -0.882
REMARK UNBOUND:                -0.558
REMARK  Name = 
REMARK  7 active torsions:
REMARK  status: ('A' for Active; 'I' for Inactive)
REMARK    1  A    between atoms: C_1  and  C_2
REMARK    2  A    between atoms: C_2  and  C_3
REMARK    3  A    between atoms: C_2  and  C_4
REMARK    4  A    between atoms: C_2  and  C_5
REMARK    5  A    between atoms: N_7  and  C_8
REMARK    6  A    between atoms: C_8  and  C_9
REMARK    7  A    between atoms: C_18  and  C_19
REMARK                            x       y       z     vdW  Elec       q    Type
REMARK                         _______ _______ _______ _____ _____    ______ ____
ROOT
ATOM      1  C   UNL     1      45.671   5.780  12.460  0.00  0.00    +0.000 A 
ATOM      2  N   UNL     1      46.822   5.502  13.091  0.00  0.00    +0.000 NA
ATOM      3  N   UNL     1      47.408   6.695  13.289  0.00  0.00    +0.000 N 
ATOM      4  C   UNL     1      46.715   7.745  12.738  0.00  0.00    +0.000 A 
ATOM      5  C   UNL     1      47.008   9.112  12.622  0.00  0.00    +0.000 A 
ATOM      6  C   UNL     1      46.031   9.940  12.059  0.00  0.00    +0.000 A 
ATOM      7  C   UNL     1      44.806   9.424  11.625  0.00  0.00    +0.000 A 
ATOM      8  C   UNL     1      44.547   8.047  11.714  0.00  0.00    +0.000 A 
ATOM      9  C   UNL     1      45.528   7.190  12.261  0.00  0.00    +0.000 A 
ENDROOT
BRANCH   7  10
ATOM     10  C   UNL     1      43.790  10.381  11.109  0.00  0.00    +0.000 C 
ATOM     11  N   UNL     1      42.808  10.791  11.966  0.00  0.00    +0.000 N 
ATOM     12  O   UNL     1      43.809  10.775   9.946  0.00  0.00    +0.000 OA
ATOM     13  H   UNL     1      42.611  10.328  12.840  0.00  0.00    +0.000 HD
ATOM     14  H   UNL     1      42.080  11.371  11.565  0.00  0.00    +0.000 HD
ENDBRANCH   7  10
BRANCH   1  16
ATOM     15  C   UNL     1      43.370   4.725  12.711  0.00  0.00    +0.000 C 
ATOM     16  C   UNL     1      44.751   4.643  12.017  0.00  0.00    +0.000 C 
ATOM     17  C   UNL     1      45.366   3.277  12.389  0.00  0.00    +0.000 C 
ATOM     18  C   UNL     1      44.515   4.694  10.497  0.00  0.00    +0.000 C 
ENDBRANCH   1  16
BRANCH   3  19
ATOM     19  C   UNL     1      48.719   6.735  13.926  0.00  0.00    +0.000 C 
BRANCH  19  20
ATOM     20  C   UNL     1      48.666   6.977  15.410  0.00  0.00    +0.000 A 
ATOM     21  C   UNL     1      48.724   8.272  15.939  0.00  0.00    +0.000 A 
ATOM     22  C   UNL     1      48.826   8.458  17.314  0.00  0.00    +0.000 A 
ATOM     23  C   UNL     1      48.859   7.338  18.129  0.00  0.00    +0.000 A 
ATOM     24  N   UNL     1      48.774   6.077  17.661  0.00  0.00    +0.000 NA
ATOM     25  C   UNL     1      48.678   5.921  16.320  0.00  0.00    +0.000 A 
ENDBRANCH  19  20
ENDBRANCH   3  19
TORSDOF 4
ENDMDL
