MODEL 1
REMARK VINA RESULT:    -8.457      0.000      0.000
REMARK INTER + INTRA:         -11.476
REMARK INTER:                 -10.929
REMARK INTRA:                  -0.547
REMARK UNBOUND:                -0.547
REMARK  Name = 
REMARK  6 active torsions:
REMARK  status: ('A' for Active; 'I' for Inactive)
REMARK    1  A    between atoms: C_1  and  C_2
REMARK    2  A    between atoms: C_2  and  C_3
REMARK    3  A    between atoms: C_7  and  C_8
REMARK    4  A    between atoms: C_8  and  C_9
REMARK    5  A    between atoms: C_9  and  N_10
REMARK    6  A    between atoms: C_14  and  C_15
REMARK                            x       y       z     vdW  Elec       q    Type
REMARK                         _______ _______ _______ _____ _____    ______ ____
ROOT
ATOM      1  C   UNL     1      43.082   4.508  10.985  0.00  0.00    +0.000 C 
ENDROOT
BRANCH   1   2
ATOM      2  N   UNL     1      43.907   5.033   9.891  0.00  0.00    +0.000 N 
ATOM      3  C   UNL     1      44.689   4.032   9.274  0.00  0.00    +0.000 A 
ATOM      4  C   UNL     1      45.521   4.379   8.216  0.00  0.00    +0.000 A 
ATOM      5  C   UNL     1      46.282   3.387   7.587  0.00  0.00    +0.000 A 
ATOM      6  C   UNL     1      46.200   2.065   8.025  0.00  0.00    +0.000 A 
ATOM      7  C   UNL     1      45.340   1.809   9.076  0.00  0.00    +0.000 A 
ATOM      8  N   UNL     1      44.592   2.755   9.697  0.00  0.00    +0.000 NA
ATOM      9  H   UNL     1      44.520   5.786  10.192  0.00  0.00    +0.000 HD
BRANCH   6  10
ATOM     10  C   UNL     1      47.010   1.013   7.363  0.00  0.00    +0.000 C 
ATOM     11  N   UNL     1      46.760  -0.300   7.651  0.00  0.00    +0.000 N 
ATOM     12  O   UNL     1      47.899   1.309   6.572  0.00  0.00    +0.000 OA
ATOM     13  H   UNL     1      46.066  -0.651   8.293  0.00  0.00    +0.000 HD
ATOM     14  H   UNL     1      47.341  -0.982   7.181  0.00  0.00    +0.000 HD
ENDBRANCH   6  10
ENDBRANCH   1   2
BRANCH   1  15
ATOM     15  C   UNL     1      43.262   5.323  12.270  0.00  0.00    +0.000 C 
BRANCH  15  20
ATOM     16  C   UNL     1      46.774   6.712  12.928  0.00  0.00    +0.000 A 
ATOM     17  C   UNL     1      47.360   5.592  13.553  0.00  0.00    +0.000 A 
ATOM     18  C   UNL     1      46.653   4.401  13.729  0.00  0.00    +0.000 A 
ATOM     19  C   UNL     1      45.336   4.300  13.295  0.00  0.00    +0.000 A 
ATOM     20  C   UNL     1      44.725   5.383  12.657  0.00  0.00    +0.000 A 
ATOM     21  C   UNL     1      45.455   6.573  12.465  0.00  0.00    +0.000 A 
BRANCH  16  23
ATOM     22  C   UNL     1      46.544   9.185  12.661  0.00  0.00    +0.000 C 
ATOM     23  C   UNL     1      47.552   8.039  12.866  0.00  0.00    +0.000 C 
ATOM     24  C   UNL     1      48.408   8.245  14.121  0.00  0.00    +0.000 C 
ATOM     25  C   UNL     1      49.785   7.717  13.745  0.00  0.00    +0.000 C 
ATOM     26  O   UNL     1      49.809   7.512  12.328  0.00  0.00    +0.000 OA
ATOM     27  C   UNL     1      48.643   8.142  11.787  0.00  0.00    +0.000 C 
ENDBRANCH  16  23
ENDBRANCH  15  20
ENDBRANCH   1  15
TORSDOF 5
ENDMDL
MODEL 2
REMARK VINA RESULT:    -8.201      1.309      1.775
REMARK INTER + INTRA:         -11.145
REMARK INTER:                 -10.386
REMARK INTRA:                  -0.760
REMARK UNBOUND:                -0.547
REMARK  Name = 
REMARK  6 active torsions:
REMARK  status: ('A' for Active; 'I' for Inactive)
REMARK    1  A    between atoms: C_1  and  C_2
REMARK    2  A    between atoms: C_2  and  C_3
REMARK    3  A    between atoms: C_7  and  C_8
REMARK    4  A    between atoms: C_8  and  C_9
REMARK    5  A    between atoms: C_9  and  N_10
REMARK    6  A    between atoms: C_14  and  C_15
REMARK                            x       y       z     vdW  Elec       q    Type
REMARK                         _______ _______ _______ _____ _____    ______ ____
ROOT
ATOM      1  C   UNL     1      43.419   5.188  10.636  0.00  0.00    +0.000 C 
ENDROOT
BRANCH   1   2
ATOM      2  N   UNL     1      43.641   3.740  10.534  0.00  0.00    +0.000 N 
ATOM      3  C   UNL     1      44.586   3.406   9.539  0.00  0.00    +0.000 A 
ATOM      4  C   UNL     1      44.903   2.070   9.328  0.00  0.00    +0.000 A 
ATOM      5  C   UNL     1      45.854   1.734   8.357  0.00  0.00    +0.000 A 
ATOM      6  C   UNL     1      46.473   2.740   7.613  0.00  0.00    +0.000 A 
ATOM      7  C   UNL     1      46.104   4.041   7.896  0.00  0.00    +0.000 A 
ATOM      8  N   UNL     1      45.187   4.387   8.834  0.00  0.00    +0.000 NA
ATOM      9  H   UNL     1      42.783   3.226  10.354  0.00  0.00    +0.000 HD
BRANCH   6  10
ATOM     10  C   UNL     1      47.476   2.386   6.580  0.00  0.00    +0.000 C 
ATOM     11  N   UNL     1      47.453   3.037   5.378  0.00  0.00    +0.000 N 
ATOM     12  O   UNL     1      48.317   1.518   6.791  0.00  0.00    +0.000 OA
ATOM     13  H   UNL     1      46.801   3.753   5.097  0.00  0.00    +0.000 HD
ATOM     14  H   UNL     1      48.152   2.759   4.702  0.00  0.00    +0.000 HD
ENDBRANCH   6  10
ENDBRANCH   1   2
BRANCH   1  15
ATOM     15  C   UNL     1      43.554   5.678  12.082  0.00  0.00    +0.000 C 
BRANCH  15  20
ATOM     16  C   UNL     1      47.211   6.429  12.957  0.00  0.00    +0.000 A 
ATOM     17  C   UNL     1      47.536   5.249  13.656  0.00  0.00    +0.000 A 
ATOM     18  C   UNL     1      46.610   4.216  13.815  0.00  0.00    +0.000 A 
ATOM     19  C   UNL     1      45.329   4.338  13.287  0.00  0.00    +0.000 A 
ATOM     20  C   UNL     1      44.974   5.486  12.574  0.00  0.00    +0.000 A 
ATOM     21  C   UNL     1      45.923   6.513  12.402  0.00  0.00    +0.000 A 
BRANCH  16  23
ATOM     22  C   UNL     1      48.687   7.774  11.458  0.00  0.00    +0.000 C 
ATOM     23  C   UNL     1      48.223   7.588  12.914  0.00  0.00    +0.000 C 
ATOM     24  C   UNL     1      47.626   8.874  13.495  0.00  0.00    +0.000 C 
ATOM     25  C   UNL     1      48.066   8.884  14.953  0.00  0.00    +0.000 C 
ATOM     26  O   UNL     1      49.066   7.874  15.120  0.00  0.00    +0.000 OA
ATOM     27  C   UNL     1      49.463   7.447  13.812  0.00  0.00    +0.000 C 
ENDBRANCH  16  23
ENDBRANCH  15  20
ENDBRANCH   1  15
TORSDOF 5
ENDMDL
MODEL 3
REMARK VINA RESULT:    -7.673      1.496      2.347
REMARK INTER + INTRA:         -10.463
REMARK INTER:                  -9.775
REMARK INTRA:                  -0.688
REMARK UNBOUND:                -0.547
REMARK  Name = 
REMARK  6 active torsions:
REMARK  status: ('A' for Active; 'I' for Inactive)
REMARK    1  A    between atoms: C_1  and  C_2
REMARK    2  A    between atoms: C_2  and  C_3
REMARK    3  A    between atoms: C_7  and  C_8
REMARK    4  A    between atoms: C_8  and  C_9
REMARK    5  A    between atoms: C_9  and  N_10
REMARK    6  A    between atoms: C_14  and  C_15
REMARK                            x       y       z     vdW  Elec       q    Type
REMARK                         _______ _______ _______ _____ _____    ______ ____
ROOT
ATOM      1  C   UNL     1      43.540   4.605  10.905  0.00  0.00    +0.000 C 
ENDROOT
BRANCH   1   2
ATOM      2  N   UNL     1      43.887   3.210  10.612  0.00  0.00    +0.000 N 
ATOM      3  C   UNL     1      44.748   3.088   9.499  0.00  0.00    +0.000 A 
ATOM      4  C   UNL     1      45.168   1.824   9.102  0.00  0.00    +0.000 A 
ATOM      5  C   UNL     1      46.037   1.700   8.012  0.00  0.00    +0.000 A 
ATOM      6  C   UNL     1      46.473   2.840   7.337  0.00  0.00    +0.000 A 
ATOM      7  C   UNL     1      46.013   4.056   7.805  0.00  0.00    +0.000 A 
ATOM      8  N   UNL     1      45.173   4.198   8.861  0.00  0.00    +0.000 NA
ATOM      9  H   UNL     1      43.069   2.628  10.456  0.00  0.00    +0.000 HD
BRANCH   6  10
ATOM     10  C   UNL     1      47.390   2.710   6.179  0.00  0.00    +0.000 C 
ATOM     11  N   UNL     1      48.687   2.333   6.394  0.00  0.00    +0.000 N 
ATOM     12  O   UNL     1      47.001   2.941   5.039  0.00  0.00    +0.000 OA
ATOM     13  H   UNL     1      49.113   2.134   7.287  0.00  0.00    +0.000 HD
ATOM     14  H   UNL     1      49.278   2.263   5.576  0.00  0.00    +0.000 HD
ENDBRANCH   6  10
ENDBRANCH   1   2
BRANCH   1  15
ATOM     15  C   UNL     1      44.066   5.042  12.276  0.00  0.00    +0.000 C 
BRANCH  15  20
ATOM     16  C   UNL     1      46.699   7.823  12.439  0.00  0.00    +0.000 A 
ATOM     17  C   UNL     1      45.975   8.873  11.840  0.00  0.00    +0.000 A 
ATOM     18  C   UNL     1      44.654   8.703  11.422  0.00  0.00    +0.000 A 
ATOM     19  C   UNL     1      44.023   7.474  11.582  0.00  0.00    +0.000 A 
ATOM     20  C   UNL     1      44.703   6.413  12.186  0.00  0.00    +0.000 A 
ATOM     21  C   UNL     1      46.029   6.602  12.623  0.00  0.00    +0.000 A 
BRANCH  16  23
ATOM     22  C   UNL     1      48.843   8.811  11.620  0.00  0.00    +0.000 C 
ATOM     23  C   UNL     1      48.190   8.023  12.771  0.00  0.00    +0.000 C 
ATOM     24  C   UNL     1      48.373   8.722  14.122  0.00  0.00    +0.000 C 
ATOM     25  C   UNL     1      48.565   7.592  15.123  0.00  0.00    +0.000 C 
ATOM     26  O   UNL     1      48.780   6.382  14.388  0.00  0.00    +0.000 OA
ATOM     27  C   UNL     1      49.011   6.748  13.023  0.00  0.00    +0.000 C 
ENDBRANCH  16  23
ENDBRANCH  15  20
ENDBRANCH   1  15
TORSDOF 5
ENDMDL
MODEL 4
REMARK VINA RESULT:    -6.860      4.014      7.272
REMARK INTER + INTRA:          -9.413
REMARK INTER:                  -8.357
REMARK INTRA:                  -1.056
REMARK UNBOUND:                -0.547
REMARK  Name = 
REMARK  6 active torsions:
REMARK  status: ('A' for Active; 'I' for Inactive)
REMARK    1  A    between atoms: C_1  and  C_2
REMARK    2  A    between atoms: C_2  and  C_3
REMARK    3  A    between atoms: C_7  and  C_8
REMARK    4  A    between atoms: C_8  and  C_9
REMARK    5  A    between atoms: C_9  and  N_10
REMARK    6  A    between atoms: C_14  and  C_15
REMARK                            x       y       z     vdW  Elec       q    Type
REMARK                         _______ _______ _______ _____ _____    ______ ____
ROOT
ATOM      1  C   UNL     1      49.376   7.600  12.955  0.00  0.00    +0.000 C 
ENDROOT
BRANCH   1   2
ATOM      2  N   UNL     1      49.938   7.563  14.311  0.00  0.00    +0.000 N 
ATOM      3  C   UNL     1      49.303   6.607  15.134  0.00  0.00    +0.000 A 
ATOM      4  C   UNL     1      49.731   6.453  16.447  0.00  0.00    +0.000 A 
ATOM      5  C   UNL     1      49.119   5.493  17.261  0.00  0.00    +0.000 A 
ATOM      6  C   UNL     1      48.091   4.700  16.748  0.00  0.00    +0.000 A 
ATOM      7  C   UNL     1      47.736   4.914  15.430  0.00  0.00    +0.000 A 
ATOM      8  N   UNL     1      48.319   5.838  14.624  0.00  0.00    +0.000 NA
ATOM      9  H   UNL     1      49.900   8.467  14.773  0.00  0.00    +0.000 HD
BRANCH   6  10
ATOM     10  C   UNL     1      47.438   3.686  17.611  0.00  0.00    +0.000 C 
ATOM     11  N   UNL     1      47.998   3.380  18.820  0.00  0.00    +0.000 N 
ATOM     12  O   UNL     1      46.412   3.119  17.249  0.00  0.00    +0.000 OA
ATOM     13  H   UNL     1      48.842   3.773  19.207  0.00  0.00    +0.000 HD
ATOM     14  H   UNL     1      47.521   2.678  19.372  0.00  0.00    +0.000 HD
ENDBRANCH   6  10
ENDBRANCH   1   2
BRANCH   1  15
ATOM     15  C   UNL     1      48.645   8.919  12.683  0.00  0.00    +0.000 C 
BRANCH  15  20
ATOM     16  C   UNL     1      45.551   7.034  11.429  0.00  0.00    +0.000 A 
ATOM     17  C   UNL     1      44.608   8.082  11.450  0.00  0.00    +0.000 A 
ATOM     18  C   UNL     1      44.965   9.378  11.828  0.00  0.00    +0.000 A 
ATOM     19  C   UNL     1      46.274   9.660  12.205  0.00  0.00    +0.000 A 
ATOM     20  C   UNL     1      47.241   8.652  12.181  0.00  0.00    +0.000 A 
ATOM     21  C   UNL     1      46.874   7.353  11.778  0.00  0.00    +0.000 A 
BRANCH  16  23
ATOM     22  C   UNL     1      45.585   5.213   9.720  0.00  0.00    +0.000 C 
ATOM     23  C   UNL     1      45.084   5.599  11.123  0.00  0.00    +0.000 C 
ATOM     24  C   UNL     1      45.563   4.615  12.196  0.00  0.00    +0.000 C 
ATOM     25  C   UNL     1      44.402   4.510  13.175  0.00  0.00    +0.000 C 
ATOM     26  O   UNL     1      43.259   5.126  12.574  0.00  0.00    +0.000 OA
ATOM     27  C   UNL     1      43.569   5.344  11.193  0.00  0.00    +0.000 C 
ENDBRANCH  16  23
ENDBRANCH  15  20
ENDBRANCH   1  15
TORSDOF 5
ENDMDL
MODEL 5
REMARK VINA RESULT:    -6.716      5.199      6.701
REMARK INTER + INTRA:          -9.226
REMARK INTER:                  -8.627
REMARK INTRA:                  -0.599
REMARK UNBOUND:                -0.547
REMARK  Name = 
REMARK  6 active torsions:
REMARK  status: ('A' for Active; 'I' for Inactive)
REMARK    1  A    between atoms: C_1  and  C_2
REMARK    2  A    between atoms: C_2  and  C_3
REMARK    3  A    between atoms: C_7  and  C_8
REMARK    4  A    between atoms: C_8  and  C_9
REMARK    5  A    between atoms: C_9  and  N_10
REMARK    6  A    between atoms: C_14  and  C_15
REMARK                            x       y       z     vdW  Elec       q    Type
REMARK                         _______ _______ _______ _____ _____    ______ ____
ROOT
ATOM      1  C   UNL     1      47.155   4.058  15.935  0.00  0.00    +0.000 C 
ENDROOT
BRANCH   1   2
ATOM      2  N   UNL     1      47.112   5.194  15.006  0.00  0.00    +0.000 N 
ATOM      3  C   UNL     1      46.473   4.875  13.788  0.00  0.00    +0.000 A 
ATOM      4  C   UNL     1      46.352   5.853  12.809  0.00  0.00    +0.000 A 
ATOM      5  C   UNL     1      45.702   5.548  11.608  0.00  0.00    +0.000 A 
ATOM      6  C   UNL     1      45.181   4.269  11.405  0.00  0.00    +0.000 A 
ATOM      7  C   UNL     1      45.338   3.361  12.435  0.00  0.00    +0.000 A 
ATOM      8  N   UNL     1      45.962   3.639  13.607  0.00  0.00    +0.000 NA
ATOM      9  H   UNL     1      48.035   5.566  14.802  0.00  0.00    +0.000 HD
BRANCH   6  10
ATOM     10  C   UNL     1      44.496   3.941  10.131  0.00  0.00    +0.000 C 
ATOM     11  N   UNL     1      44.680   4.755   9.048  0.00  0.00    +0.000 N 
ATOM     12  O   UNL     1      43.768   2.959  10.043  0.00  0.00    +0.000 OA
ATOM     13  H   UNL     1      45.243   5.591   9.015  0.00  0.00    +0.000 HD
ATOM     14  H   UNL     1      44.189   4.496   8.202  0.00  0.00    +0.000 HD
ENDBRANCH   6  10
ENDBRANCH   1   2
BRANCH   1  15
ATOM     15  C   UNL     1      47.869   4.423  17.241  0.00  0.00    +0.000 C 
BRANCH  15  20
ATOM     16  C   UNL     1      51.605   3.902  17.924  0.00  0.00    +0.000 A 
ATOM     17  C   UNL     1      51.715   2.531  17.617  0.00  0.00    +0.000 A 
ATOM     18  C   UNL     1      50.618   1.793  17.167  0.00  0.00    +0.000 A 
ATOM     19  C   UNL     1      49.377   2.405  17.020  0.00  0.00    +0.000 A 
ATOM     20  C   UNL     1      49.232   3.767  17.299  0.00  0.00    +0.000 A 
ATOM     21  C   UNL     1      50.351   4.506  17.732  0.00  0.00    +0.000 A 
BRANCH  16  23
ATOM     22  C   UNL     1      53.398   5.579  17.460  0.00  0.00    +0.000 C 
ATOM     23  C   UNL     1      52.811   4.642  18.532  0.00  0.00    +0.000 C 
ATOM     24  C   UNL     1      52.418   5.401  19.804  0.00  0.00    +0.000 C 
ATOM     25  C   UNL     1      52.753   4.450  20.944  0.00  0.00    +0.000 C 
ATOM     26  O   UNL     1      53.541   3.380  20.411  0.00  0.00    +0.000 OA
ATOM     27  C   UNL     1      53.941   3.763  19.091  0.00  0.00    +0.000 C 
ENDBRANCH  16  23
ENDBRANCH  15  20
ENDBRANCH   1  15
TORSDOF 5
ENDMDL
MODEL 6
REMARK VINA RESULT:    -6.705      3.503      5.751
REMARK INTER + INTRA:          -9.212
REMARK INTER:                  -8.293
REMARK INTRA:                  -0.919
REMARK UNBOUND:                -0.547
REMARK  Name = 
REMARK  6 active torsions:
REMARK  status: ('A' for Active; 'I' for Inactive)
REMARK    1  A    between atoms: C_1  and  C_2
REMARK    2  A    between atoms: C_2  and  C_3
REMARK    3  A    between atoms: C_7  and  C_8
REMARK    4  A    between atoms: C_8  and  C_9
REMARK    5  A    between atoms: C_9  and  N_10
REMARK    6  A    between atoms: C_14  and  C_15
REMARK                            x       y       z     vdW  Elec       q    Type
REMARK                         _______ _______ _______ _____ _____    ______ ____
ROOT
ATOM      1  C   UNL     1      47.753   7.879  13.892  0.00  0.00    +0.000 C 
ENDROOT
BRANCH   1   2
ATOM      2  N   UNL     1      47.230   7.827  12.522  0.00  0.00    +0.000 N 
ATOM      3  C   UNL     1      46.453   6.672  12.282  0.00  0.00    +0.000 A 
ATOM      4  C   UNL     1      45.885   6.486  11.028  0.00  0.00    +0.000 A 
ATOM      5  C   UNL     1      45.098   5.353  10.791  0.00  0.00    +0.000 A 
ATOM      6  C   UNL     1      44.890   4.425  11.812  0.00  0.00    +0.000 A 
ATOM      7  C   UNL     1      45.484   4.695  13.030  0.00  0.00    +0.000 A 
ATOM      8  N   UNL     1      46.248   5.788  13.280  0.00  0.00    +0.000 NA
ATOM      9  H   UNL     1      47.964   7.877  11.821  0.00  0.00    +0.000 HD
BRANCH   6  10
ATOM     10  C   UNL     1      44.060   3.222  11.562  0.00  0.00    +0.000 C 
ATOM     11  N   UNL     1      43.751   2.397  12.607  0.00  0.00    +0.000 N 
ATOM     12  O   UNL     1      43.657   2.958  10.434  0.00  0.00    +0.000 OA
ATOM     13  H   UNL     1      44.040   2.510  13.567  0.00  0.00    +0.000 HD
ATOM     14  H   UNL     1      43.188   1.585  12.389  0.00  0.00    +0.000 HD
ENDBRANCH   6  10
ENDBRANCH   1   2
BRANCH   1  15
ATOM     15  C   UNL     1      49.280   8.013  13.908  0.00  0.00    +0.000 C 
BRANCH  15  20
ATOM     16  C   UNL     1      49.588   5.630  16.895  0.00  0.00    +0.000 A 
ATOM     17  C   UNL     1      50.958   5.787  17.186  0.00  0.00    +0.000 A 
ATOM     18  C   UNL     1      51.762   6.667  16.459  0.00  0.00    +0.000 A 
ATOM     19  C   UNL     1      51.220   7.407  15.414  0.00  0.00    +0.000 A 
ATOM     20  C   UNL     1      49.862   7.291  15.105  0.00  0.00    +0.000 A 
ATOM     21  C   UNL     1      49.055   6.416  15.859  0.00  0.00    +0.000 A 
BRANCH  16  23
ATOM     22  C   UNL     1      48.654   4.981  19.119  0.00  0.00    +0.000 C 
ATOM     23  C   UNL     1      48.771   4.560  17.643  0.00  0.00    +0.000 C 
ATOM     24  C   UNL     1      47.398   4.349  16.995  0.00  0.00    +0.000 C 
ATOM     25  C   UNL     1      47.590   3.173  16.048  0.00  0.00    +0.000 C 
ATOM     26  O   UNL     1      48.855   2.570  16.343  0.00  0.00    +0.000 OA
ATOM     27  C   UNL     1      49.312   3.122  17.582  0.00  0.00    +0.000 C 
ENDBRANCH  16  23
ENDBRANCH  15  20
ENDBRANCH   1  15
TORSDOF 5
ENDMDL
MODEL 7
REMARK VINA RESULT:    -6.380      4.914      8.259
REMARK INTER + INTRA:          -8.792
REMARK INTER:                  -8.028
REMARK INTRA:                  -0.764
REMARK UNBOUND:                -0.547
REMARK  Name = 
REMARK  6 active torsions:
REMARK  status: ('A' for Active; 'I' for Inactive)
REMARK    1  A    between atoms: C_1  and  C_2
REMARK    2  A    between atoms: C_2  and  C_3
REMARK    3  A    between atoms: C_7  and  C_8
REMARK    4  A    between atoms: C_8  and  C_9
REMARK    5  A    between atoms: C_9  and  N_10
REMARK    6  A    between atoms: C_14  and  C_15
REMARK                            x       y       z     vdW  Elec       q    Type
REMARK                         _______ _______ _______ _____ _____    ______ ____
ROOT
ATOM      1  C   UNL     1      48.826   7.425  14.279  0.00  0.00    +0.000 C 
ENDROOT
BRANCH   1   2
ATOM      2  N   UNL     1      48.122   6.693  15.339  0.00  0.00    +0.000 N 
ATOM      3  C   UNL     1      49.006   6.099  16.266  0.00  0.00    +0.000 A 
ATOM      4  C   UNL     1      48.484   5.374  17.330  0.00  0.00    +0.000 A 
ATOM      5  C   UNL     1      49.356   4.799  18.263  0.00  0.00    +0.000 A 
ATOM      6  C   UNL     1      50.734   4.959  18.117  0.00  0.00    +0.000 A 
ATOM      7  C   UNL     1      51.164   5.703  17.035  0.00  0.00    +0.000 A 
ATOM      8  N   UNL     1      50.337   6.270  16.122  0.00  0.00    +0.000 NA
ATOM      9  H   UNL     1      47.503   5.976  14.973  0.00  0.00    +0.000 HD
BRANCH   6  10
ATOM     10  C   UNL     1      51.659   4.346  19.101  0.00  0.00    +0.000 C 
ATOM     11  N   UNL     1      51.348   4.401  20.431  0.00  0.00    +0.000 N 
ATOM     12  O   UNL     1      52.695   3.801  18.736  0.00  0.00    +0.000 OA
ATOM     13  H   UNL     1      50.534   4.835  20.839  0.00  0.00    +0.000 HD
ATOM     14  H   UNL     1      52.011   3.976  21.067  0.00  0.00    +0.000 HD
ENDBRANCH   6  10
ENDBRANCH   1   2
BRANCH   1  15
ATOM     15  C   UNL     1      48.679   6.731  12.921  0.00  0.00    +0.000 C 
BRANCH  15  20
ATOM     16  C   UNL     1      45.167   6.146  11.498  0.00  0.00    +0.000 A 
ATOM     17  C   UNL     1      44.710   7.477  11.436  0.00  0.00    +0.000 A 
ATOM     18  C   UNL     1      45.523   8.547  11.812  0.00  0.00    +0.000 A 
ATOM     19  C   UNL     1      46.816   8.314  12.270  0.00  0.00    +0.000 A 
ATOM     20  C   UNL     1      47.312   7.009  12.331  0.00  0.00    +0.000 A 
ATOM     21  C   UNL     1      46.489   5.939  11.928  0.00  0.00    +0.000 A 
BRANCH  16  23
ATOM     22  C   UNL     1      44.380   4.579   9.718  0.00  0.00    +0.000 C 
ATOM     23  C   UNL     1      44.193   4.993  11.189  0.00  0.00    +0.000 C 
ATOM     24  C   UNL     1      44.398   3.815  12.148  0.00  0.00    +0.000 C 
ATOM     25  C   UNL     1      43.382   4.035  13.259  0.00  0.00    +0.000 C 
ATOM     26  O   UNL     1      42.476   5.059  12.835  0.00  0.00    +0.000 OA
ATOM     27  C   UNL     1      42.702   5.274  11.437  0.00  0.00    +0.000 C 
ENDBRANCH  16  23
ENDBRANCH  15  20
ENDBRANCH   1  15
TORSDOF 5
ENDMDL
MODEL 8
REMARK VINA RESULT:    -6.219      4.896      6.478
REMARK INTER + INTRA:          -8.584
REMARK INTER:                  -7.882
REMARK INTRA:                  -0.703
REMARK UNBOUND:                -0.547
REMARK  Name = 
REMARK  6 active torsions:
REMARK  status: ('A' for Active; 'I' for Inactive)
REMARK    1  A    between atoms: C_1  and  C_2
REMARK    2  A    between atoms: C_2  and  C_3
REMARK    3  A    between atoms: C_7  and  C_8
REMARK    4  A    between atoms: C_8  and  C_9
REMARK    5  A    between atoms: C_9  and  N_10
REMARK    6  A    between atoms: C_14  and  C_15
REMARK                            x       y       z     vdW  Elec       q    Type
REMARK                         _______ _______ _______ _____ _____    ______ ____
ROOT
ATOM      1  C   UNL     1      47.534   3.913  15.868  0.00  0.00    +0.000 C 
ENDROOT
BRANCH   1   2
ATOM      2  N   UNL     1      47.114   5.103  15.118  0.00  0.00    +0.000 N 
ATOM      3  C   UNL     1      46.426   4.779  13.929  0.00  0.00    +0.000 A 
ATOM      4  C   UNL     1      45.962   5.804  13.114  0.00  0.00    +0.000 A 
ATOM      5  C   UNL     1      45.262   5.488  11.944  0.00  0.00    +0.000 A 
ATOM      6  C   UNL     1      45.036   4.153  11.607  0.00  0.00    +0.000 A 
ATOM      7  C   UNL     1      45.525   3.199  12.479  0.00  0.00    +0.000 A 
ATOM      8  N   UNL     1      46.203   3.484  13.619  0.00  0.00    +0.000 NA
ATOM      9  H   UNL     1      47.892   5.714  14.889  0.00  0.00    +0.000 HD
BRANCH   6  10
ATOM     10  C   UNL     1      44.299   3.817  10.365  0.00  0.00    +0.000 C 
ATOM     11  N   UNL     1      43.763   4.826   9.614  0.00  0.00    +0.000 N 
ATOM     12  O   UNL     1      44.162   2.651  10.011  0.00  0.00    +0.000 OA
ATOM     13  H   UNL     1      43.804   5.813   9.820  0.00  0.00    +0.000 HD
ATOM     14  H   UNL     1      43.263   4.549   8.779  0.00  0.00    +0.000 HD
ENDBRANCH   6  10
ENDBRANCH   1   2
BRANCH   1  15
ATOM     15  C   UNL     1      47.121   3.998  17.341  0.00  0.00    +0.000 C 
BRANCH  15  20
ATOM     16  C   UNL     1      50.608   5.082  18.509  0.00  0.00    +0.000 A 
ATOM     17  C   UNL     1      50.248   6.008  19.509  0.00  0.00    +0.000 A 
ATOM     18  C   UNL     1      48.911   6.256  19.827  0.00  0.00    +0.000 A 
ATOM     19  C   UNL     1      47.896   5.591  19.146  0.00  0.00    +0.000 A 
ATOM     20  C   UNL     1      48.214   4.654  18.159  0.00  0.00    +0.000 A 
ATOM     21  C   UNL     1      49.566   4.397  17.861  0.00  0.00    +0.000 A 
BRANCH  16  23
ATOM     22  C   UNL     1      52.357   5.836  16.893  0.00  0.00    +0.000 C 
ATOM     23  C   UNL     1      52.088   4.934  18.111  0.00  0.00    +0.000 C 
ATOM     24  C   UNL     1      53.019   5.260  19.284  0.00  0.00    +0.000 C 
ATOM     25  C   UNL     1      53.322   3.914  19.927  0.00  0.00    +0.000 C 
ATOM     26  O   UNL     1      52.868   2.887  19.039  0.00  0.00    +0.000 OA
ATOM     27  C   UNL     1      52.569   3.510  17.785  0.00  0.00    +0.000 C 
ENDBRANCH  16  23
ENDBRANCH  15  20
ENDBRANCH   1  15
TORSDOF 5
ENDMDL
MODEL 9
REMARK VINA RESULT:    -6.139      4.574      6.188
REMARK INTER + INTRA:          -8.481
REMARK INTER:                  -7.740
REMARK INTRA:                  -0.742
REMARK UNBOUND:                -0.547
REMARK  Name = 
REMARK  6 active torsions:
REMARK  status: ('A' for Active; 'I' for Inactive)
REMARK    1  A    between atoms: C_1  and  C_2
REMARK    2  A    between atoms: C_2  and  C_3
REMARK    3  A    between atoms: C_7  and  C_8
REMARK    4  A    between atoms: C_8  and  C_9
REMARK    5  A    between atoms: C_9  and  N_10
REMARK    6  A    between atoms: C_14  and  C_15
REMARK                            x       y       z     vdW  Elec       q    Type
REMARK                         _______ _______ _______ _____ _____    ______ ____
ROOT
ATOM      1  C   UNL     1      47.545   3.786  15.844  0.00  0.00    +0.000 C 
ENDROOT
BRANCH   1   2
ATOM      2  N   UNL     1      47.062   5.004  15.183  0.00  0.00    +0.000 N 
ATOM      3  C   UNL     1      46.364   4.731  13.986  0.00  0.00    +0.000 A 
ATOM      4  C   UNL     1      45.843   5.788  13.250  0.00  0.00    +0.000 A 
ATOM      5  C   UNL     1      45.133   5.521  12.073  0.00  0.00    +0.000 A 
ATOM      6  C   UNL     1      44.954   4.203  11.653  0.00  0.00    +0.000 A 
ATOM      7  C   UNL     1      45.497   3.214  12.451  0.00  0.00    +0.000 A 
ATOM      8  N   UNL     1      46.186   3.452  13.596  0.00  0.00    +0.000 NA
ATOM      9  H   UNL     1      47.811   5.661  14.980  0.00  0.00    +0.000 HD
BRANCH   6  10
ATOM     10  C   UNL     1      44.206   3.918  10.404  0.00  0.00    +0.000 C 
ATOM     11  N   UNL     1      44.361   2.703   9.797  0.00  0.00    +0.000 N 
ATOM     12  O   UNL     1      43.460   4.758   9.912  0.00  0.00    +0.000 OA
ATOM     13  H   UNL     1      44.955   1.949  10.107  0.00  0.00    +0.000 HD
ATOM     14  H   UNL     1      43.836   2.555   8.945  0.00  0.00    +0.000 HD
ENDBRANCH   6  10
ENDBRANCH   1   2
BRANCH   1  15
ATOM     15  C   UNL     1      47.058   3.701  17.295  0.00  0.00    +0.000 C 
BRANCH  15  20
ATOM     16  C   UNL     1      50.043   5.474  18.920  0.00  0.00    +0.000 A 
ATOM     17  C   UNL     1      49.363   6.489  19.624  0.00  0.00    +0.000 A 
ATOM     18  C   UNL     1      47.971   6.583  19.605  0.00  0.00    +0.000 A 
ATOM     19  C   UNL     1      47.218   5.670  18.874  0.00  0.00    +0.000 A 
ATOM     20  C   UNL     1      47.855   4.640  18.176  0.00  0.00    +0.000 A 
ATOM     21  C   UNL     1      49.259   4.542  18.219  0.00  0.00    +0.000 A 
BRANCH  16  23
ATOM     22  C   UNL     1      52.111   4.629  20.037  0.00  0.00    +0.000 C 
ATOM     23  C   UNL     1      51.582   5.485  18.872  0.00  0.00    +0.000 C 
ATOM     24  C   UNL     1      52.103   4.994  17.517  0.00  0.00    +0.000 C 
ATOM     25  C   UNL     1      52.324   6.260  16.702  0.00  0.00    +0.000 C 
ATOM     26  O   UNL     1      52.236   7.379  17.590  0.00  0.00    +0.000 OA
ATOM     27  C   UNL     1      52.258   6.865  18.926  0.00  0.00    +0.000 C 
ENDBRANCH  16  23
ENDBRANCH  15  20
ENDBRANCH   1  15
TORSDOF 5
ENDMDL
