MODEL 1
REMARK VINA RESULT:    -9.275      0.000      0.000
REMARK INTER + INTRA:         -13.131
REMARK INTER:                 -11.986
REMARK INTRA:                  -1.145
REMARK UNBOUND:                -1.145
REMARK  Name = 
REMARK  5 active torsions:
REMARK  status: ('A' for Active; 'I' for Inactive)
REMARK    1  A    between atoms: C_2  and  C_4
REMARK    2  A    between atoms: C_7  and  N_8
REMARK    3  A    between atoms: N_8  and  C_9
REMARK    4  A    between atoms: C_9  and  C_10
REMARK    5  A    between atoms: C_14  and  C_15
REMARK                            x       y       z     vdW  Elec       q    Type
REMARK                         _______ _______ _______ _____ _____    ______ ____
ROOT
ATOM      1  C   UNL     1      43.896   4.979  11.454  0.00  0.00    +0.000 C 
ATOM      2  C   UNL     1      43.103   4.058  12.370  0.00  0.00    +0.000 C 
ATOM      3  C   UNL     1      42.682   5.479  12.229  0.00  0.00    +0.000 C 
ENDROOT
BRANCH   1   4
ATOM      4  C   UNL     1      45.227   5.561  11.922  0.00  0.00    +0.000 A 
ATOM      5  C   UNL     1      45.787   6.698  11.319  0.00  0.00    +0.000 A 
ATOM      6  C   UNL     1      46.930   7.305  11.840  0.00  0.00    +0.000 A 
ATOM      7  C   UNL     1      47.534   6.787  12.987  0.00  0.00    +0.000 A 
ATOM      8  C   UNL     1      47.020   5.647  13.622  0.00  0.00    +0.000 A 
ATOM      9  C   UNL     1      45.893   5.034  13.042  0.00  0.00    +0.000 A 
BRANCH   8  10
ATOM     10  C   UNL     1      47.536   5.160  14.915  0.00  0.00    +0.000 A 
ATOM     11  C   UNL     1      47.142   3.923  15.443  0.00  0.00    +0.000 A 
ATOM     12  C   UNL     1      47.739   3.424  16.597  0.00  0.00    +0.000 A 
ATOM     13  C   UNL     1      48.723   4.180  17.207  0.00  0.00    +0.000 A 
ATOM     14  N   UNL     1      49.123   5.387  16.760  0.00  0.00    +0.000 NA
ATOM     15  C   UNL     1      48.517   5.847  15.639  0.00  0.00    +0.000 A 
ENDBRANCH   8  10
ENDBRANCH   1   4
BRANCH   1  16
ATOM     16  N   UNL     1      43.797   4.788   9.998  0.00  0.00    +0.000 N 
ATOM     17  H   UNL     1      42.927   5.032   9.539  0.00  0.00    +0.000 HD
BRANCH  16  21
ATOM     18  C   UNL     1      46.383   2.266   7.786  0.00  0.00    +0.000 A 
ATOM     19  C   UNL     1      45.488   1.708   8.701  0.00  0.00    +0.000 A 
ATOM     20  C   UNL     1      44.636   2.535   9.438  0.00  0.00    +0.000 A 
ATOM     21  C   UNL     1      44.626   3.925   9.257  0.00  0.00    +0.000 A 
ATOM     22  C   UNL     1      45.563   4.474   8.368  0.00  0.00    +0.000 A 
ATOM     23  C   UNL     1      46.434   3.654   7.640  0.00  0.00    +0.000 A 
BRANCH  18  25
ATOM     24  N   UNL     1      48.395   2.040   6.431  0.00  0.00    +0.000 N 
ATOM     25  C   UNL     1      47.297   1.423   6.970  0.00  0.00    +0.000 C 
ATOM     26  O   UNL     1      47.099   0.229   6.805  0.00  0.00    +0.000 OA
ATOM     27  H   UNL     1      49.058   1.443   5.955  0.00  0.00    +0.000 HD
ATOM     28  H   UNL     1      48.715   2.949   6.735  0.00  0.00    +0.000 HD
ENDBRANCH  18  25
ENDBRANCH  16  21
ENDBRANCH   1  16
TORSDOF 5
ENDMDL
MODEL 2
REMARK VINA RESULT:    -8.607      1.484      2.381
REMARK INTER + INTRA:         -12.267
REMARK INTER:                 -11.313
REMARK INTRA:                  -0.955
REMARK UNBOUND:                -1.145
REMARK  Name = 
REMARK  5 active torsions:
REMARK  status: ('A' for Active; 'I' for Inactive)
REMARK    1  A    between atoms: C_2  and  C_4
REMARK    2  A    between atoms: C_7  and  N_8
REMARK    3  A    between atoms: N_8  and  C_9
REMARK    4  A    between atoms: C_9  and  C_10
REMARK    5  A    between atoms: C_14  and  C_15
REMARK                            x       y       z     vdW  Elec       q    Type
REMARK                         _______ _______ _______ _____ _____    ______ ____
ROOT
ATOM      1  C   UNL     1      44.024   5.104  11.577  0.00  0.00    +0.000 C 
ATOM      2  C   UNL     1      44.081   4.030  12.653  0.00  0.00    +0.000 C 
ATOM      3  C   UNL     1      42.919   4.960  12.617  0.00  0.00    +0.000 C 
ENDROOT
BRANCH   1   4
ATOM      4  C   UNL     1      44.862   6.372  11.719  0.00  0.00    +0.000 A 
ATOM      5  C   UNL     1      44.344   7.637  11.398  0.00  0.00    +0.000 A 
ATOM      6  C   UNL     1      45.065   8.802  11.660  0.00  0.00    +0.000 A 
ATOM      7  C   UNL     1      46.323   8.724  12.260  0.00  0.00    +0.000 A 
ATOM      8  C   UNL     1      46.889   7.484  12.592  0.00  0.00    +0.000 A 
ATOM      9  C   UNL     1      46.153   6.329  12.270  0.00  0.00    +0.000 A 
BRANCH   8  10
ATOM     10  C   UNL     1      48.143   7.367  13.361  0.00  0.00    +0.000 A 
ATOM     11  C   UNL     1      49.267   8.143  13.053  0.00  0.00    +0.000 A 
ATOM     12  C   UNL     1      50.393   8.112  13.870  0.00  0.00    +0.000 A 
ATOM     13  C   UNL     1      50.374   7.297  14.986  0.00  0.00    +0.000 A 
ATOM     14  N   UNL     1      49.332   6.508  15.316  0.00  0.00    +0.000 NA
ATOM     15  C   UNL     1      48.254   6.556  14.496  0.00  0.00    +0.000 A 
ENDBRANCH   8  10
ENDBRANCH   1   4
BRANCH   1  16
ATOM     16  N   UNL     1      43.766   4.702  10.185  0.00  0.00    +0.000 N 
ATOM     17  H   UNL     1      42.806   4.683   9.860  0.00  0.00    +0.000 HD
BRANCH  16  21
ATOM     18  C   UNL     1      46.376   2.367   7.802  0.00  0.00    +0.000 A 
ATOM     19  C   UNL     1      46.390   3.759   7.684  0.00  0.00    +0.000 A 
ATOM     20  C   UNL     1      45.527   4.533   8.464  0.00  0.00    +0.000 A 
ATOM     21  C   UNL     1      44.662   3.952   9.401  0.00  0.00    +0.000 A 
ATOM     22  C   UNL     1      44.628   2.551   9.475  0.00  0.00    +0.000 A 
ATOM     23  C   UNL     1      45.474   1.765   8.683  0.00  0.00    +0.000 A 
BRANCH  18  25
ATOM     24  N   UNL     1      48.402   2.100   6.477  0.00  0.00    +0.000 N 
ATOM     25  C   UNL     1      47.287   1.504   7.004  0.00  0.00    +0.000 C 
ATOM     26  O   UNL     1      47.071   0.312   6.843  0.00  0.00    +0.000 OA
ATOM     27  H   UNL     1      49.062   1.489   6.014  0.00  0.00    +0.000 HD
ATOM     28  H   UNL     1      48.733   3.005   6.780  0.00  0.00    +0.000 HD
ENDBRANCH  18  25
ENDBRANCH  16  21
ENDBRANCH   1  16
TORSDOF 5
ENDMDL
MODEL 3
REMARK VINA RESULT:    -8.365      2.045      3.470
REMARK INTER + INTRA:         -11.956
REMARK INTER:                 -11.334
REMARK INTRA:                  -0.621
REMARK UNBOUND:                -1.145
REMARK  Name = 
REMARK  5 active torsions:
REMARK  status: ('A' for Active; 'I' for Inactive)
REMARK    1  A    between atoms: C_2  and  C_4
REMARK    2  A    between atoms: C_7  and  N_8
REMARK    3  A    between atoms: N_8  and  C_9
REMARK    4  A    between atoms: C_9  and  C_10
REMARK    5  A    between atoms: C_14  and  C_15
REMARK                            x       y       z     vdW  Elec       q    Type
REMARK                         _______ _______ _______ _____ _____    ______ ____
ROOT
ATOM      1  C   UNL     1      43.626   4.888  11.460  0.00  0.00    +0.000 C 
ATOM      2  C   UNL     1      42.312   5.391  12.042  0.00  0.00    +0.000 C 
ATOM      3  C   UNL     1      42.983   6.182  10.973  0.00  0.00    +0.000 C 
ENDROOT
BRANCH   1   4
ATOM      4  C   UNL     1      44.928   5.084  12.233  0.00  0.00    +0.000 A 
ATOM      5  C   UNL     1      45.489   4.054  13.004  0.00  0.00    +0.000 A 
ATOM      6  C   UNL     1      46.745   4.195  13.595  0.00  0.00    +0.000 A 
ATOM      7  C   UNL     1      47.473   5.373  13.417  0.00  0.00    +0.000 A 
ATOM      8  C   UNL     1      46.952   6.436  12.663  0.00  0.00    +0.000 A 
ATOM      9  C   UNL     1      45.663   6.276  12.122  0.00  0.00    +0.000 A 
BRANCH   8  10
ATOM     10  C   UNL     1      47.748   7.632  12.327  0.00  0.00    +0.000 A 
ATOM     11  C   UNL     1      49.099   7.536  11.969  0.00  0.00    +0.000 A 
ATOM     12  C   UNL     1      49.795   8.659  11.529  0.00  0.00    +0.000 A 
ATOM     13  C   UNL     1      49.121   9.864  11.459  0.00  0.00    +0.000 A 
ATOM     14  N   UNL     1      47.831  10.020  11.816  0.00  0.00    +0.000 NA
ATOM     15  C   UNL     1      47.184   8.910  12.246  0.00  0.00    +0.000 A 
ENDBRANCH   8  10
ENDBRANCH   1   4
BRANCH   1  16
ATOM     16  N   UNL     1      43.610   3.700  10.593  0.00  0.00    +0.000 N 
ATOM     17  H   UNL     1      43.069   2.896  10.888  0.00  0.00    +0.000 HD
BRANCH  16  21
ATOM     18  C   UNL     1      46.489   2.763   7.630  0.00  0.00    +0.000 A 
ATOM     19  C   UNL     1      46.122   4.094   7.842  0.00  0.00    +0.000 A 
ATOM     20  C   UNL     1      45.169   4.408   8.814  0.00  0.00    +0.000 A 
ATOM     21  C   UNL     1      44.589   3.419   9.621  0.00  0.00    +0.000 A 
ATOM     22  C   UNL     1      44.933   2.083   9.364  0.00  0.00    +0.000 A 
ATOM     23  C   UNL     1      45.873   1.757   8.378  0.00  0.00    +0.000 A 
BRANCH  18  25
ATOM     24  N   UNL     1      47.464   3.039   5.414  0.00  0.00    +0.000 N 
ATOM     25  C   UNL     1      47.510   2.384   6.617  0.00  0.00    +0.000 C 
ATOM     26  O   UNL     1      48.369   1.547   6.848  0.00  0.00    +0.000 OA
ATOM     27  H   UNL     1      48.214   2.842   4.766  0.00  0.00    +0.000 HD
ATOM     28  H   UNL     1      46.932   3.886   5.274  0.00  0.00    +0.000 HD
ENDBRANCH  18  25
ENDBRANCH  16  21
ENDBRANCH   1  16
TORSDOF 5
ENDMDL
MODEL 4
REMARK VINA RESULT:    -7.040      3.015      7.521
REMARK INTER + INTRA:         -10.244
REMARK INTER:                  -9.927
REMARK INTRA:                  -0.317
REMARK UNBOUND:                -1.145
REMARK  Name = 
REMARK  5 active torsions:
REMARK  status: ('A' for Active; 'I' for Inactive)
REMARK    1  A    between atoms: C_2  and  C_4
REMARK    2  A    between atoms: C_7  and  N_8
REMARK    3  A    between atoms: N_8  and  C_9
REMARK    4  A    between atoms: C_9  and  C_10
REMARK    5  A    between atoms: C_14  and  C_15
REMARK                            x       y       z     vdW  Elec       q    Type
REMARK                         _______ _______ _______ _____ _____    ______ ____
ROOT
ATOM      1  C   UNL     1      46.319   7.315  12.245  0.00  0.00    +0.000 C 
ATOM      2  C   UNL     1      46.358   8.753  11.746  0.00  0.00    +0.000 C 
ATOM      3  C   UNL     1      45.656   8.447  13.023  0.00  0.00    +0.000 C 
ENDROOT
BRANCH   1   4
ATOM      4  C   UNL     1      45.342   6.319  11.626  0.00  0.00    +0.000 A 
ATOM      5  C   UNL     1      43.955   6.442  11.803  0.00  0.00    +0.000 A 
ATOM      6  C   UNL     1      43.063   5.611  11.123  0.00  0.00    +0.000 A 
ATOM      7  C   UNL     1      43.545   4.642  10.242  0.00  0.00    +0.000 A 
ATOM      8  C   UNL     1      44.922   4.472  10.039  0.00  0.00    +0.000 A 
ATOM      9  C   UNL     1      45.793   5.296  10.776  0.00  0.00    +0.000 A 
BRANCH   8  10
ATOM     10  C   UNL     1      45.465   3.566   9.008  0.00  0.00    +0.000 A 
ATOM     11  C   UNL     1      46.117   4.058   7.870  0.00  0.00    +0.000 A 
ATOM     12  C   UNL     1      46.735   3.186   6.978  0.00  0.00    +0.000 A 
ATOM     13  C   UNL     1      46.686   1.831   7.242  0.00  0.00    +0.000 A 
ATOM     14  N   UNL     1      46.050   1.299   8.305  0.00  0.00    +0.000 NA
ATOM     15  C   UNL     1      45.453   2.174   9.151  0.00  0.00    +0.000 A 
ENDBRANCH   8  10
ENDBRANCH   1   4
BRANCH   1  16
ATOM     16  N   UNL     1      47.556   6.710  12.762  0.00  0.00    +0.000 N 
ATOM     17  H   UNL     1      48.277   6.447  12.099  0.00  0.00    +0.000 HD
BRANCH  16  21
ATOM     18  C   UNL     1      47.890   4.727  16.490  0.00  0.00    +0.000 A 
ATOM     19  C   UNL     1      48.614   5.900  16.262  0.00  0.00    +0.000 A 
ATOM     20  C   UNL     1      48.512   6.554  15.032  0.00  0.00    +0.000 A 
ATOM     21  C   UNL     1      47.665   6.086  14.019  0.00  0.00    +0.000 A 
ATOM     22  C   UNL     1      46.979   4.883  14.246  0.00  0.00    +0.000 A 
ATOM     23  C   UNL     1      47.091   4.208  15.468  0.00  0.00    +0.000 A 
BRANCH  18  25
ATOM     24  N   UNL     1      47.286   2.813  17.870  0.00  0.00    +0.000 N 
ATOM     25  C   UNL     1      47.956   4.005  17.789  0.00  0.00    +0.000 C 
ATOM     26  O   UNL     1      48.597   4.436  18.735  0.00  0.00    +0.000 OA
ATOM     27  H   UNL     1      47.411   2.284  18.724  0.00  0.00    +0.000 HD
ATOM     28  H   UNL     1      46.951   2.317  17.056  0.00  0.00    +0.000 HD
ENDBRANCH  18  25
ENDBRANCH  16  21
ENDBRANCH   1  16
TORSDOF 5
ENDMDL
MODEL 5
REMARK VINA RESULT:    -7.008      2.435      3.568
REMARK INTER + INTRA:         -10.202
REMARK INTER:                  -9.198
REMARK INTRA:                  -1.004
REMARK UNBOUND:                -1.145
REMARK  Name = 
REMARK  5 active torsions:
REMARK  status: ('A' for Active; 'I' for Inactive)
REMARK    1  A    between atoms: C_2  and  C_4
REMARK    2  A    between atoms: C_7  and  N_8
REMARK    3  A    between atoms: N_8  and  C_9
REMARK    4  A    between atoms: C_9  and  C_10
REMARK    5  A    between atoms: C_14  and  C_15
REMARK                            x       y       z     vdW  Elec       q    Type
REMARK                         _______ _______ _______ _____ _____    ______ ____
ROOT
ATOM      1  C   UNL     1      45.055   5.544  11.809  0.00  0.00    +0.000 C 
ATOM      2  C   UNL     1      45.901   4.646  12.702  0.00  0.00    +0.000 C 
ATOM      3  C   UNL     1      44.560   5.084  13.176  0.00  0.00    +0.000 C 
ENDROOT
BRANCH   1   4
ATOM      4  C   UNL     1      45.361   7.037  11.720  0.00  0.00    +0.000 A 
ATOM      5  C   UNL     1      44.371   7.972  11.379  0.00  0.00    +0.000 A 
ATOM      6  C   UNL     1      44.622   9.343  11.433  0.00  0.00    +0.000 A 
ATOM      7  C   UNL     1      45.874   9.808  11.840  0.00  0.00    +0.000 A 
ATOM      8  C   UNL     1      46.900   8.915  12.181  0.00  0.00    +0.000 A 
ATOM      9  C   UNL     1      46.625   7.539  12.070  0.00  0.00    +0.000 A 
BRANCH   8  10
ATOM     10  C   UNL     1      48.182   9.364  12.758  0.00  0.00    +0.000 A 
ATOM     11  C   UNL     1      48.400   9.368  14.142  0.00  0.00    +0.000 A 
ATOM     12  C   UNL     1      49.658   9.670  14.658  0.00  0.00    +0.000 A 
ATOM     13  C   UNL     1      50.677   9.967  13.773  0.00  0.00    +0.000 A 
ATOM     14  N   UNL     1      50.518  10.005  12.435  0.00  0.00    +0.000 NA
ATOM     15  C   UNL     1      49.280   9.713  11.966  0.00  0.00    +0.000 A 
ENDBRANCH   8  10
ENDBRANCH   1   4
BRANCH   1  16
ATOM     16  N   UNL     1      44.456   4.974  10.593  0.00  0.00    +0.000 N 
ATOM     17  H   UNL     1      43.468   4.749  10.603  0.00  0.00    +0.000 HD
BRANCH  16  21
ATOM     18  C   UNL     1      46.570   2.974   7.514  0.00  0.00    +0.000 A 
ATOM     19  C   UNL     1      46.671   4.362   7.634  0.00  0.00    +0.000 A 
ATOM     20  C   UNL     1      45.971   5.027   8.644  0.00  0.00    +0.000 A 
ATOM     21  C   UNL     1      45.190   4.332   9.578  0.00  0.00    +0.000 A 
ATOM     22  C   UNL     1      45.063   2.944   9.416  0.00  0.00    +0.000 A 
ATOM     23  C   UNL     1      45.744   2.270   8.394  0.00  0.00    +0.000 A 
BRANCH  18  25
ATOM     24  N   UNL     1      47.424   2.823   5.238  0.00  0.00    +0.000 N 
ATOM     25  C   UNL     1      47.308   2.223   6.464  0.00  0.00    +0.000 C 
ATOM     26  O   UNL     1      47.814   1.133   6.685  0.00  0.00    +0.000 OA
ATOM     27  H   UNL     1      48.004   2.349   4.558  0.00  0.00    +0.000 HD
ATOM     28  H   UNL     1      47.232   3.804   5.089  0.00  0.00    +0.000 HD
ENDBRANCH  18  25
ENDBRANCH  16  21
ENDBRANCH   1  16
TORSDOF 5
ENDMDL
MODEL 6
REMARK VINA RESULT:    -6.741      2.916      7.516
REMARK INTER + INTRA:          -9.856
REMARK INTER:                  -9.426
REMARK INTRA:                  -0.430
REMARK UNBOUND:                -1.145
REMARK  Name = 
REMARK  5 active torsions:
REMARK  status: ('A' for Active; 'I' for Inactive)
REMARK    1  A    between atoms: C_2  and  C_4
REMARK    2  A    between atoms: C_7  and  N_8
REMARK    3  A    between atoms: N_8  and  C_9
REMARK    4  A    between atoms: C_9  and  C_10
REMARK    5  A    between atoms: C_14  and  C_15
REMARK                            x       y       z     vdW  Elec       q    Type
REMARK                         _______ _______ _______ _____ _____    ______ ____
ROOT
ATOM      1  C   UNL     1      48.673   7.861  12.685  0.00  0.00    +0.000 C 
ATOM      2  C   UNL     1      49.761   7.393  11.728  0.00  0.00    +0.000 C 
ATOM      3  C   UNL     1      49.459   8.848  11.829  0.00  0.00    +0.000 C 
ENDROOT
BRANCH   1   4
ATOM      4  C   UNL     1      47.204   7.722  12.297  0.00  0.00    +0.000 A 
ATOM      5  C   UNL     1      46.295   8.779  12.463  0.00  0.00    +0.000 A 
ATOM      6  C   UNL     1      44.989   8.693  11.980  0.00  0.00    +0.000 A 
ATOM      7  C   UNL     1      44.567   7.543  11.310  0.00  0.00    +0.000 A 
ATOM      8  C   UNL     1      45.433   6.455  11.127  0.00  0.00    +0.000 A 
ATOM      9  C   UNL     1      46.728   6.559  11.668  0.00  0.00    +0.000 A 
BRANCH   8  10
ATOM     10  C   UNL     1      45.075   5.289  10.297  0.00  0.00    +0.000 A 
ATOM     11  C   UNL     1      45.702   5.045   9.068  0.00  0.00    +0.000 A 
ATOM     12  C   UNL     1      45.444   3.872   8.364  0.00  0.00    +0.000 A 
ATOM     13  C   UNL     1      44.556   2.962   8.905  0.00  0.00    +0.000 A 
ATOM     14  N   UNL     1      43.904   3.156  10.069  0.00  0.00    +0.000 NA
ATOM     15  C   UNL     1      44.172   4.311  10.726  0.00  0.00    +0.000 A 
ENDBRANCH   8  10
ENDBRANCH   1   4
BRANCH   1  16
ATOM     16  N   UNL     1      48.926   7.796  14.133  0.00  0.00    +0.000 N 
ATOM     17  H   UNL     1      49.653   8.386  14.522  0.00  0.00    +0.000 HD
BRANCH  16  21
ATOM     18  C   UNL     1      47.782   4.614  16.684  0.00  0.00    +0.000 A 
ATOM     19  C   UNL     1      47.376   4.610  15.347  0.00  0.00    +0.000 A 
ATOM     20  C   UNL     1      47.746   5.660  14.503  0.00  0.00    +0.000 A 
ATOM     21  C   UNL     1      48.555   6.713  14.952  0.00  0.00    +0.000 A 
ATOM     22  C   UNL     1      48.916   6.726  16.308  0.00  0.00    +0.000 A 
ATOM     23  C   UNL     1      48.533   5.688  17.167  0.00  0.00    +0.000 A 
BRANCH  18  25
ATOM     24  N   UNL     1      48.228   3.339  18.711  0.00  0.00    +0.000 N 
ATOM     25  C   UNL     1      47.424   3.510  17.615  0.00  0.00    +0.000 C 
ATOM     26  O   UNL     1      46.445   2.803  17.432  0.00  0.00    +0.000 OA
ATOM     27  H   UNL     1      47.927   2.647  19.385  0.00  0.00    +0.000 HD
ATOM     28  H   UNL     1      48.890   4.037  19.018  0.00  0.00    +0.000 HD
ENDBRANCH  18  25
ENDBRANCH  16  21
ENDBRANCH   1  16
TORSDOF 5
ENDMDL
MODEL 7
REMARK VINA RESULT:    -6.562      2.746      4.557
REMARK INTER + INTRA:          -9.625
REMARK INTER:                  -8.931
REMARK INTRA:                  -0.694
REMARK UNBOUND:                -1.145
REMARK  Name = 
REMARK  5 active torsions:
REMARK  status: ('A' for Active; 'I' for Inactive)
REMARK    1  A    between atoms: C_2  and  C_4
REMARK    2  A    between atoms: C_7  and  N_8
REMARK    3  A    between atoms: N_8  and  C_9
REMARK    4  A    between atoms: C_9  and  C_10
REMARK    5  A    between atoms: C_14  and  C_15
REMARK                            x       y       z     vdW  Elec       q    Type
REMARK                         _______ _______ _______ _____ _____    ______ ____
ROOT
ATOM      1  C   UNL     1      47.941   8.138  12.623  0.00  0.00    +0.000 C 
ATOM      2  C   UNL     1      48.654   9.130  11.716  0.00  0.00    +0.000 C 
ATOM      3  C   UNL     1      48.898   7.673  11.531  0.00  0.00    +0.000 C 
ENDROOT
BRANCH   1   4
ATOM      4  C   UNL     1      48.446   7.903  14.044  0.00  0.00    +0.000 A 
ATOM      5  C   UNL     1      48.895   8.961  14.850  0.00  0.00    +0.000 A 
ATOM      6  C   UNL     1      49.224   8.760  16.191  0.00  0.00    +0.000 A 
ATOM      7  C   UNL     1      49.102   7.490  16.757  0.00  0.00    +0.000 A 
ATOM      8  C   UNL     1      48.667   6.398  15.992  0.00  0.00    +0.000 A 
ATOM      9  C   UNL     1      48.388   6.629  14.632  0.00  0.00    +0.000 A 
BRANCH   8  10
ATOM     10  C   UNL     1      48.380   5.078  16.587  0.00  0.00    +0.000 A 
ATOM     11  C   UNL     1      49.281   4.458  17.462  0.00  0.00    +0.000 A 
ATOM     12  C   UNL     1      48.935   3.277  18.113  0.00  0.00    +0.000 A 
ATOM     13  C   UNL     1      47.686   2.736  17.872  0.00  0.00    +0.000 A 
ATOM     14  N   UNL     1      46.790   3.274  17.021  0.00  0.00    +0.000 NA
ATOM     15  C   UNL     1      47.161   4.419  16.398  0.00  0.00    +0.000 A 
ENDBRANCH   8  10
ENDBRANCH   1   4
BRANCH   1  16
ATOM     16  N   UNL     1      46.494   7.933  12.453  0.00  0.00    +0.000 N 
ATOM     17  H   UNL     1      45.859   8.565  12.929  0.00  0.00    +0.000 HD
BRANCH  16  21
ATOM     18  C   UNL     1      44.646   4.303  11.293  0.00  0.00    +0.000 A 
ATOM     19  C   UNL     1      45.241   5.116  10.326  0.00  0.00    +0.000 A 
ATOM     20  C   UNL     1      45.847   6.318  10.703  0.00  0.00    +0.000 A 
ATOM     21  C   UNL     1      45.910   6.719  12.044  0.00  0.00    +0.000 A 
ATOM     22  C   UNL     1      45.269   5.914  12.997  0.00  0.00    +0.000 A 
ATOM     23  C   UNL     1      44.641   4.718  12.627  0.00  0.00    +0.000 A 
BRANCH  18  25
ATOM     24  N   UNL     1      44.633   2.239   9.999  0.00  0.00    +0.000 N 
ATOM     25  C   UNL     1      44.003   3.008  10.941  0.00  0.00    +0.000 C 
ATOM     26  O   UNL     1      42.975   2.630  11.481  0.00  0.00    +0.000 OA
ATOM     27  H   UNL     1      44.241   1.322   9.831  0.00  0.00    +0.000 HD
ATOM     28  H   UNL     1      45.588   2.401   9.710  0.00  0.00    +0.000 HD
ENDBRANCH  18  25
ENDBRANCH  16  21
ENDBRANCH   1  16
TORSDOF 5
ENDMDL
