MODEL 1
REMARK VINA RESULT:    -9.070      0.000      0.000
REMARK INTER + INTRA:         -10.838
REMARK INTER:                 -11.191
REMARK INTRA:                   0.353
REMARK UNBOUND:                 0.353
REMARK  Name = 
REMARK  4 active torsions:
REMARK  status: ('A' for Active; 'I' for Inactive)
REMARK    1  A    between atoms: C_2  and  C_4
REMARK    2  A    between atoms: C_8  and  C_9
REMARK    3  A    between atoms: C_9  and  N_10
REMARK    4  A    between atoms: C_14  and  C_15
REMARK                            x       y       z     vdW  Elec       q    Type
REMARK                         _______ _______ _______ _____ _____    ______ ____
ROOT
ATOM      1  C   UNL     1      43.839   4.787  11.609  0.00  0.00    +0.000 C 
ATOM      2  C   UNL     1      43.006   5.919  11.020  0.00  0.00    +0.000 C 
ATOM      3  C   UNL     1      42.539   5.228  12.259  0.00  0.00    +0.000 C 
ENDROOT
BRANCH   1   4
ATOM      4  N   UNL     1      43.860   3.509  10.894  0.00  0.00    +0.000 N 
ATOM      5  C   UNL     1      44.673   3.277   9.792  0.00  0.00    +0.000 A 
ATOM      6  N   UNL     1      44.852   1.988   9.471  0.00  0.00    +0.000 NA
ATOM      7  C   UNL     1      45.630   1.716   8.403  0.00  0.00    +0.000 A 
ATOM      8  C   UNL     1      46.233   2.679   7.634  0.00  0.00    +0.000 A 
ATOM      9  C   UNL     1      45.998   3.971   8.049  0.00  0.00    +0.000 A 
ATOM     10  N   UNL     1      45.237   4.290   9.115  0.00  0.00    +0.000 NA
ATOM     11  H   UNL     1      43.626   2.641  11.350  0.00  0.00    +0.000 HD
BRANCH   8  12
ATOM     12  C   UNL     1      47.068   2.361   6.453  0.00  0.00    +0.000 C 
ATOM     13  F   UNL     1      48.381   2.682   6.621  0.00  0.00    +0.000 F 
ATOM     14  F   UNL     1      47.045   1.038   6.138  0.00  0.00    +0.000 F 
ATOM     15  F   UNL     1      46.666   3.019   5.333  0.00  0.00    +0.000 F 
ENDBRANCH   8  12
ENDBRANCH   1   4
BRANCH   1  20
ATOM     16  C   UNL     1      46.835   4.936  13.827  0.00  0.00    +0.000 A 
ATOM     17  C   UNL     1      47.562   6.029  13.384  0.00  0.00    +0.000 A 
ATOM     18  C   UNL     1      47.089   6.714  12.275  0.00  0.00    +0.000 A 
ATOM     19  C   UNL     1      45.902   6.297  11.673  0.00  0.00    +0.000 A 
ATOM     20  C   UNL     1      45.202   5.197  12.179  0.00  0.00    +0.000 A 
ATOM     21  N   UNL     1      45.685   4.495  13.244  0.00  0.00    +0.000 NA
BRANCH  16  23
ATOM     22  N   UNL     1      47.269   4.872  16.211  0.00  0.00    +0.000 N 
ATOM     23  C   UNL     1      47.301   4.177  15.032  0.00  0.00    +0.000 C 
ATOM     24  O   UNL     1      47.686   3.016  14.979  0.00  0.00    +0.000 OA
ATOM     25  H   UNL     1      47.589   4.432  17.060  0.00  0.00    +0.000 HD
ATOM     26  H   UNL     1      46.961   5.839  16.209  0.00  0.00    +0.000 HD
ENDBRANCH  16  23
ENDBRANCH   1  20
TORSDOF 4
ENDMDL
MODEL 2
REMARK VINA RESULT:    -8.392      4.231      6.708
REMARK INTER + INTRA:         -10.002
REMARK INTER:                  -9.664
REMARK INTRA:                  -0.338
REMARK UNBOUND:                 0.353
REMARK  Name = 
REMARK  4 active torsions:
REMARK  status: ('A' for Active; 'I' for Inactive)
REMARK    1  A    between atoms: C_2  and  C_4
REMARK    2  A    between atoms: C_8  and  C_9
REMARK    3  A    between atoms: C_9  and  N_10
REMARK    4  A    between atoms: C_14  and  C_15
REMARK                            x       y       z     vdW  Elec       q    Type
REMARK                         _______ _______ _______ _____ _____    ______ ____
ROOT
ATOM      1  C   UNL     1      44.453   3.147  11.398  0.00  0.00    +0.000 C 
ATOM      2  C   UNL     1      43.116   2.424  11.506  0.00  0.00    +0.000 C 
ATOM      3  C   UNL     1      43.191   3.885  11.809  0.00  0.00    +0.000 C 
ENDROOT
BRANCH   1   4
ATOM      4  N   UNL     1      45.463   2.874  12.422  0.00  0.00    +0.000 N 
ATOM      5  C   UNL     1      46.187   3.877  13.052  0.00  0.00    +0.000 A 
ATOM      6  N   UNL     1      46.797   3.519  14.191  0.00  0.00    +0.000 NA
ATOM      7  C   UNL     1      47.517   4.462  14.833  0.00  0.00    +0.000 A 
ATOM      8  C   UNL     1      47.662   5.750  14.382  0.00  0.00    +0.000 A 
ATOM      9  C   UNL     1      46.992   6.024  13.211  0.00  0.00    +0.000 A 
ATOM     10  N   UNL     1      46.252   5.118  12.540  0.00  0.00    +0.000 NA
ATOM     11  H   UNL     1      45.421   2.051  13.003  0.00  0.00    +0.000 HD
BRANCH   8  12
ATOM     12  C   UNL     1      48.474   6.765  15.092  0.00  0.00    +0.000 C 
ATOM     13  F   UNL     1      49.768   6.808  14.673  0.00  0.00    +0.000 F 
ATOM     14  F   UNL     1      47.988   8.026  14.931  0.00  0.00    +0.000 F 
ATOM     15  F   UNL     1      48.524   6.552  16.434  0.00  0.00    +0.000 F 
ENDBRANCH   8  12
ENDBRANCH   1   4
BRANCH   1  20
ATOM     16  C   UNL     1      46.213   2.289   8.222  0.00  0.00    +0.000 A 
ATOM     17  C   UNL     1      46.272   3.474   7.507  0.00  0.00    +0.000 A 
ATOM     18  C   UNL     1      45.659   4.591   8.054  0.00  0.00    +0.000 A 
ATOM     19  C   UNL     1      45.038   4.485   9.298  0.00  0.00    +0.000 A 
ATOM     20  C   UNL     1      45.028   3.265   9.981  0.00  0.00    +0.000 A 
ATOM     21  N   UNL     1      45.594   2.154   9.429  0.00  0.00    +0.000 NA
BRANCH  16  23
ATOM     22  N   UNL     1      47.991   1.287   6.913  0.00  0.00    +0.000 N 
ATOM     23  C   UNL     1      46.877   1.062   7.676  0.00  0.00    +0.000 C 
ATOM     24  O   UNL     1      46.461  -0.070   7.891  0.00  0.00    +0.000 OA
ATOM     25  H   UNL     1      48.476   0.509   6.493  0.00  0.00    +0.000 HD
ATOM     26  H   UNL     1      48.291   2.242   6.743  0.00  0.00    +0.000 HD
ENDBRANCH  16  23
ENDBRANCH   1  20
TORSDOF 4
ENDMDL
MODEL 3
REMARK VINA RESULT:    -8.177      1.660      2.194
REMARK INTER + INTRA:          -9.735
REMARK INTER:                 -10.232
REMARK INTRA:                   0.497
REMARK UNBOUND:                 0.353
REMARK  Name = 
REMARK  4 active torsions:
REMARK  status: ('A' for Active; 'I' for Inactive)
REMARK    1  A    between atoms: C_2  and  C_4
REMARK    2  A    between atoms: C_8  and  C_9
REMARK    3  A    between atoms: C_9  and  N_10
REMARK    4  A    between atoms: C_14  and  C_15
REMARK                            x       y       z     vdW  Elec       q    Type
REMARK                         _______ _______ _______ _____ _____    ______ ____
ROOT
ATOM      1  C   UNL     1      43.663   4.900  11.707  0.00  0.00    +0.000 C 
ATOM      2  C   UNL     1      43.112   6.150  11.030  0.00  0.00    +0.000 C 
ATOM      3  C   UNL     1      42.347   5.518  12.146  0.00  0.00    +0.000 C 
ENDROOT
BRANCH   1   4
ATOM      4  N   UNL     1      43.624   3.643  10.957  0.00  0.00    +0.000 N 
ATOM      5  C   UNL     1      44.470   3.378   9.888  0.00  0.00    +0.000 A 
ATOM      6  N   UNL     1      44.569   2.087   9.539  0.00  0.00    +0.000 NA
ATOM      7  C   UNL     1      45.376   1.785   8.501  0.00  0.00    +0.000 A 
ATOM      8  C   UNL     1      46.084   2.719   7.788  0.00  0.00    +0.000 A 
ATOM      9  C   UNL     1      45.925   4.014   8.228  0.00  0.00    +0.000 A 
ATOM     10  N   UNL     1      45.139   4.362   9.266  0.00  0.00    +0.000 NA
ATOM     11  H   UNL     1      43.306   2.784  11.377  0.00  0.00    +0.000 HD
BRANCH   8  12
ATOM     12  C   UNL     1      46.949   2.369   6.638  0.00  0.00    +0.000 C 
ATOM     13  F   UNL     1      46.518   2.897   5.459  0.00  0.00    +0.000 F 
ATOM     14  F   UNL     1      48.229   2.804   6.796  0.00  0.00    +0.000 F 
ATOM     15  F   UNL     1      47.034   1.027   6.435  0.00  0.00    +0.000 F 
ENDBRANCH   8  12
ENDBRANCH   1   4
BRANCH   1  20
ATOM     16  C   UNL     1      46.660   6.522  13.224  0.00  0.00    +0.000 A 
ATOM     17  C   UNL     1      47.395   5.486  13.775  0.00  0.00    +0.000 A 
ATOM     18  C   UNL     1      46.864   4.207  13.705  0.00  0.00    +0.000 A 
ATOM     19  C   UNL     1      45.639   4.014  13.066  0.00  0.00    +0.000 A 
ATOM     20  C   UNL     1      44.953   5.099  12.512  0.00  0.00    +0.000 A 
ATOM     21  N   UNL     1      45.451   6.363  12.615  0.00  0.00    +0.000 NA
BRANCH  16  23
ATOM     22  N   UNL     1      46.337   8.873  13.723  0.00  0.00    +0.000 N 
ATOM     23  C   UNL     1      47.204   7.918  13.263  0.00  0.00    +0.000 C 
ATOM     24  O   UNL     1      48.343   8.198  12.911  0.00  0.00    +0.000 OA
ATOM     25  H   UNL     1      46.627   9.839  13.755  0.00  0.00    +0.000 HD
ATOM     26  H   UNL     1      45.395   8.602  13.986  0.00  0.00    +0.000 HD
ENDBRANCH  16  23
ENDBRANCH   1  20
TORSDOF 4
ENDMDL
MODEL 4
REMARK VINA RESULT:    -6.910      3.913      6.119
REMARK INTER + INTRA:          -8.172
REMARK INTER:                  -8.376
REMARK INTRA:                   0.204
REMARK UNBOUND:                 0.353
REMARK  Name = 
REMARK  4 active torsions:
REMARK  status: ('A' for Active; 'I' for Inactive)
REMARK    1  A    between atoms: C_2  and  C_4
REMARK    2  A    between atoms: C_8  and  C_9
REMARK    3  A    between atoms: C_9  and  N_10
REMARK    4  A    between atoms: C_14  and  C_15
REMARK                            x       y       z     vdW  Elec       q    Type
REMARK                         _______ _______ _______ _____ _____    ______ ____
ROOT
ATOM      1  C   UNL     1      48.047   4.684  16.687  0.00  0.00    +0.000 C 
ATOM      2  C   UNL     1      47.154   4.787  17.918  0.00  0.00    +0.000 C 
ATOM      3  C   UNL     1      47.097   3.562  17.067  0.00  0.00    +0.000 C 
ENDROOT
BRANCH   1   4
ATOM      4  N   UNL     1      47.714   5.514  15.529  0.00  0.00    +0.000 N 
ATOM      5  C   UNL     1      47.011   5.031  14.433  0.00  0.00    +0.000 A 
ATOM      6  N   UNL     1      46.476   5.965  13.634  0.00  0.00    +0.000 NA
ATOM      7  C   UNL     1      45.790   5.539  12.553  0.00  0.00    +0.000 A 
ATOM      8  C   UNL     1      45.622   4.217  12.229  0.00  0.00    +0.000 A 
ATOM      9  C   UNL     1      46.197   3.334  13.115  0.00  0.00    +0.000 A 
ATOM     10  N   UNL     1      46.883   3.712  14.213  0.00  0.00    +0.000 NA
ATOM     11  H   UNL     1      47.604   6.514  15.606  0.00  0.00    +0.000 HD
BRANCH   8  12
ATOM     12  C   UNL     1      44.881   3.770  11.027  0.00  0.00    +0.000 C 
ATOM     13  F   UNL     1      45.295   2.561  10.559  0.00  0.00    +0.000 F 
ATOM     14  F   UNL     1      43.545   3.645  11.254  0.00  0.00    +0.000 F 
ATOM     15  F   UNL     1      45.004   4.634   9.984  0.00  0.00    +0.000 F 
ENDBRANCH   8  12
ENDBRANCH   1   4
BRANCH   1  20
ATOM     16  C   UNL     1      51.405   3.279  17.504  0.00  0.00    +0.000 A 
ATOM     17  C   UNL     1      52.225   4.379  17.688  0.00  0.00    +0.000 A 
ATOM     18  C   UNL     1      51.678   5.636  17.478  0.00  0.00    +0.000 A 
ATOM     19  C   UNL     1      50.334   5.742  17.121  0.00  0.00    +0.000 A 
ATOM     20  C   UNL     1      49.552   4.593  16.969  0.00  0.00    +0.000 A 
ATOM     21  N   UNL     1      50.095   3.354  17.134  0.00  0.00    +0.000 NA
BRANCH  16  23
ATOM     22  N   UNL     1      52.961   1.819  18.656  0.00  0.00    +0.000 N 
ATOM     23  C   UNL     1      51.950   1.902  17.737  0.00  0.00    +0.000 C 
ATOM     24  O   UNL     1      51.528   0.913  17.152  0.00  0.00    +0.000 OA
ATOM     25  H   UNL     1      53.393   0.928  18.846  0.00  0.00    +0.000 HD
ATOM     26  H   UNL     1      53.295   2.667  19.104  0.00  0.00    +0.000 HD
ENDBRANCH  16  23
ENDBRANCH   1  20
TORSDOF 4
ENDMDL
MODEL 5
REMARK VINA RESULT:    -6.882      3.823      5.284
REMARK INTER + INTRA:          -8.138
REMARK INTER:                  -7.954
REMARK INTRA:                  -0.184
REMARK UNBOUND:                 0.353
REMARK  Name = 
REMARK  4 active torsions:
REMARK  status: ('A' for Active; 'I' for Inactive)
REMARK    1  A    between atoms: C_2  and  C_4
REMARK    2  A    between atoms: C_8  and  C_9
REMARK    3  A    between atoms: C_9  and  N_10
REMARK    4  A    between atoms: C_14  and  C_15
REMARK                            x       y       z     vdW  Elec       q    Type
REMARK                         _______ _______ _______ _____ _____    ______ ____
ROOT
ATOM      1  C   UNL     1      47.128   7.776  13.201  0.00  0.00    +0.000 C 
ATOM      2  C   UNL     1      48.024   7.975  14.417  0.00  0.00    +0.000 C 
ATOM      3  C   UNL     1      48.597   7.395  13.167  0.00  0.00    +0.000 C 
ENDROOT
BRANCH   1   4
ATOM      4  N   UNL     1      46.133   6.704  13.252  0.00  0.00    +0.000 N 
ATOM      5  C   UNL     1      45.842   5.893  12.163  0.00  0.00    +0.000 A 
ATOM      6  N   UNL     1      45.196   4.754  12.449  0.00  0.00    +0.000 NA
ATOM      7  C   UNL     1      44.888   3.939  11.419  0.00  0.00    +0.000 A 
ATOM      8  C   UNL     1      45.191   4.216  10.111  0.00  0.00    +0.000 A 
ATOM      9  C   UNL     1      45.864   5.401   9.919  0.00  0.00    +0.000 A 
ATOM     10  N   UNL     1      46.202   6.242  10.917  0.00  0.00    +0.000 NA
ATOM     11  H   UNL     1      45.903   6.233  14.114  0.00  0.00    +0.000 HD
BRANCH   8  12
ATOM     12  C   UNL     1      44.827   3.317   8.991  0.00  0.00    +0.000 C 
ATOM     13  F   UNL     1      45.904   2.728   8.402  0.00  0.00    +0.000 F 
ATOM     14  F   UNL     1      44.014   2.298   9.383  0.00  0.00    +0.000 F 
ATOM     15  F   UNL     1      44.164   3.962   7.994  0.00  0.00    +0.000 F 
ENDBRANCH   8  12
ENDBRANCH   1   4
BRANCH   1  20
ATOM     16  C   UNL     1      44.820  10.290  11.694  0.00  0.00    +0.000 A 
ATOM     17  C   UNL     1      45.643  11.268  11.163  0.00  0.00    +0.000 A 
ATOM     18  C   UNL     1      47.010  11.138  11.355  0.00  0.00    +0.000 A 
ATOM     19  C   UNL     1      47.497  10.027  12.044  0.00  0.00    +0.000 A 
ATOM     20  C   UNL     1      46.615   9.062  12.540  0.00  0.00    +0.000 A 
ATOM     21  N   UNL     1      45.268   9.207  12.390  0.00  0.00    +0.000 NA
BRANCH  16  23
ATOM     22  N   UNL     1      42.782   9.381  10.745  0.00  0.00    +0.000 N 
ATOM     23  C   UNL     1      43.337  10.383  11.495  0.00  0.00    +0.000 C 
ATOM     24  O   UNL     1      42.659  11.286  11.966  0.00  0.00    +0.000 OA
ATOM     25  H   UNL     1      41.792   9.391  10.550  0.00  0.00    +0.000 HD
ATOM     26  H   UNL     1      43.382   8.661  10.357  0.00  0.00    +0.000 HD
ENDBRANCH  16  23
ENDBRANCH   1  20
TORSDOF 4
ENDMDL
MODEL 6
REMARK VINA RESULT:    -6.781      4.345      7.054
REMARK INTER + INTRA:          -8.014
REMARK INTER:                  -8.211
REMARK INTRA:                   0.198
REMARK UNBOUND:                 0.353
REMARK  Name = 
REMARK  4 active torsions:
REMARK  status: ('A' for Active; 'I' for Inactive)
REMARK    1  A    between atoms: C_2  and  C_4
REMARK    2  A    between atoms: C_8  and  C_9
REMARK    3  A    between atoms: C_9  and  N_10
REMARK    4  A    between atoms: C_14  and  C_15
REMARK                            x       y       z     vdW  Elec       q    Type
REMARK                         _______ _______ _______ _____ _____    ______ ____
ROOT
ATOM      1  C   UNL     1      49.447   6.528  17.166  0.00  0.00    +0.000 C 
ATOM      2  C   UNL     1      49.459   7.684  18.159  0.00  0.00    +0.000 C 
ATOM      3  C   UNL     1      48.303   6.739  18.143  0.00  0.00    +0.000 C 
ENDROOT
BRANCH   1   4
ATOM      4  N   UNL     1      49.221   6.841  15.754  0.00  0.00    +0.000 N 
ATOM      5  C   UNL     1      48.280   6.179  14.976  0.00  0.00    +0.000 A 
ATOM      6  N   UNL     1      47.937   6.797  13.837  0.00  0.00    +0.000 NA
ATOM      7  C   UNL     1      47.030   6.185  13.048  0.00  0.00    +0.000 A 
ATOM      8  C   UNL     1      46.454   4.976  13.343  0.00  0.00    +0.000 A 
ATOM      9  C   UNL     1      46.861   4.426  14.538  0.00  0.00    +0.000 A 
ATOM     10  N   UNL     1      47.756   5.005  15.364  0.00  0.00    +0.000 NA
ATOM     11  H   UNL     1      49.410   7.757  15.376  0.00  0.00    +0.000 HD
BRANCH   8  12
ATOM     12  C   UNL     1      45.474   4.311  12.454  0.00  0.00    +0.000 C 
ATOM     13  F   UNL     1      44.184   4.478  12.856  0.00  0.00    +0.000 F 
ATOM     14  F   UNL     1      45.529   4.777  11.176  0.00  0.00    +0.000 F 
ATOM     15  F   UNL     1      45.667   2.968  12.371  0.00  0.00    +0.000 F 
ENDBRANCH   8  12
ENDBRANCH   1   4
BRANCH   1  20
ATOM     16  C   UNL     1      51.099   3.189  17.366  0.00  0.00    +0.000 A 
ATOM     17  C   UNL     1      52.316   3.421  17.984  0.00  0.00    +0.000 A 
ATOM     18  C   UNL     1      52.643   4.732  18.296  0.00  0.00    +0.000 A 
ATOM     19  C   UNL     1      51.734   5.748  18.003  0.00  0.00    +0.000 A 
ATOM     20  C   UNL     1      50.511   5.447  17.396  0.00  0.00    +0.000 A 
ATOM     21  N   UNL     1      50.202   4.166  17.050  0.00  0.00    +0.000 NA
BRANCH  16  23
ATOM     22  N   UNL     1      51.334   0.805  17.739  0.00  0.00    +0.000 N 
ATOM     23  C   UNL     1      50.698   1.786  17.026  0.00  0.00    +0.000 C 
ATOM     24  O   UNL     1      49.860   1.522  16.173  0.00  0.00    +0.000 OA
ATOM     25  H   UNL     1      51.131  -0.165  17.547  0.00  0.00    +0.000 HD
ATOM     26  H   UNL     1      52.036   1.065  18.424  0.00  0.00    +0.000 HD
ENDBRANCH  16  23
ENDBRANCH   1  20
TORSDOF 4
ENDMDL
MODEL 7
REMARK VINA RESULT:    -6.737      4.545      7.318
REMARK INTER + INTRA:          -7.959
REMARK INTER:                  -7.914
REMARK INTRA:                  -0.045
REMARK UNBOUND:                 0.353
REMARK  Name = 
REMARK  4 active torsions:
REMARK  status: ('A' for Active; 'I' for Inactive)
REMARK    1  A    between atoms: C_2  and  C_4
REMARK    2  A    between atoms: C_8  and  C_9
REMARK    3  A    between atoms: C_9  and  N_10
REMARK    4  A    between atoms: C_14  and  C_15
REMARK                            x       y       z     vdW  Elec       q    Type
REMARK                         _______ _______ _______ _____ _____    ______ ____
ROOT
ATOM      1  C   UNL     1      47.293   7.138  12.539  0.00  0.00    +0.000 C 
ATOM      2  C   UNL     1      47.668   8.392  11.758  0.00  0.00    +0.000 C 
ATOM      3  C   UNL     1      48.556   7.193  11.697  0.00  0.00    +0.000 C 
ENDROOT
BRANCH   1   4
ATOM      4  N   UNL     1      47.427   7.174  13.996  0.00  0.00    +0.000 N 
ATOM      5  C   UNL     1      47.623   6.033  14.763  0.00  0.00    +0.000 A 
ATOM      6  N   UNL     1      48.079   6.245  16.005  0.00  0.00    +0.000 NA
ATOM      7  C   UNL     1      48.278   5.164  16.787  0.00  0.00    +0.000 A 
ATOM      8  C   UNL     1      48.034   3.876  16.384  0.00  0.00    +0.000 A 
ATOM      9  C   UNL     1      47.579   3.759  15.090  0.00  0.00    +0.000 A 
ATOM     10  N   UNL     1      47.375   4.809  14.268  0.00  0.00    +0.000 NA
ATOM     11  H   UNL     1      47.778   7.987  14.478  0.00  0.00    +0.000 HD
BRANCH   8  12
ATOM     12  C   UNL     1      48.241   2.703  17.264  0.00  0.00    +0.000 C 
ATOM     13  F   UNL     1      48.987   2.983  18.367  0.00  0.00    +0.000 F 
ATOM     14  F   UNL     1      47.071   2.185  17.727  0.00  0.00    +0.000 F 
ATOM     15  F   UNL     1      48.879   1.680  16.634  0.00  0.00    +0.000 F 
ENDBRANCH   8  12
ENDBRANCH   1   4
BRANCH   1  20
ATOM     16  C   UNL     1      44.975   5.141  10.404  0.00  0.00    +0.000 A 
ATOM     17  C   UNL     1      43.736   5.245  11.015  0.00  0.00    +0.000 A 
ATOM     18  C   UNL     1      43.661   5.946  12.209  0.00  0.00    +0.000 A 
ATOM     19  C   UNL     1      44.815   6.534  12.727  0.00  0.00    +0.000 A 
ATOM     20  C   UNL     1      46.034   6.409  12.053  0.00  0.00    +0.000 A 
ATOM     21  N   UNL     1      46.121   5.687  10.901  0.00  0.00    +0.000 NA
BRANCH  16  23
ATOM     22  N   UNL     1      44.278   3.321   8.963  0.00  0.00    +0.000 N 
ATOM     23  C   UNL     1      45.099   4.407   9.104  0.00  0.00    +0.000 C 
ATOM     24  O   UNL     1      45.877   4.745   8.221  0.00  0.00    +0.000 OA
ATOM     25  H   UNL     1      44.323   2.764   8.123  0.00  0.00    +0.000 HD
ATOM     26  H   UNL     1      43.661   3.063   9.727  0.00  0.00    +0.000 HD
ENDBRANCH  16  23
ENDBRANCH   1  20
TORSDOF 4
ENDMDL
MODEL 8
REMARK VINA RESULT:    -6.456      3.984      6.382
REMARK INTER + INTRA:          -7.612
REMARK INTER:                  -7.232
REMARK INTRA:                  -0.380
REMARK UNBOUND:                 0.353
REMARK  Name = 
REMARK  4 active torsions:
REMARK  status: ('A' for Active; 'I' for Inactive)
REMARK    1  A    between atoms: C_2  and  C_4
REMARK    2  A    between atoms: C_8  and  C_9
REMARK    3  A    between atoms: C_9  and  N_10
REMARK    4  A    between atoms: C_14  and  C_15
REMARK                            x       y       z     vdW  Elec       q    Type
REMARK                         _______ _______ _______ _____ _____    ______ ____
ROOT
ATOM      1  C   UNL     1      49.236   7.110  16.425  0.00  0.00    +0.000 C 
ATOM      2  C   UNL     1      50.090   8.070  17.243  0.00  0.00    +0.000 C 
ATOM      3  C   UNL     1      48.678   8.432  16.922  0.00  0.00    +0.000 C 
ENDROOT
BRANCH   1   4
ATOM      4  N   UNL     1      49.535   6.974  14.998  0.00  0.00    +0.000 N 
ATOM      5  C   UNL     1      48.560   6.702  14.047  0.00  0.00    +0.000 A 
ATOM      6  N   UNL     1      48.908   6.959  12.778  0.00  0.00    +0.000 NA
ATOM      7  C   UNL     1      47.992   6.704  11.820  0.00  0.00    +0.000 A 
ATOM      8  C   UNL     1      46.744   6.194  12.074  0.00  0.00    +0.000 A 
ATOM      9  C   UNL     1      46.477   5.975  13.407  0.00  0.00    +0.000 A 
ATOM     10  N   UNL     1      47.355   6.224  14.399  0.00  0.00    +0.000 NA
ATOM     11  H   UNL     1      50.323   7.439  14.574  0.00  0.00    +0.000 HD
BRANCH   8  12
ATOM     12  C   UNL     1      45.760   5.903  11.006  0.00  0.00    +0.000 C 
ATOM     13  F   UNL     1      44.748   6.812  10.945  0.00  0.00    +0.000 F 
ATOM     14  F   UNL     1      46.323   5.889   9.767  0.00  0.00    +0.000 F 
ATOM     15  F   UNL     1      45.163   4.691  11.160  0.00  0.00    +0.000 F 
ENDBRANCH   8  12
ENDBRANCH   1   4
BRANCH   1  20
ATOM     16  C   UNL     1      49.286   3.494  17.341  0.00  0.00    +0.000 A 
ATOM     17  C   UNL     1      48.185   3.310  18.160  0.00  0.00    +0.000 A 
ATOM     18  C   UNL     1      47.423   4.425  18.480  0.00  0.00    +0.000 A 
ATOM     19  C   UNL     1      47.777   5.665  17.950  0.00  0.00    +0.000 A 
ATOM     20  C   UNL     1      48.891   5.783  17.112  0.00  0.00    +0.000 A 
ATOM     21  N   UNL     1      49.666   4.698  16.828  0.00  0.00    +0.000 NA
BRANCH  16  23
ATOM     22  N   UNL     1      51.150   2.018  17.817  0.00  0.00    +0.000 N 
ATOM     23  C   UNL     1      50.127   2.315  16.957  0.00  0.00    +0.000 C 
ATOM     24  O   UNL     1      49.923   1.654  15.946  0.00  0.00    +0.000 OA
ATOM     25  H   UNL     1      51.771   1.251  17.610  0.00  0.00    +0.000 HD
ATOM     26  H   UNL     1      51.296   2.602  18.634  0.00  0.00    +0.000 HD
ENDBRANCH  16  23
ENDBRANCH   1  20
TORSDOF 4
ENDMDL
MODEL 9
REMARK VINA RESULT:    -6.446      3.351      5.214
REMARK INTER + INTRA:          -7.600
REMARK INTER:                  -7.979
REMARK INTRA:                   0.378
REMARK UNBOUND:                 0.353
REMARK  Name = 
REMARK  4 active torsions:
REMARK  status: ('A' for Active; 'I' for Inactive)
REMARK    1  A    between atoms: C_2  and  C_4
REMARK    2  A    between atoms: C_8  and  C_9
REMARK    3  A    between atoms: C_9  and  N_10
REMARK    4  A    between atoms: C_14  and  C_15
REMARK                            x       y       z     vdW  Elec       q    Type
REMARK                         _______ _______ _______ _____ _____    ______ ____
ROOT
ATOM      1  C   UNL     1      48.344   7.567  14.017  0.00  0.00    +0.000 C 
ATOM      2  C   UNL     1      49.335   7.226  12.911  0.00  0.00    +0.000 C 
ATOM      3  C   UNL     1      49.376   8.577  13.546  0.00  0.00    +0.000 C 
ENDROOT
BRANCH   1   4
ATOM      4  N   UNL     1      46.945   7.776  13.641  0.00  0.00    +0.000 N 
ATOM      5  C   UNL     1      46.209   6.840  12.925  0.00  0.00    +0.000 A 
ATOM      6  N   UNL     1      44.879   7.001  12.966  0.00  0.00    +0.000 NA
ATOM      7  C   UNL     1      44.126   6.116  12.279  0.00  0.00    +0.000 A 
ATOM      8  C   UNL     1      44.645   5.080  11.545  0.00  0.00    +0.000 A 
ATOM      9  C   UNL     1      46.018   4.992  11.574  0.00  0.00    +0.000 A 
ATOM     10  N   UNL     1      46.811   5.845  12.253  0.00  0.00    +0.000 NA
ATOM     11  H   UNL     1      46.332   8.370  14.180  0.00  0.00    +0.000 HD
BRANCH   8  12
ATOM     12  C   UNL     1      43.802   4.131  10.783  0.00  0.00    +0.000 C 
ATOM     13  F   UNL     1      42.606   3.874  11.380  0.00  0.00    +0.000 F 
ATOM     14  F   UNL     1      43.505   4.584   9.534  0.00  0.00    +0.000 F 
ATOM     15  F   UNL     1      44.398   2.921  10.610  0.00  0.00    +0.000 F 
ENDBRANCH   8  12
ENDBRANCH   1   4
BRANCH   1  20
ATOM     16  C   UNL     1      48.276   4.789  16.506  0.00  0.00    +0.000 A 
ATOM     17  C   UNL     1      48.619   5.374  17.713  0.00  0.00    +0.000 A 
ATOM     18  C   UNL     1      48.946   6.721  17.710  0.00  0.00    +0.000 A 
ATOM     19  C   UNL     1      48.892   7.431  16.511  0.00  0.00    +0.000 A 
ATOM     20  C   UNL     1      48.521   6.788  15.326  0.00  0.00    +0.000 A 
ATOM     21  N   UNL     1      48.238   5.455  15.317  0.00  0.00    +0.000 NA
BRANCH  16  23
ATOM     22  N   UNL     1      47.006   2.939  17.423  0.00  0.00    +0.000 N 
ATOM     23  C   UNL     1      47.899   3.339  16.466  0.00  0.00    +0.000 C 
ATOM     24  O   UNL     1      48.352   2.557  15.640  0.00  0.00    +0.000 OA
ATOM     25  H   UNL     1      46.724   1.972  17.471  0.00  0.00    +0.000 HD
ATOM     26  H   UNL     1      46.669   3.615  18.101  0.00  0.00    +0.000 HD
ENDBRANCH  16  23
ENDBRANCH   1  20
TORSDOF 4
ENDMDL
