MODEL 1
REMARK VINA RESULT:    -6.853      0.000      0.000
REMARK INTER + INTRA:          -9.026
REMARK INTER:                  -8.656
REMARK INTRA:                  -0.369
REMARK UNBOUND:                -0.369
REMARK  Name = 
REMARK  5 active torsions:
REMARK  status: ('A' for Active; 'I' for Inactive)
REMARK    1  A    between atoms: N_1  and  C_2
REMARK    2  A    between atoms: C_2  and  C_3
REMARK    3  A    between atoms: C_6  and  N_7
REMARK    4  A    between atoms: N_7  and  C_8
REMARK    5  A    between atoms: C_8  and  C_9
REMARK                            x       y       z     vdW  Elec       q    Type
REMARK                         _______ _______ _______ _____ _____    ______ ____
ROOT
ATOM      1  C   UNL     1      47.061   2.344   7.308  0.00  0.00    +0.000 A 
ATOM      2  C   UNL     1      46.698   3.687   7.267  0.00  0.00    +0.000 A 
ATOM      3  C   UNL     1      45.602   4.121   8.018  0.00  0.00    +0.000 A 
ATOM      4  C   UNL     1      44.895   3.230   8.824  0.00  0.00    +0.000 A 
ATOM      5  C   UNL     1      45.336   1.904   8.778  0.00  0.00    +0.000 A 
ATOM      6  N   UNL     1      46.396   1.442   8.065  0.00  0.00    +0.000 NA
ENDROOT
BRANCH   4   7
ATOM      7  N   UNL     1      43.740   3.566   9.524  0.00  0.00    +0.000 N 
ATOM      8  H   UNL     1      43.252   2.757   9.904  0.00  0.00    +0.000 HD
BRANCH   7   9
ATOM      9  C   UNL     1      43.696   4.719  10.419  0.00  0.00    +0.000 C 
BRANCH   9  10
ATOM     10  C   UNL     1      43.247   4.287  11.829  0.00  0.00    +0.000 C 
ATOM     11  C   UNL     1      43.476   5.420  12.844  0.00  0.00    +0.000 C 
ATOM     12  C   UNL     1      44.959   5.624  13.157  0.00  0.00    +0.000 C 
ATOM     13  N   UNL     1      45.599   4.392  13.617  0.00  0.00    +0.000 NA
ATOM     14  C   UNL     1      45.444   3.302  12.651  0.00  0.00    +0.000 C 
ATOM     15  C   UNL     1      43.976   3.027  12.332  0.00  0.00    +0.000 C 
ATOM     16  H   UNL     1      45.171   4.109  14.499  0.00  0.00    +0.000 HD
ENDBRANCH   9  10
ENDBRANCH   7   9
ENDBRANCH   4   7
BRANCH   1  17
ATOM     17  C   UNL     1      48.194   1.832   6.443  0.00  0.00    +0.000 C 
BRANCH  17  18
ATOM     18  N   UNL     1      48.278   2.499   5.141  0.00  0.00    +0.000 NA
ATOM     19  H   UNL     1      47.738   3.362   5.189  0.00  0.00    +0.000 HD
ATOM     20  H   UNL     1      47.802   1.909   4.458  0.00  0.00    +0.000 HD
ENDBRANCH  17  18
ENDBRANCH   1  17
TORSDOF 5
ENDMDL
MODEL 2
REMARK VINA RESULT:    -6.563      1.709      2.269
REMARK INTER + INTRA:          -8.659
REMARK INTER:                  -8.392
REMARK INTRA:                  -0.267
REMARK UNBOUND:                -0.369
REMARK  Name = 
REMARK  5 active torsions:
REMARK  status: ('A' for Active; 'I' for Inactive)
REMARK    1  A    between atoms: N_1  and  C_2
REMARK    2  A    between atoms: C_2  and  C_3
REMARK    3  A    between atoms: C_6  and  N_7
REMARK    4  A    between atoms: N_7  and  C_8
REMARK    5  A    between atoms: C_8  and  C_9
REMARK                            x       y       z     vdW  Elec       q    Type
REMARK                         _______ _______ _______ _____ _____    ______ ____
ROOT
ATOM      1  C   UNL     1      46.324   1.694   7.812  0.00  0.00    +0.000 A 
ATOM      2  C   UNL     1      46.425   2.999   7.340  0.00  0.00    +0.000 A 
ATOM      3  C   UNL     1      45.593   3.987   7.878  0.00  0.00    +0.000 A 
ATOM      4  C   UNL     1      44.692   3.679   8.895  0.00  0.00    +0.000 A 
ATOM      5  C   UNL     1      44.663   2.336   9.282  0.00  0.00    +0.000 A 
ATOM      6  N   UNL     1      45.453   1.348   8.788  0.00  0.00    +0.000 NA
ENDROOT
BRANCH   4   7
ATOM      7  N   UNL     1      43.769   4.583   9.413  0.00  0.00    +0.000 N 
ATOM      8  H   UNL     1      42.805   4.268   9.321  0.00  0.00    +0.000 HD
BRANCH   7   9
ATOM      9  C   UNL     1      44.011   5.291  10.666  0.00  0.00    +0.000 C 
BRANCH   9  10
ATOM     10  C   UNL     1      45.517   5.294  10.998  0.00  0.00    +0.000 C 
ATOM     11  C   UNL     1      45.797   4.462  12.262  0.00  0.00    +0.000 C 
ATOM     12  C   UNL     1      45.308   5.159  13.532  0.00  0.00    +0.000 C 
ATOM     13  N   UNL     1      45.867   6.503  13.673  0.00  0.00    +0.000 NA
ATOM     14  C   UNL     1      45.577   7.342  12.507  0.00  0.00    +0.000 C 
ATOM     15  C   UNL     1      46.082   6.711  11.211  0.00  0.00    +0.000 C 
ATOM     16  H   UNL     1      46.880   6.428  13.776  0.00  0.00    +0.000 HD
ENDBRANCH   9  10
ENDBRANCH   7   9
ENDBRANCH   4   7
BRANCH   1  17
ATOM     17  C   UNL     1      47.155   0.591   7.192  0.00  0.00    +0.000 C 
BRANCH  17  18
ATOM     18  N   UNL     1      46.811  -0.745   7.689  0.00  0.00    +0.000 NA
ATOM     19  H   UNL     1      45.797  -0.839   7.675  0.00  0.00    +0.000 HD
ATOM     20  H   UNL     1      47.082  -0.790   8.671  0.00  0.00    +0.000 HD
ENDBRANCH  17  18
ENDBRANCH   1  17
TORSDOF 5
ENDMDL
MODEL 3
REMARK VINA RESULT:    -5.798      1.551      5.807
REMARK INTER + INTRA:          -7.693
REMARK INTER:                  -7.445
REMARK INTRA:                  -0.248
REMARK UNBOUND:                -0.369
REMARK  Name = 
REMARK  5 active torsions:
REMARK  status: ('A' for Active; 'I' for Inactive)
REMARK    1  A    between atoms: N_1  and  C_2
REMARK    2  A    between atoms: C_2  and  C_3
REMARK    3  A    between atoms: C_6  and  N_7
REMARK    4  A    between atoms: N_7  and  C_8
REMARK    5  A    between atoms: C_8  and  C_9
REMARK                            x       y       z     vdW  Elec       q    Type
REMARK                         _______ _______ _______ _____ _____    ______ ____
ROOT
ATOM      1  C   UNL     1      45.698   4.539  12.491  0.00  0.00    +0.000 A 
ATOM      2  C   UNL     1      45.948   5.561  11.582  0.00  0.00    +0.000 A 
ATOM      3  C   UNL     1      45.402   5.482  10.297  0.00  0.00    +0.000 A 
ATOM      4  C   UNL     1      44.592   4.408   9.935  0.00  0.00    +0.000 A 
ATOM      5  C   UNL     1      44.419   3.431  10.921  0.00  0.00    +0.000 A 
ATOM      6  N   UNL     1      44.929   3.470  12.179  0.00  0.00    +0.000 NA
ENDROOT
BRANCH   4   7
ATOM      7  N   UNL     1      44.092   4.212   8.651  0.00  0.00    +0.000 N 
ATOM      8  H   UNL     1      43.795   5.076   8.201  0.00  0.00    +0.000 HD
BRANCH   7   9
ATOM      9  C   UNL     1      44.720   3.280   7.719  0.00  0.00    +0.000 C 
BRANCH   9  10
ATOM     10  C   UNL     1      46.225   3.148   8.025  0.00  0.00    +0.000 C 
ATOM     11  C   UNL     1      47.065   3.808   6.917  0.00  0.00    +0.000 C 
ATOM     12  C   UNL     1      47.049   2.997   5.620  0.00  0.00    +0.000 C 
ATOM     13  N   UNL     1      47.479   1.615   5.831  0.00  0.00    +0.000 NA
ATOM     14  C   UNL     1      46.667   0.938   6.845  0.00  0.00    +0.000 C 
ATOM     15  C   UNL     1      46.680   1.685   8.177  0.00  0.00    +0.000 C 
ATOM     16  H   UNL     1      48.452   1.616   6.139  0.00  0.00    +0.000 HD
ENDBRANCH   9  10
ENDBRANCH   7   9
ENDBRANCH   4   7
BRANCH   1  17
ATOM     17  C   UNL     1      46.342   4.560  13.862  0.00  0.00    +0.000 C 
BRANCH  17  18
ATOM     18  N   UNL     1      47.200   3.399  14.119  0.00  0.00    +0.000 NA
ATOM     19  H   UNL     1      48.171   3.703  14.068  0.00  0.00    +0.000 HD
ATOM     20  H   UNL     1      47.072   2.742  13.349  0.00  0.00    +0.000 HD
ENDBRANCH  17  18
ENDBRANCH   1  17
TORSDOF 5
ENDMDL
MODEL 4
REMARK VINA RESULT:    -5.363      3.315      6.212
REMARK INTER + INTRA:          -7.143
REMARK INTER:                  -6.763
REMARK INTRA:                  -0.381
REMARK UNBOUND:                -0.369
REMARK  Name = 
REMARK  5 active torsions:
REMARK  status: ('A' for Active; 'I' for Inactive)
REMARK    1  A    between atoms: N_1  and  C_2
REMARK    2  A    between atoms: C_2  and  C_3
REMARK    3  A    between atoms: C_6  and  N_7
REMARK    4  A    between atoms: N_7  and  C_8
REMARK    5  A    between atoms: C_8  and  C_9
REMARK                            x       y       z     vdW  Elec       q    Type
REMARK                         _______ _______ _______ _____ _____    ______ ____
ROOT
ATOM      1  C   UNL     1      48.846   6.847  14.089  0.00  0.00    +0.000 A 
ATOM      2  C   UNL     1      48.128   6.822  12.897  0.00  0.00    +0.000 A 
ATOM      3  C   UNL     1      47.061   5.929  12.762  0.00  0.00    +0.000 A 
ATOM      4  C   UNL     1      46.698   5.092  13.815  0.00  0.00    +0.000 A 
ATOM      5  C   UNL     1      47.496   5.190  14.959  0.00  0.00    +0.000 A 
ATOM      6  N   UNL     1      48.538   6.043  15.132  0.00  0.00    +0.000 NA
ENDROOT
BRANCH   4   7
ATOM      7  N   UNL     1      45.711   4.114  13.724  0.00  0.00    +0.000 N 
ATOM      8  H   UNL     1      44.833   4.389  14.160  0.00  0.00    +0.000 HD
BRANCH   7   9
ATOM      9  C   UNL     1      45.514   3.338  12.504  0.00  0.00    +0.000 C 
BRANCH   9  10
ATOM     10  C   UNL     1      44.012   3.227  12.175  0.00  0.00    +0.000 C 
ATOM     11  C   UNL     1      43.802   2.922  10.681  0.00  0.00    +0.000 C 
ATOM     12  C   UNL     1      44.114   4.131   9.797  0.00  0.00    +0.000 C 
ATOM     13  N   UNL     1      43.346   5.312  10.188  0.00  0.00    +0.000 NA
ATOM     14  C   UNL     1      43.560   5.663  11.594  0.00  0.00    +0.000 C 
ATOM     15  C   UNL     1      43.224   4.502  12.529  0.00  0.00    +0.000 C 
ATOM     16  H   UNL     1      42.354   5.121  10.047  0.00  0.00    +0.000 HD
ENDBRANCH   9  10
ENDBRANCH   7   9
ENDBRANCH   4   7
BRANCH   1  17
ATOM     17  C   UNL     1      50.056   7.747  14.233  0.00  0.00    +0.000 C 
BRANCH  17  18
ATOM     18  N   UNL     1      51.138   7.145  15.016  0.00  0.00    +0.000 NA
ATOM     19  H   UNL     1      51.153   7.588  15.933  0.00  0.00    +0.000 HD
ATOM     20  H   UNL     1      52.021   7.397  14.570  0.00  0.00    +0.000 HD
ENDBRANCH  17  18
ENDBRANCH   1  17
TORSDOF 5
ENDMDL
MODEL 5
REMARK VINA RESULT:    -5.327      2.079      6.257
REMARK INTER + INTRA:          -7.097
REMARK INTER:                  -6.729
REMARK INTRA:                  -0.369
REMARK UNBOUND:                -0.369
REMARK  Name = 
REMARK  5 active torsions:
REMARK  status: ('A' for Active; 'I' for Inactive)
REMARK    1  A    between atoms: N_1  and  C_2
REMARK    2  A    between atoms: C_2  and  C_3
REMARK    3  A    between atoms: C_6  and  N_7
REMARK    4  A    between atoms: N_7  and  C_8
REMARK    5  A    between atoms: C_8  and  C_9
REMARK                            x       y       z     vdW  Elec       q    Type
REMARK                         _______ _______ _______ _____ _____    ______ ____
ROOT
ATOM      1  C   UNL     1      45.445   7.270  12.583  0.00  0.00    +0.000 A 
ATOM      2  C   UNL     1      44.555   7.158  11.520  0.00  0.00    +0.000 A 
ATOM      3  C   UNL     1      44.234   5.889  11.029  0.00  0.00    +0.000 A 
ATOM      4  C   UNL     1      44.773   4.744  11.612  0.00  0.00    +0.000 A 
ATOM      5  C   UNL     1      45.667   4.974  12.663  0.00  0.00    +0.000 A 
ATOM      6  N   UNL     1      46.003   6.187  13.171  0.00  0.00    +0.000 NA
ENDROOT
BRANCH   4   7
ATOM      7  N   UNL     1      44.576   3.457  11.121  0.00  0.00    +0.000 N 
ATOM      8  H   UNL     1      43.610   3.272  10.859  0.00  0.00    +0.000 HD
BRANCH   7   9
ATOM      9  C   UNL     1      45.534   2.829  10.216  0.00  0.00    +0.000 C 
BRANCH   9  10
ATOM     10  C   UNL     1      44.850   2.459   8.884  0.00  0.00    +0.000 C 
ATOM     11  C   UNL     1      45.418   1.141   8.328  0.00  0.00    +0.000 C 
ATOM     12  C   UNL     1      46.839   1.308   7.787  0.00  0.00    +0.000 C 
ATOM     13  N   UNL     1      46.923   2.364   6.780  0.00  0.00    +0.000 NA
ATOM     14  C   UNL     1      46.437   3.649   7.290  0.00  0.00    +0.000 C 
ATOM     15  C   UNL     1      45.003   3.549   7.808  0.00  0.00    +0.000 C 
ATOM     16  H   UNL     1      46.355   2.098   5.975  0.00  0.00    +0.000 HD
ENDBRANCH   9  10
ENDBRANCH   7   9
ENDBRANCH   4   7
BRANCH   1  17
ATOM     17  C   UNL     1      45.871   8.635  13.082  0.00  0.00    +0.000 C 
BRANCH  17  18
ATOM     18  N   UNL     1      44.916   9.697  12.757  0.00  0.00    +0.000 NA
ATOM     19  H   UNL     1      43.982   9.291  12.735  0.00  0.00    +0.000 HD
ATOM     20  H   UNL     1      45.108  10.007  11.804  0.00  0.00    +0.000 HD
ENDBRANCH  17  18
ENDBRANCH   1  17
TORSDOF 5
ENDMDL
MODEL 6
REMARK VINA RESULT:    -5.215      3.888      6.244
REMARK INTER + INTRA:          -6.956
REMARK INTER:                  -6.650
REMARK INTRA:                  -0.306
REMARK UNBOUND:                -0.369
REMARK  Name = 
REMARK  5 active torsions:
REMARK  status: ('A' for Active; 'I' for Inactive)
REMARK    1  A    between atoms: N_1  and  C_2
REMARK    2  A    between atoms: C_2  and  C_3
REMARK    3  A    between atoms: C_6  and  N_7
REMARK    4  A    between atoms: N_7  and  C_8
REMARK    5  A    between atoms: C_8  and  C_9
REMARK                            x       y       z     vdW  Elec       q    Type
REMARK                         _______ _______ _______ _____ _____    ______ ____
ROOT
ATOM      1  C   UNL     1      44.697   3.975  11.936  0.00  0.00    +0.000 A 
ATOM      2  C   UNL     1      44.604   5.358  12.063  0.00  0.00    +0.000 A 
ATOM      3  C   UNL     1      45.446   6.019  12.962  0.00  0.00    +0.000 A 
ATOM      4  C   UNL     1      46.389   5.311  13.704  0.00  0.00    +0.000 A 
ATOM      5  C   UNL     1      46.385   3.926  13.510  0.00  0.00    +0.000 A 
ATOM      6  N   UNL     1      45.587   3.246  12.647  0.00  0.00    +0.000 NA
ENDROOT
BRANCH   4   7
ATOM      7  N   UNL     1      47.193   5.885  14.685  0.00  0.00    +0.000 N 
ATOM      8  H   UNL     1      46.696   6.553  15.270  0.00  0.00    +0.000 HD
BRANCH   7   9
ATOM      9  C   UNL     1      48.165   5.095  15.435  0.00  0.00    +0.000 C 
BRANCH   9  10
ATOM     10  C   UNL     1      47.614   4.753  16.834  0.00  0.00    +0.000 C 
ATOM     11  C   UNL     1      48.531   5.317  17.933  0.00  0.00    +0.000 C 
ATOM     12  C   UNL     1      49.847   4.544  18.039  0.00  0.00    +0.000 C 
ATOM     13  N   UNL     1      49.629   3.113  18.242  0.00  0.00    +0.000 NA
ATOM     14  C   UNL     1      48.800   2.530  17.185  0.00  0.00    +0.000 C 
ATOM     15  C   UNL     1      47.452   3.239  17.062  0.00  0.00    +0.000 C 
ATOM     16  H   UNL     1      49.160   2.975  19.138  0.00  0.00    +0.000 HD
ENDBRANCH   9  10
ENDBRANCH   7   9
ENDBRANCH   4   7
BRANCH   1  17
ATOM     17  C   UNL     1      43.744   3.225  11.029  0.00  0.00    +0.000 C 
BRANCH  17  18
ATOM     18  N   UNL     1      43.068   2.107  11.694  0.00  0.00    +0.000 NA
ATOM     19  H   UNL     1      43.045   1.319  11.049  0.00  0.00    +0.000 HD
ATOM     20  H   UNL     1      42.094   2.376  11.840  0.00  0.00    +0.000 HD
ENDBRANCH  17  18
ENDBRANCH   1  17
TORSDOF 5
ENDMDL
MODEL 7
REMARK VINA RESULT:    -4.966      3.654      6.741
REMARK INTER + INTRA:          -6.641
REMARK INTER:                  -6.272
REMARK INTRA:                  -0.370
REMARK UNBOUND:                -0.369
REMARK  Name = 
REMARK  5 active torsions:
REMARK  status: ('A' for Active; 'I' for Inactive)
REMARK    1  A    between atoms: N_1  and  C_2
REMARK    2  A    between atoms: C_2  and  C_3
REMARK    3  A    between atoms: C_6  and  N_7
REMARK    4  A    between atoms: N_7  and  C_8
REMARK    5  A    between atoms: C_8  and  C_9
REMARK                            x       y       z     vdW  Elec       q    Type
REMARK                         _______ _______ _______ _____ _____    ______ ____
ROOT
ATOM      1  C   UNL     1      48.054   4.208  16.222  0.00  0.00    +0.000 A 
ATOM      2  C   UNL     1      48.427   5.526  15.980  0.00  0.00    +0.000 A 
ATOM      3  C   UNL     1      47.961   6.167  14.827  0.00  0.00    +0.000 A 
ATOM      4  C   UNL     1      47.110   5.508  13.943  0.00  0.00    +0.000 A 
ATOM      5  C   UNL     1      46.812   4.183  14.276  0.00  0.00    +0.000 A 
ATOM      6  N   UNL     1      47.241   3.525  15.383  0.00  0.00    +0.000 NA
ENDROOT
BRANCH   4   7
ATOM      7  N   UNL     1      46.683   6.046  12.732  0.00  0.00    +0.000 N 
ATOM      8  H   UNL     1      47.074   5.569  11.922  0.00  0.00    +0.000 HD
BRANCH   7   9
ATOM      9  C   UNL     1      45.298   6.460  12.525  0.00  0.00    +0.000 C 
BRANCH   9  10
ATOM     10  C   UNL     1      44.820   6.049  11.118  0.00  0.00    +0.000 C 
ATOM     11  C   UNL     1      43.296   6.216  10.990  0.00  0.00    +0.000 C 
ATOM     12  C   UNL     1      42.531   5.154  11.782  0.00  0.00    +0.000 C 
ATOM     13  N   UNL     1      42.928   3.798  11.408  0.00  0.00    +0.000 NA
ATOM     14  C   UNL     1      44.368   3.586  11.564  0.00  0.00    +0.000 C 
ATOM     15  C   UNL     1      45.184   4.597  10.760  0.00  0.00    +0.000 C 
ATOM     16  H   UNL     1      42.679   3.640  10.430  0.00  0.00    +0.000 HD
ENDBRANCH   9  10
ENDBRANCH   7   9
ENDBRANCH   4   7
BRANCH   1  17
ATOM     17  C   UNL     1      48.607   3.465  17.419  0.00  0.00    +0.000 C 
BRANCH  17  18
ATOM     18  N   UNL     1      47.568   2.962  18.323  0.00  0.00    +0.000 NA
ATOM     19  H   UNL     1      47.953   2.933  19.266  0.00  0.00    +0.000 HD
ATOM     20  H   UNL     1      47.379   1.992  18.069  0.00  0.00    +0.000 HD
ENDBRANCH  17  18
ENDBRANCH   1  17
TORSDOF 5
ENDMDL
MODEL 8
REMARK VINA RESULT:    -4.934      4.005      6.262
REMARK INTER + INTRA:          -6.602
REMARK INTER:                  -6.328
REMARK INTRA:                  -0.274
REMARK UNBOUND:                -0.369
REMARK  Name = 
REMARK  5 active torsions:
REMARK  status: ('A' for Active; 'I' for Inactive)
REMARK    1  A    between atoms: N_1  and  C_2
REMARK    2  A    between atoms: C_2  and  C_3
REMARK    3  A    between atoms: C_6  and  N_7
REMARK    4  A    between atoms: N_7  and  C_8
REMARK    5  A    between atoms: C_8  and  C_9
REMARK                            x       y       z     vdW  Elec       q    Type
REMARK                         _______ _______ _______ _____ _____    ______ ____
ROOT
ATOM      1  C   UNL     1      44.767   3.883  11.485  0.00  0.00    +0.000 A 
ATOM      2  C   UNL     1      45.008   5.124  10.904  0.00  0.00    +0.000 A 
ATOM      3  C   UNL     1      45.791   6.058  11.589  0.00  0.00    +0.000 A 
ATOM      4  C   UNL     1      46.350   5.745  12.826  0.00  0.00    +0.000 A 
ATOM      5  C   UNL     1      46.031   4.478  13.323  0.00  0.00    +0.000 A 
ATOM      6  N   UNL     1      45.277   3.542  12.690  0.00  0.00    +0.000 NA
ENDROOT
BRANCH   4   7
ATOM      7  N   UNL     1      47.059   6.653  13.608  0.00  0.00    +0.000 N 
ATOM      8  H   UNL     1      46.815   6.606  14.596  0.00  0.00    +0.000 HD
BRANCH   7   9
ATOM      9  C   UNL     1      48.482   6.900  13.393  0.00  0.00    +0.000 C 
BRANCH   9  10
ATOM     10  C   UNL     1      48.700   7.664  12.072  0.00  0.00    +0.000 C 
ATOM     11  C   UNL     1      50.200   7.778  11.749  0.00  0.00    +0.000 C 
ATOM     12  C   UNL     1      50.915   8.764  12.674  0.00  0.00    +0.000 C 
ATOM     13  N   UNL     1      50.289  10.086  12.658  0.00  0.00    +0.000 NA
ATOM     14  C   UNL     1      48.868  10.023  13.010  0.00  0.00    +0.000 C 
ATOM     15  C   UNL     1      48.095   9.080  12.089  0.00  0.00    +0.000 C 
ATOM     16  H   UNL     1      50.376  10.479  11.720  0.00  0.00    +0.000 HD
ENDBRANCH   9  10
ENDBRANCH   7   9
ENDBRANCH   4   7
BRANCH   1  17
ATOM     17  C   UNL     1      43.857   2.883  10.802  0.00  0.00    +0.000 C 
BRANCH  17  18
ATOM     18  N   UNL     1      43.055   2.092  11.740  0.00  0.00    +0.000 NA
ATOM     19  H   UNL     1      43.109   2.533  12.657  0.00  0.00    +0.000 HD
ATOM     20  H   UNL     1      43.504   1.181  11.841  0.00  0.00    +0.000 HD
ENDBRANCH  17  18
ENDBRANCH   1  17
TORSDOF 5
ENDMDL
MODEL 9
REMARK VINA RESULT:    -4.650      3.849      6.354
REMARK INTER + INTRA:          -6.243
REMARK INTER:                  -5.870
REMARK INTRA:                  -0.373
REMARK UNBOUND:                -0.369
REMARK  Name = 
REMARK  5 active torsions:
REMARK  status: ('A' for Active; 'I' for Inactive)
REMARK    1  A    between atoms: N_1  and  C_2
REMARK    2  A    between atoms: C_2  and  C_3
REMARK    3  A    between atoms: C_6  and  N_7
REMARK    4  A    between atoms: N_7  and  C_8
REMARK    5  A    between atoms: C_8  and  C_9
REMARK                            x       y       z     vdW  Elec       q    Type
REMARK                         _______ _______ _______ _____ _____    ______ ____
ROOT
ATOM      1  C   UNL     1      49.458   8.433  13.068  0.00  0.00    +0.000 A 
ATOM      2  C   UNL     1      49.238   7.203  13.680  0.00  0.00    +0.000 A 
ATOM      3  C   UNL     1      47.945   6.673  13.702  0.00  0.00    +0.000 A 
ATOM      4  C   UNL     1      46.889   7.349  13.093  0.00  0.00    +0.000 A 
ATOM      5  C   UNL     1      47.220   8.582  12.522  0.00  0.00    +0.000 A 
ATOM      6  N   UNL     1      48.461   9.132  12.478  0.00  0.00    +0.000 NA
ENDROOT
BRANCH   4   7
ATOM      7  N   UNL     1      45.563   6.933  13.155  0.00  0.00    +0.000 N 
ATOM      8  H   UNL     1      44.958   7.425  12.500  0.00  0.00    +0.000 HD
BRANCH   7   9
ATOM      9  C   UNL     1      45.209   5.523  13.295  0.00  0.00    +0.000 C 
BRANCH   9  10
ATOM     10  C   UNL     1      45.372   4.792  11.948  0.00  0.00    +0.000 C 
ATOM     11  C   UNL     1      44.382   5.343  10.906  0.00  0.00    +0.000 C 
ATOM     12  C   UNL     1      42.942   4.917  11.196  0.00  0.00    +0.000 C 
ATOM     13  N   UNL     1      42.810   3.465  11.305  0.00  0.00    +0.000 NA
ATOM     14  C   UNL     1      43.703   2.909  12.325  0.00  0.00    +0.000 C 
ATOM     15  C   UNL     1      45.164   3.271  12.061  0.00  0.00    +0.000 C 
ATOM     16  H   UNL     1      43.042   3.045  10.405  0.00  0.00    +0.000 HD
ENDBRANCH   9  10
ENDBRANCH   7   9
ENDBRANCH   4   7
BRANCH   1  17
ATOM     17  C   UNL     1      50.833   9.068  13.100  0.00  0.00    +0.000 C 
BRANCH  17  18
ATOM     18  N   UNL     1      51.906   8.152  12.703  0.00  0.00    +0.000 NA
ATOM     19  H   UNL     1      52.768   8.459  13.150  0.00  0.00    +0.000 HD
ATOM     20  H   UNL     1      52.055   8.266  11.700  0.00  0.00    +0.000 HD
ENDBRANCH  17  18
ENDBRANCH   1  17
TORSDOF 5
ENDMDL
