MODEL 1
REMARK VINA RESULT:    -7.815      0.000      0.000
REMARK INTER + INTRA:         -10.967
REMARK INTER:                 -10.328
REMARK INTRA:                  -0.639
REMARK UNBOUND:                -0.639
REMARK  Name = 
REMARK  6 active torsions:
REMARK  status: ('A' for Active; 'I' for Inactive)
REMARK    1  A    between atoms: N_1  and  C_2
REMARK    2  A    between atoms: C_2  and  C_3
REMARK    3  A    between atoms: C_7  and  C_8
REMARK    4  A    between atoms: C_8  and  C_9
REMARK    5  A    between atoms: C_9  and  N_10
REMARK    6  A    between atoms: C_15  and  C_16
REMARK                            x       y       z     vdW  Elec       q    Type
REMARK                         _______ _______ _______ _____ _____    ______ ____
ROOT
ATOM      1  N   UNL     1      43.874   4.053  12.475  0.00  0.00    +0.000 N 
ATOM      2  C   UNL     1      45.125   4.567  12.829  0.00  0.00    +0.000 A 
ATOM      3  C   UNL     1      45.750   5.563  12.096  0.00  0.00    +0.000 A 
ATOM      4  C   UNL     1      46.975   6.007  12.536  0.00  0.00    +0.000 A 
ATOM      5  N   UNL     1      47.565   5.551  13.645  0.00  0.00    +0.000 NA
ATOM      6  C   UNL     1      46.864   4.605  14.315  0.00  0.00    +0.000 A 
ATOM      7  N   UNL     1      45.672   4.081  13.953  0.00  0.00    +0.000 NA
ATOM      8  H   UNL     1      43.717   3.220  13.038  0.00  0.00    +0.000 HD
ENDROOT
BRANCH   6   9
ATOM      9  C   UNL     1      47.503   4.124  15.599  0.00  0.00    +0.000 C 
ATOM     10  N   UNL     1      47.483   5.026  16.640  0.00  0.00    +0.000 N 
ATOM     11  O   UNL     1      48.010   3.016  15.746  0.00  0.00    +0.000 OA
ATOM     12  H   UNL     1      47.045   5.932  16.516  0.00  0.00    +0.000 HD
ATOM     13  H   UNL     1      47.875   4.761  17.534  0.00  0.00    +0.000 HD
ENDBRANCH   6   9
BRANCH   1  14
ATOM     14  C   UNL     1      43.597   3.928  11.042  0.00  0.00    +0.000 C 
BRANCH  14  15
ATOM     15  C   UNL     1      44.081   2.601  10.453  0.00  0.00    +0.000 C 
BRANCH  15  20
ATOM     16  C   UNL     1      46.556   1.927   7.763  0.00  0.00    +0.000 A 
ATOM     17  C   UNL     1      46.762   3.173   7.182  0.00  0.00    +0.000 A 
ATOM     18  C   UNL     1      46.076   4.270   7.694  0.00  0.00    +0.000 A 
ATOM     19  C   UNL     1      45.200   4.097   8.763  0.00  0.00    +0.000 A 
ATOM     20  C   UNL     1      45.031   2.823   9.292  0.00  0.00    +0.000 A 
ATOM     21  N   UNL     1      45.704   1.749   8.802  0.00  0.00    +0.000 NA
BRANCH  16  22
ATOM     22  C   UNL     1      47.306   0.712   7.258  0.00  0.00    +0.000 C 
BRANCH  22  23
ATOM     23  N   UNL     1      46.709  -0.548   7.712  0.00  0.00    +0.000 NA
ATOM     24  H   UNL     1      45.696  -0.432   7.756  0.00  0.00    +0.000 HD
ATOM     25  H   UNL     1      47.015  -0.713   8.671  0.00  0.00    +0.000 HD
ENDBRANCH  22  23
ENDBRANCH  16  22
ENDBRANCH  15  20
ENDBRANCH  14  15
ENDBRANCH   1  14
TORSDOF 6
ENDMDL
MODEL 2
REMARK VINA RESULT:    -7.785      2.393      6.251
REMARK INTER + INTRA:         -10.927
REMARK INTER:                 -10.060
REMARK INTRA:                  -0.867
REMARK UNBOUND:                -0.639
REMARK  Name = 
REMARK  6 active torsions:
REMARK  status: ('A' for Active; 'I' for Inactive)
REMARK    1  A    between atoms: N_1  and  C_2
REMARK    2  A    between atoms: C_2  and  C_3
REMARK    3  A    between atoms: C_7  and  C_8
REMARK    4  A    between atoms: C_8  and  C_9
REMARK    5  A    between atoms: C_9  and  N_10
REMARK    6  A    between atoms: C_15  and  C_16
REMARK                            x       y       z     vdW  Elec       q    Type
REMARK                         _______ _______ _______ _____ _____    ______ ____
ROOT
ATOM      1  N   UNL     1      44.415   2.656  10.980  0.00  0.00    +0.000 N 
ATOM      2  C   UNL     1      45.025   2.902   9.746  0.00  0.00    +0.000 A 
ATOM      3  C   UNL     1      45.010   4.154   9.150  0.00  0.00    +0.000 A 
ATOM      4  C   UNL     1      45.649   4.293   7.941  0.00  0.00    +0.000 A 
ATOM      5  N   UNL     1      46.303   3.296   7.338  0.00  0.00    +0.000 NA
ATOM      6  C   UNL     1      46.293   2.120   8.010  0.00  0.00    +0.000 A 
ATOM      7  N   UNL     1      45.673   1.872   9.185  0.00  0.00    +0.000 NA
ATOM      8  H   UNL     1      44.393   1.647  11.112  0.00  0.00    +0.000 HD
ENDROOT
BRANCH   6   9
ATOM      9  C   UNL     1      47.078   1.003   7.358  0.00  0.00    +0.000 C 
ATOM     10  N   UNL     1      46.687  -0.272   7.707  0.00  0.00    +0.000 N 
ATOM     11  O   UNL     1      48.000   1.176   6.567  0.00  0.00    +0.000 OA
ATOM     12  H   UNL     1      45.911  -0.405   8.346  0.00  0.00    +0.000 HD
ATOM     13  H   UNL     1      47.155  -1.065   7.291  0.00  0.00    +0.000 HD
ENDBRANCH   6   9
BRANCH   1  14
ATOM     14  C   UNL     1      43.168   3.373  11.251  0.00  0.00    +0.000 C 
BRANCH  14  15
ATOM     15  C   UNL     1      43.156   4.057  12.621  0.00  0.00    +0.000 C 
BRANCH  15  20
ATOM     16  C   UNL     1      46.484   5.125  13.888  0.00  0.00    +0.000 A 
ATOM     17  C   UNL     1      46.699   6.348  13.262  0.00  0.00    +0.000 A 
ATOM     18  C   UNL     1      45.719   6.843  12.408  0.00  0.00    +0.000 A 
ATOM     19  C   UNL     1      44.558   6.106  12.192  0.00  0.00    +0.000 A 
ATOM     20  C   UNL     1      44.408   4.885  12.839  0.00  0.00    +0.000 A 
ATOM     21  N   UNL     1      45.356   4.400  13.681  0.00  0.00    +0.000 NA
BRANCH  16  22
ATOM     22  C   UNL     1      47.509   4.564  14.850  0.00  0.00    +0.000 C 
BRANCH  22  23
ATOM     23  N   UNL     1      47.566   3.099  14.824  0.00  0.00    +0.000 NA
ATOM     24  H   UNL     1      47.256   2.745  15.729  0.00  0.00    +0.000 HD
ATOM     25  H   UNL     1      48.544   2.825  14.734  0.00  0.00    +0.000 HD
ENDBRANCH  22  23
ENDBRANCH  16  22
ENDBRANCH  15  20
ENDBRANCH  14  15
ENDBRANCH   1  14
TORSDOF 6
ENDMDL
MODEL 3
REMARK VINA RESULT:    -7.545      2.910      6.534
REMARK INTER + INTRA:         -10.610
REMARK INTER:                  -9.976
REMARK INTRA:                  -0.633
REMARK UNBOUND:                -0.639
REMARK  Name = 
REMARK  6 active torsions:
REMARK  status: ('A' for Active; 'I' for Inactive)
REMARK    1  A    between atoms: N_1  and  C_2
REMARK    2  A    between atoms: C_2  and  C_3
REMARK    3  A    between atoms: C_7  and  C_8
REMARK    4  A    between atoms: C_8  and  C_9
REMARK    5  A    between atoms: C_9  and  N_10
REMARK    6  A    between atoms: C_15  and  C_16
REMARK                            x       y       z     vdW  Elec       q    Type
REMARK                         _______ _______ _______ _____ _____    ______ ____
ROOT
ATOM      1  N   UNL     1      44.541   2.559  11.035  0.00  0.00    +0.000 N 
ATOM      2  C   UNL     1      45.124   2.854   9.799  0.00  0.00    +0.000 A 
ATOM      3  C   UNL     1      45.136   4.137   9.274  0.00  0.00    +0.000 A 
ATOM      4  C   UNL     1      45.746   4.323   8.056  0.00  0.00    +0.000 A 
ATOM      5  N   UNL     1      46.350   3.340   7.381  0.00  0.00    +0.000 NA
ATOM      6  C   UNL     1      46.319   2.130   7.987  0.00  0.00    +0.000 A 
ATOM      7  N   UNL     1      45.723   1.836   9.164  0.00  0.00    +0.000 NA
ATOM      8  H   UNL     1      44.488   1.545  11.111  0.00  0.00    +0.000 HD
ENDROOT
BRANCH   6   9
ATOM      9  C   UNL     1      47.047   1.026   7.252  0.00  0.00    +0.000 C 
ATOM     10  N   UNL     1      46.738  -0.254   7.658  0.00  0.00    +0.000 N 
ATOM     11  O   UNL     1      47.858   1.214   6.350  0.00  0.00    +0.000 OA
ATOM     12  H   UNL     1      46.052  -0.400   8.389  0.00  0.00    +0.000 HD
ATOM     13  H   UNL     1      47.173  -1.040   7.194  0.00  0.00    +0.000 HD
ENDBRANCH   6   9
BRANCH   1  14
ATOM     14  C   UNL     1      43.326   3.299  11.381  0.00  0.00    +0.000 C 
BRANCH  14  15
ATOM     15  C   UNL     1      43.406   3.970  12.755  0.00  0.00    +0.000 C 
BRANCH  15  20
ATOM     16  C   UNL     1      45.230   7.174  12.278  0.00  0.00    +0.000 A 
ATOM     17  C   UNL     1      46.468   6.940  12.864  0.00  0.00    +0.000 A 
ATOM     18  C   UNL     1      46.718   5.691  13.423  0.00  0.00    +0.000 A 
ATOM     19  C   UNL     1      45.728   4.713  13.392  0.00  0.00    +0.000 A 
ATOM     20  C   UNL     1      44.506   5.013  12.800  0.00  0.00    +0.000 A 
ATOM     21  N   UNL     1      44.259   6.227  12.245  0.00  0.00    +0.000 NA
BRANCH  16  22
ATOM     22  C   UNL     1      44.928   8.508  11.629  0.00  0.00    +0.000 C 
BRANCH  22  23
ATOM     23  N   UNL     1      43.601   8.544  11.005  0.00  0.00    +0.000 NA
ATOM     24  H   UNL     1      43.010   9.186  11.533  0.00  0.00    +0.000 HD
ATOM     25  H   UNL     1      43.179   7.621  11.111  0.00  0.00    +0.000 HD
ENDBRANCH  22  23
ENDBRANCH  16  22
ENDBRANCH  15  20
ENDBRANCH  14  15
ENDBRANCH   1  14
TORSDOF 6
ENDMDL
MODEL 4
REMARK VINA RESULT:    -7.319      2.933      6.672
REMARK INTER + INTRA:         -10.311
REMARK INTER:                  -9.798
REMARK INTRA:                  -0.512
REMARK UNBOUND:                -0.639
REMARK  Name = 
REMARK  6 active torsions:
REMARK  status: ('A' for Active; 'I' for Inactive)
REMARK    1  A    between atoms: N_1  and  C_2
REMARK    2  A    between atoms: C_2  and  C_3
REMARK    3  A    between atoms: C_7  and  C_8
REMARK    4  A    between atoms: C_8  and  C_9
REMARK    5  A    between atoms: C_9  and  N_10
REMARK    6  A    between atoms: C_15  and  C_16
REMARK                            x       y       z     vdW  Elec       q    Type
REMARK                         _______ _______ _______ _____ _____    ______ ____
ROOT
ATOM      1  N   UNL     1      44.254   4.865   9.293  0.00  0.00    +0.000 N 
ATOM      2  C   UNL     1      44.884   3.703   8.835  0.00  0.00    +0.000 A 
ATOM      3  C   UNL     1      44.590   2.450   9.350  0.00  0.00    +0.000 A 
ATOM      4  C   UNL     1      45.257   1.370   8.823  0.00  0.00    +0.000 A 
ATOM      5  N   UNL     1      46.141   1.470   7.825  0.00  0.00    +0.000 NA
ATOM      6  C   UNL     1      46.337   2.727   7.362  0.00  0.00    +0.000 A 
ATOM      7  N   UNL     1      45.757   3.855   7.829  0.00  0.00    +0.000 NA
ATOM      8  H   UNL     1      44.764   5.657   8.909  0.00  0.00    +0.000 HD
ENDROOT
BRANCH   6   9
ATOM      9  C   UNL     1      47.296   2.839   6.197  0.00  0.00    +0.000 C 
ATOM     10  N   UNL     1      48.628   2.683   6.514  0.00  0.00    +0.000 N 
ATOM     11  O   UNL     1      46.953   3.048   5.037  0.00  0.00    +0.000 OA
ATOM     12  H   UNL     1      48.900   2.490   7.471  0.00  0.00    +0.000 HD
ATOM     13  H   UNL     1      49.320   2.724   5.779  0.00  0.00    +0.000 HD
ENDBRANCH   6   9
BRANCH   1  14
ATOM     14  C   UNL     1      43.944   4.923  10.722  0.00  0.00    +0.000 C 
BRANCH  14  15
ATOM     15  C   UNL     1      44.295   6.272  11.356  0.00  0.00    +0.000 C 
BRANCH  15  20
ATOM     16  C   UNL     1      46.998   5.380  13.746  0.00  0.00    +0.000 A 
ATOM     17  C   UNL     1      48.090   6.116  13.301  0.00  0.00    +0.000 A 
ATOM     18  C   UNL     1      47.933   6.938  12.190  0.00  0.00    +0.000 A 
ATOM     19  C   UNL     1      46.700   7.000  11.548  0.00  0.00    +0.000 A 
ATOM     20  C   UNL     1      45.650   6.231  12.036  0.00  0.00    +0.000 A 
ATOM     21  N   UNL     1      45.794   5.433  13.125  0.00  0.00    +0.000 NA
BRANCH  16  22
ATOM     22  C   UNL     1      47.115   4.498  14.971  0.00  0.00    +0.000 C 
BRANCH  22  23
ATOM     23  N   UNL     1      47.489   3.119  14.640  0.00  0.00    +0.000 NA
ATOM     24  H   UNL     1      46.681   2.652  14.229  0.00  0.00    +0.000 HD
ATOM     25  H   UNL     1      47.684   2.628  15.513  0.00  0.00    +0.000 HD
ENDBRANCH  22  23
ENDBRANCH  16  22
ENDBRANCH  15  20
ENDBRANCH  14  15
ENDBRANCH   1  14
TORSDOF 6
ENDMDL
MODEL 5
REMARK VINA RESULT:    -6.968      1.518      1.935
REMARK INTER + INTRA:          -9.847
REMARK INTER:                  -9.451
REMARK INTRA:                  -0.395
REMARK UNBOUND:                -0.639
REMARK  Name = 
REMARK  6 active torsions:
REMARK  status: ('A' for Active; 'I' for Inactive)
REMARK    1  A    between atoms: N_1  and  C_2
REMARK    2  A    between atoms: C_2  and  C_3
REMARK    3  A    between atoms: C_7  and  C_8
REMARK    4  A    between atoms: C_8  and  C_9
REMARK    5  A    between atoms: C_9  and  N_10
REMARK    6  A    between atoms: C_15  and  C_16
REMARK                            x       y       z     vdW  Elec       q    Type
REMARK                         _______ _______ _______ _____ _____    ______ ____
ROOT
ATOM      1  N   UNL     1      45.018   4.914  11.363  0.00  0.00    +0.000 N 
ATOM      2  C   UNL     1      45.958   5.417  12.268  0.00  0.00    +0.000 A 
ATOM      3  C   UNL     1      46.545   6.663  12.110  0.00  0.00    +0.000 A 
ATOM      4  C   UNL     1      47.449   7.069  13.064  0.00  0.00    +0.000 A 
ATOM      5  N   UNL     1      47.757   6.339  14.140  0.00  0.00    +0.000 NA
ATOM      6  C   UNL     1      47.108   5.153  14.228  0.00  0.00    +0.000 A 
ATOM      7  N   UNL     1      46.228   4.651  13.335  0.00  0.00    +0.000 NA
ATOM      8  H   UNL     1      44.882   3.930  11.582  0.00  0.00    +0.000 HD
ENDROOT
BRANCH   6   9
ATOM      9  C   UNL     1      47.413   4.347  15.472  0.00  0.00    +0.000 C 
ATOM     10  N   UNL     1      47.503   5.076  16.638  0.00  0.00    +0.000 N 
ATOM     11  O   UNL     1      47.572   3.130  15.485  0.00  0.00    +0.000 OA
ATOM     12  H   UNL     1      47.351   6.078  16.620  0.00  0.00    +0.000 HD
ATOM     13  H   UNL     1      47.683   4.597  17.509  0.00  0.00    +0.000 HD
ENDBRANCH   6   9
BRANCH   1  14
ATOM     14  C   UNL     1      45.227   5.242   9.951  0.00  0.00    +0.000 C 
BRANCH  14  15
ATOM     15  C   UNL     1      44.378   4.387   9.007  0.00  0.00    +0.000 C 
BRANCH  15  20
ATOM     16  C   UNL     1      46.601   2.593   6.629  0.00  0.00    +0.000 A 
ATOM     17  C   UNL     1      46.709   1.318   7.173  0.00  0.00    +0.000 A 
ATOM     18  C   UNL     1      46.023   1.034   8.349  0.00  0.00    +0.000 A 
ATOM     19  C   UNL     1      45.257   2.026   8.956  0.00  0.00    +0.000 A 
ATOM     20  C   UNL     1      45.200   3.284   8.368  0.00  0.00    +0.000 A 
ATOM     21  N   UNL     1      45.860   3.565   7.215  0.00  0.00    +0.000 NA
BRANCH  16  22
ATOM     22  C   UNL     1      47.305   2.936   5.333  0.00  0.00    +0.000 C 
BRANCH  22  23
ATOM     23  N   UNL     1      48.438   2.049   5.053  0.00  0.00    +0.000 NA
ATOM     24  H   UNL     1      48.694   2.147   4.071  0.00  0.00    +0.000 HD
ATOM     25  H   UNL     1      48.119   1.086   5.166  0.00  0.00    +0.000 HD
ENDBRANCH  22  23
ENDBRANCH  16  22
ENDBRANCH  15  20
ENDBRANCH  14  15
ENDBRANCH   1  14
TORSDOF 6
ENDMDL
MODEL 6
REMARK VINA RESULT:    -6.827      3.866      7.443
REMARK INTER + INTRA:          -9.661
REMARK INTER:                  -9.078
REMARK INTRA:                  -0.584
REMARK UNBOUND:                -0.639
REMARK  Name = 
REMARK  6 active torsions:
REMARK  status: ('A' for Active; 'I' for Inactive)
REMARK    1  A    between atoms: N_1  and  C_2
REMARK    2  A    between atoms: C_2  and  C_3
REMARK    3  A    between atoms: C_7  and  C_8
REMARK    4  A    between atoms: C_8  and  C_9
REMARK    5  A    between atoms: C_9  and  N_10
REMARK    6  A    between atoms: C_15  and  C_16
REMARK                            x       y       z     vdW  Elec       q    Type
REMARK                         _______ _______ _______ _____ _____    ______ ____
ROOT
ATOM      1  N   UNL     1      44.981   5.382   9.544  0.00  0.00    +0.000 N 
ATOM      2  C   UNL     1      45.318   4.126   9.029  0.00  0.00    +0.000 A 
ATOM      3  C   UNL     1      44.810   2.950   9.558  0.00  0.00    +0.000 A 
ATOM      4  C   UNL     1      45.196   1.767   8.971  0.00  0.00    +0.000 A 
ATOM      5  N   UNL     1      46.002   1.706   7.907  0.00  0.00    +0.000 NA
ATOM      6  C   UNL     1      46.420   2.905   7.439  0.00  0.00    +0.000 A 
ATOM      7  N   UNL     1      46.124   4.118   7.958  0.00  0.00    +0.000 NA
ATOM      8  H   UNL     1      45.614   6.061   9.126  0.00  0.00    +0.000 HD
ENDROOT
BRANCH   6   9
ATOM      9  C   UNL     1      47.290   2.843   6.202  0.00  0.00    +0.000 C 
ATOM     10  N   UNL     1      48.611   2.527   6.428  0.00  0.00    +0.000 N 
ATOM     11  O   UNL     1      46.884   3.049   5.062  0.00  0.00    +0.000 OA
ATOM     12  H   UNL     1      48.932   2.340   7.371  0.00  0.00    +0.000 HD
ATOM     13  H   UNL     1      49.243   2.448   5.643  0.00  0.00    +0.000 HD
ENDBRANCH   6   9
BRANCH   1  14
ATOM     14  C   UNL     1      44.800   5.471  10.994  0.00  0.00    +0.000 C 
BRANCH  14  15
ATOM     15  C   UNL     1      45.975   6.149  11.703  0.00  0.00    +0.000 C 
BRANCH  15  20
ATOM     16  C   UNL     1      44.448   9.520  11.358  0.00  0.00    +0.000 A 
ATOM     17  C   UNL     1      45.440  10.381  11.813  0.00  0.00    +0.000 A 
ATOM     18  C   UNL     1      46.651   9.841  12.235  0.00  0.00    +0.000 A 
ATOM     19  C   UNL     1      46.839   8.462  12.202  0.00  0.00    +0.000 A 
ATOM     20  C   UNL     1      45.803   7.655  11.747  0.00  0.00    +0.000 A 
ATOM     21  N   UNL     1      44.622   8.176  11.325  0.00  0.00    +0.000 NA
BRANCH  16  22
ATOM     22  C   UNL     1      43.127  10.067  10.859  0.00  0.00    +0.000 C 
BRANCH  22  23
ATOM     23  N   UNL     1      42.032   9.100  10.986  0.00  0.00    +0.000 NA
ATOM     24  H   UNL     1      41.549   9.036  10.090  0.00  0.00    +0.000 HD
ATOM     25  H   UNL     1      41.353   9.480  11.646  0.00  0.00    +0.000 HD
ENDBRANCH  22  23
ENDBRANCH  16  22
ENDBRANCH  15  20
ENDBRANCH  14  15
ENDBRANCH   1  14
TORSDOF 6
ENDMDL
MODEL 7
REMARK VINA RESULT:    -6.568      3.268      7.088
REMARK INTER + INTRA:          -9.318
REMARK INTER:                  -8.912
REMARK INTRA:                  -0.407
REMARK UNBOUND:                -0.639
REMARK  Name = 
REMARK  6 active torsions:
REMARK  status: ('A' for Active; 'I' for Inactive)
REMARK    1  A    between atoms: N_1  and  C_2
REMARK    2  A    between atoms: C_2  and  C_3
REMARK    3  A    between atoms: C_7  and  C_8
REMARK    4  A    between atoms: C_8  and  C_9
REMARK    5  A    between atoms: C_9  and  N_10
REMARK    6  A    between atoms: C_15  and  C_16
REMARK                            x       y       z     vdW  Elec       q    Type
REMARK                         _______ _______ _______ _____ _____    ______ ____
ROOT
ATOM      1  N   UNL     1      44.737   5.100   9.454  0.00  0.00    +0.000 N 
ATOM      2  C   UNL     1      45.201   3.887   8.935  0.00  0.00    +0.000 A 
ATOM      3  C   UNL     1      44.792   2.663   9.439  0.00  0.00    +0.000 A 
ATOM      4  C   UNL     1      45.299   1.528   8.850  0.00  0.00    +0.000 A 
ATOM      5  N   UNL     1      46.131   1.554   7.805  0.00  0.00    +0.000 NA
ATOM      6  C   UNL     1      46.447   2.793   7.359  0.00  0.00    +0.000 A 
ATOM      7  N   UNL     1      46.028   3.966   7.883  0.00  0.00    +0.000 NA
ATOM      8  H   UNL     1      45.314   5.840   9.059  0.00  0.00    +0.000 HD
ENDROOT
BRANCH   6   9
ATOM      9  C   UNL     1      47.346   2.826   6.143  0.00  0.00    +0.000 C 
ATOM     10  N   UNL     1      48.682   2.601   6.392  0.00  0.00    +0.000 N 
ATOM     11  O   UNL     1      46.952   3.032   4.998  0.00  0.00    +0.000 OA
ATOM     12  H   UNL     1      48.994   2.413   7.338  0.00  0.00    +0.000 HD
ATOM     13  H   UNL     1      49.335   2.589   5.621  0.00  0.00    +0.000 HD
ENDBRANCH   6   9
BRANCH   1  14
ATOM     14  C   UNL     1      44.516   5.154  10.901  0.00  0.00    +0.000 C 
BRANCH  14  15
ATOM     15  C   UNL     1      43.976   6.506  11.374  0.00  0.00    +0.000 C 
BRANCH  15  20
ATOM     16  C   UNL     1      47.085   7.515  13.144  0.00  0.00    +0.000 A 
ATOM     17  C   UNL     1      47.104   8.899  13.018  0.00  0.00    +0.000 A 
ATOM     18  C   UNL     1      46.060   9.522  12.341  0.00  0.00    +0.000 A 
ATOM     19  C   UNL     1      45.033   8.753  11.802  0.00  0.00    +0.000 A 
ATOM     20  C   UNL     1      45.078   7.372  11.953  0.00  0.00    +0.000 A 
ATOM     21  N   UNL     1      46.089   6.758  12.620  0.00  0.00    +0.000 NA
BRANCH  16  22
ATOM     22  C   UNL     1      48.184   6.798  13.900  0.00  0.00    +0.000 C 
BRANCH  22  23
ATOM     23  N   UNL     1      49.418   6.671  13.118  0.00  0.00    +0.000 NA
ATOM     24  H   UNL     1      49.864   5.785  13.356  0.00  0.00    +0.000 HD
ATOM     25  H   UNL     1      50.060   7.402  13.424  0.00  0.00    +0.000 HD
ENDBRANCH  22  23
ENDBRANCH  16  22
ENDBRANCH  15  20
ENDBRANCH  14  15
ENDBRANCH   1  14
TORSDOF 6
ENDMDL
MODEL 8
REMARK VINA RESULT:    -6.539      3.425      7.720
REMARK INTER + INTRA:          -9.280
REMARK INTER:                  -8.948
REMARK INTRA:                  -0.332
REMARK UNBOUND:                -0.639
REMARK  Name = 
REMARK  6 active torsions:
REMARK  status: ('A' for Active; 'I' for Inactive)
REMARK    1  A    between atoms: N_1  and  C_2
REMARK    2  A    between atoms: C_2  and  C_3
REMARK    3  A    between atoms: C_7  and  C_8
REMARK    4  A    between atoms: C_8  and  C_9
REMARK    5  A    between atoms: C_9  and  N_10
REMARK    6  A    between atoms: C_15  and  C_16
REMARK                            x       y       z     vdW  Elec       q    Type
REMARK                         _______ _______ _______ _____ _____    ______ ____
ROOT
ATOM      1  N   UNL     1      46.843   3.576  14.561  0.00  0.00    +0.000 N 
ATOM      2  C   UNL     1      46.316   4.357  13.527  0.00  0.00    +0.000 A 
ATOM      3  C   UNL     1      46.789   5.629  13.247  0.00  0.00    +0.000 A 
ATOM      4  C   UNL     1      46.210   6.309  12.201  0.00  0.00    +0.000 A 
ATOM      5  N   UNL     1      45.248   5.790  11.432  0.00  0.00    +0.000 NA
ATOM      6  C   UNL     1      44.875   4.530  11.759  0.00  0.00    +0.000 A 
ATOM      7  N   UNL     1      45.358   3.789  12.781  0.00  0.00    +0.000 NA
ATOM      8  H   UNL     1      46.219   2.783  14.691  0.00  0.00    +0.000 HD
ENDROOT
BRANCH   6   9
ATOM      9  C   UNL     1      43.824   3.919  10.858  0.00  0.00    +0.000 C 
ATOM     10  N   UNL     1      43.765   4.441   9.585  0.00  0.00    +0.000 N 
ATOM     11  O   UNL     1      43.063   3.018  11.198  0.00  0.00    +0.000 OA
ATOM     12  H   UNL     1      44.411   5.171   9.308  0.00  0.00    +0.000 HD
ATOM     13  H   UNL     1      43.099   4.063   8.925  0.00  0.00    +0.000 HD
ENDBRANCH   6   9
BRANCH   1  14
ATOM     14  C   UNL     1      47.252   4.285  15.775  0.00  0.00    +0.000 C 
BRANCH  14  15
ATOM     15  C   UNL     1      47.668   3.341  16.907  0.00  0.00    +0.000 C 
BRANCH  15  20
ATOM     16  C   UNL     1      51.246   2.521  17.491  0.00  0.00    +0.000 A 
ATOM     17  C   UNL     1      51.809   3.737  17.859  0.00  0.00    +0.000 A 
ATOM     18  C   UNL     1      50.989   4.859  17.928  0.00  0.00    +0.000 A 
ATOM     19  C   UNL     1      49.636   4.743  17.622  0.00  0.00    +0.000 A 
ATOM     20  C   UNL     1      49.137   3.500  17.251  0.00  0.00    +0.000 A 
ATOM     21  N   UNL     1      49.930   2.399  17.190  0.00  0.00    +0.000 NA
BRANCH  16  22
ATOM     22  C   UNL     1      52.095   1.269  17.434  0.00  0.00    +0.000 C 
BRANCH  22  23
ATOM     23  N   UNL     1      51.530   0.167  18.221  0.00  0.00    +0.000 NA
ATOM     24  H   UNL     1      52.293  -0.326  18.684  0.00  0.00    +0.000 HD
ATOM     25  H   UNL     1      51.115  -0.501  17.573  0.00  0.00    +0.000 HD
ENDBRANCH  22  23
ENDBRANCH  16  22
ENDBRANCH  15  20
ENDBRANCH  14  15
ENDBRANCH   1  14
TORSDOF 6
ENDMDL
MODEL 9
REMARK VINA RESULT:    -6.301      3.848      7.213
REMARK INTER + INTRA:          -8.966
REMARK INTER:                  -7.631
REMARK INTRA:                  -1.335
REMARK UNBOUND:                -0.639
REMARK  Name = 
REMARK  6 active torsions:
REMARK  status: ('A' for Active; 'I' for Inactive)
REMARK    1  A    between atoms: N_1  and  C_2
REMARK    2  A    between atoms: C_2  and  C_3
REMARK    3  A    between atoms: C_7  and  C_8
REMARK    4  A    between atoms: C_8  and  C_9
REMARK    5  A    between atoms: C_9  and  N_10
REMARK    6  A    between atoms: C_15  and  C_16
REMARK                            x       y       z     vdW  Elec       q    Type
REMARK                         _______ _______ _______ _____ _____    ______ ____
ROOT
ATOM      1  N   UNL     1      48.685   6.609  13.483  0.00  0.00    +0.000 N 
ATOM      2  C   UNL     1      47.309   6.541  13.244  0.00  0.00    +0.000 A 
ATOM      3  C   UNL     1      46.553   7.664  12.947  0.00  0.00    +0.000 A 
ATOM      4  C   UNL     1      45.209   7.487  12.717  0.00  0.00    +0.000 A 
ATOM      5  N   UNL     1      44.614   6.291  12.733  0.00  0.00    +0.000 NA
ATOM      6  C   UNL     1      45.437   5.249  12.997  0.00  0.00    +0.000 A 
ATOM      7  N   UNL     1      46.760   5.318  13.265  0.00  0.00    +0.000 NA
ATOM      8  H   UNL     1      48.973   5.708  13.859  0.00  0.00    +0.000 HD
ENDROOT
BRANCH   6   9
ATOM      9  C   UNL     1      44.778   3.887  12.964  0.00  0.00    +0.000 C 
ATOM     10  N   UNL     1      45.618   2.834  12.673  0.00  0.00    +0.000 N 
ATOM     11  O   UNL     1      43.586   3.691  13.179  0.00  0.00    +0.000 OA
ATOM     12  H   UNL     1      46.604   3.004  12.516  0.00  0.00    +0.000 HD
ATOM     13  H   UNL     1      45.246   1.894  12.655  0.00  0.00    +0.000 HD
ENDBRANCH   6   9
BRANCH   1  14
ATOM     14  C   UNL     1      49.170   7.793  14.193  0.00  0.00    +0.000 C 
BRANCH  14  15
ATOM     15  C   UNL     1      49.980   7.450  15.446  0.00  0.00    +0.000 C 
BRANCH  15  20
ATOM     16  C   UNL     1      48.135   4.614  16.986  0.00  0.00    +0.000 A 
ATOM     17  C   UNL     1      47.681   5.131  18.194  0.00  0.00    +0.000 A 
ATOM     18  C   UNL     1      47.979   6.453  18.508  0.00  0.00    +0.000 A 
ATOM     19  C   UNL     1      48.727   7.221  17.619  0.00  0.00    +0.000 A 
ATOM     20  C   UNL     1      49.160   6.641  16.433  0.00  0.00    +0.000 A 
ATOM     21  N   UNL     1      48.866   5.354  16.116  0.00  0.00    +0.000 NA
BRANCH  16  22
ATOM     22  C   UNL     1      47.807   3.190  16.589  0.00  0.00    +0.000 C 
BRANCH  22  23
ATOM     23  N   UNL     1      47.700   3.020  15.136  0.00  0.00    +0.000 NA
ATOM     24  H   UNL     1      47.714   3.941  14.699  0.00  0.00    +0.000 HD
ATOM     25  H   UNL     1      46.781   2.626  14.933  0.00  0.00    +0.000 HD
ENDBRANCH  22  23
ENDBRANCH  16  22
ENDBRANCH  15  20
ENDBRANCH  14  15
ENDBRANCH   1  14
TORSDOF 6
ENDMDL
