MODEL 1
REMARK VINA RESULT:    -7.729      0.000      0.000
REMARK INTER + INTRA:         -10.420
REMARK INTER:                  -9.988
REMARK INTRA:                  -0.432
REMARK UNBOUND:                -0.432
REMARK  Name = 
REMARK  5 active torsions:
REMARK  status: ('A' for Active; 'I' for Inactive)
REMARK    1  A    between atoms: C_5  and  C_6
REMARK    2  A    between atoms: C_6  and  C_7
REMARK    3  A    between atoms: C_7  and  N_8
REMARK    4  A    between atoms: C_16  and  O_17
REMARK    5  A    between atoms: O_17  and  C_18
REMARK                            x       y       z     vdW  Elec       q    Type
REMARK                         _______ _______ _______ _____ _____    ______ ____
ROOT
ATOM      1 CL   UNL     1      47.864   6.993  13.862  0.00  0.00    +0.000 Cl
ATOM      2  C   UNL     1      46.857   5.822  13.095  0.00  0.00    +0.000 A 
ATOM      3  C   UNL     1      46.112   6.298  12.014  0.00  0.00    +0.000 A 
ATOM      4  C   UNL     1      45.193   5.481  11.360  0.00  0.00    +0.000 A 
ATOM      5  C   UNL     1      44.977   4.161  11.771  0.00  0.00    +0.000 A 
ATOM      6  C   UNL     1      45.752   3.681  12.842  0.00  0.00    +0.000 A 
ATOM      7  C   UNL     1      46.698   4.494  13.508  0.00  0.00    +0.000 A 
ENDROOT
BRANCH   5   8
ATOM      8  C   UNL     1      43.932   3.259  11.114  0.00  0.00    +0.000 C 
BRANCH   8   9
ATOM      9  C   UNL     1      44.478   2.505   9.895  0.00  0.00    +0.000 C 
BRANCH   9  10
ATOM     10  N   UNL     1      44.971   3.358   8.808  0.00  0.00    +0.000 N 
ATOM     11  C   UNL     1      45.915   2.638   8.021  0.00  0.00    +0.000 A 
ATOM     12  C   UNL     1      46.506   3.269   6.945  0.00  0.00    +0.000 A 
ATOM     13  C   UNL     1      47.400   2.521   6.207  0.00  0.00    +0.000 A 
ATOM     14  N   UNL     1      47.715   1.244   6.483  0.00  0.00    +0.000 NA
ATOM     15  C   UNL     1      47.082   0.719   7.536  0.00  0.00    +0.000 A 
ATOM     16  N   UNL     1      46.195   1.354   8.314  0.00  0.00    +0.000 NA
ATOM     17  H   UNL     1      45.420   4.205   9.148  0.00  0.00    +0.000 HD
ENDBRANCH   9  10
ENDBRANCH   8   9
ENDBRANCH   5   8
BRANCH   7  18
ATOM     18  O   UNL     1      47.305   3.854  14.563  0.00  0.00    +0.000 OA
BRANCH  18  19
ATOM     19  C   UNL     1      47.161   4.334  15.918  0.00  0.00    +0.000 C 
ATOM     20  C   UNL     1      48.408   4.930  16.615  0.00  0.00    +0.000 C 
ATOM     21  C   UNL     1      48.105   4.066  17.849  0.00  0.00    +0.000 C 
ATOM     22  C   UNL     1      47.173   3.212  16.984  0.00  0.00    +0.000 C 
ENDBRANCH  18  19
ENDBRANCH   7  18
TORSDOF 5
ENDMDL
MODEL 2
REMARK VINA RESULT:    -7.389      2.028      3.688
REMARK INTER + INTRA:          -9.981
REMARK INTER:                  -9.280
REMARK INTRA:                  -0.701
REMARK UNBOUND:                -0.432
REMARK  Name = 
REMARK  5 active torsions:
REMARK  status: ('A' for Active; 'I' for Inactive)
REMARK    1  A    between atoms: C_5  and  C_6
REMARK    2  A    between atoms: C_6  and  C_7
REMARK    3  A    between atoms: C_7  and  N_8
REMARK    4  A    between atoms: C_16  and  O_17
REMARK    5  A    between atoms: O_17  and  C_18
REMARK                            x       y       z     vdW  Elec       q    Type
REMARK                         _______ _______ _______ _____ _____    ______ ____
ROOT
ATOM      1 CL   UNL     1      47.832   6.557  14.207  0.00  0.00    +0.000 Cl
ATOM      2  C   UNL     1      46.545   5.733  13.408  0.00  0.00    +0.000 A 
ATOM      3  C   UNL     1      46.727   4.356  13.255  0.00  0.00    +0.000 A 
ATOM      4  C   UNL     1      45.807   3.584  12.551  0.00  0.00    +0.000 A 
ATOM      5  C   UNL     1      44.676   4.163  11.963  0.00  0.00    +0.000 A 
ATOM      6  C   UNL     1      44.486   5.544  12.144  0.00  0.00    +0.000 A 
ATOM      7  C   UNL     1      45.405   6.339  12.868  0.00  0.00    +0.000 A 
ENDROOT
BRANCH   5   8
ATOM      8  C   UNL     1      43.682   3.353  11.131  0.00  0.00    +0.000 C 
BRANCH   8   9
ATOM      9  C   UNL     1      44.349   2.601   9.972  0.00  0.00    +0.000 C 
BRANCH   9  10
ATOM     10  N   UNL     1      45.018   3.453   8.983  0.00  0.00    +0.000 N 
ATOM     11  C   UNL     1      45.930   2.675   8.214  0.00  0.00    +0.000 A 
ATOM     12  C   UNL     1      46.671   3.294   7.228  0.00  0.00    +0.000 A 
ATOM     13  C   UNL     1      47.527   2.491   6.503  0.00  0.00    +0.000 A 
ATOM     14  N   UNL     1      47.672   1.171   6.711  0.00  0.00    +0.000 NA
ATOM     15  C   UNL     1      46.904   0.663   7.679  0.00  0.00    +0.000 A 
ATOM     16  N   UNL     1      46.039   1.350   8.437  0.00  0.00    +0.000 NA
ATOM     17  H   UNL     1      45.534   4.219   9.410  0.00  0.00    +0.000 HD
ENDBRANCH   9  10
ENDBRANCH   8   9
ENDBRANCH   5   8
BRANCH   7  18
ATOM     18  O   UNL     1      45.067   7.672  12.878  0.00  0.00    +0.000 OA
BRANCH  18  19
ATOM     19  C   UNL     1      45.599   8.592  11.898  0.00  0.00    +0.000 C 
ATOM     20  C   UNL     1      46.861   9.405  12.274  0.00  0.00    +0.000 C 
ATOM     21  C   UNL     1      46.168  10.677  11.763  0.00  0.00    +0.000 C 
ATOM     22  C   UNL     1      44.830   9.932  11.816  0.00  0.00    +0.000 C 
ENDBRANCH  18  19
ENDBRANCH   7  18
TORSDOF 5
ENDMDL
MODEL 3
REMARK VINA RESULT:    -7.084      2.525      3.098
REMARK INTER + INTRA:          -9.587
REMARK INTER:                  -8.973
REMARK INTRA:                  -0.614
REMARK UNBOUND:                -0.432
REMARK  Name = 
REMARK  5 active torsions:
REMARK  status: ('A' for Active; 'I' for Inactive)
REMARK    1  A    between atoms: C_5  and  C_6
REMARK    2  A    between atoms: C_6  and  C_7
REMARK    3  A    between atoms: C_7  and  N_8
REMARK    4  A    between atoms: C_16  and  O_17
REMARK    5  A    between atoms: O_17  and  C_18
REMARK                            x       y       z     vdW  Elec       q    Type
REMARK                         _______ _______ _______ _____ _____    ______ ____
ROOT
ATOM      1 CL   UNL     1      45.067   9.151  12.572  0.00  0.00    +0.000 Cl
ATOM      2  C   UNL     1      45.141   7.478  12.162  0.00  0.00    +0.000 A 
ATOM      3  C   UNL     1      44.031   6.988  11.470  0.00  0.00    +0.000 A 
ATOM      4  C   UNL     1      43.921   5.636  11.155  0.00  0.00    +0.000 A 
ATOM      5  C   UNL     1      44.912   4.722  11.530  0.00  0.00    +0.000 A 
ATOM      6  C   UNL     1      46.038   5.228  12.203  0.00  0.00    +0.000 A 
ATOM      7  C   UNL     1      46.171   6.600  12.519  0.00  0.00    +0.000 A 
ENDROOT
BRANCH   5   8
ATOM      8  C   UNL     1      44.790   3.223  11.254  0.00  0.00    +0.000 C 
BRANCH   8   9
ATOM      9  C   UNL     1      44.453   2.914   9.790  0.00  0.00    +0.000 C 
BRANCH   9  10
ATOM     10  N   UNL     1      45.236   3.662   8.802  0.00  0.00    +0.000 N 
ATOM     11  C   UNL     1      46.106   2.775   8.104  0.00  0.00    +0.000 A 
ATOM     12  C   UNL     1      46.939   3.286   7.129  0.00  0.00    +0.000 A 
ATOM     13  C   UNL     1      47.749   2.381   6.474  0.00  0.00    +0.000 A 
ATOM     14  N   UNL     1      47.765   1.063   6.736  0.00  0.00    +0.000 NA
ATOM     15  C   UNL     1      46.915   0.665   7.687  0.00  0.00    +0.000 A 
ATOM     16  N   UNL     1      46.085   1.457   8.379  0.00  0.00    +0.000 NA
ATOM     17  H   UNL     1      45.801   4.396   9.223  0.00  0.00    +0.000 HD
ENDBRANCH   9  10
ENDBRANCH   8   9
ENDBRANCH   5   8
BRANCH   7  18
ATOM     18  O   UNL     1      47.316   6.877  13.229  0.00  0.00    +0.000 OA
BRANCH  18  19
ATOM     19  C   UNL     1      48.580   7.094  12.563  0.00  0.00    +0.000 C 
ATOM     20  C   UNL     1      49.765   7.625  13.406  0.00  0.00    +0.000 C 
ATOM     21  C   UNL     1      50.040   8.674  12.319  0.00  0.00    +0.000 C 
ATOM     22  C   UNL     1      48.641   8.412  11.753  0.00  0.00    +0.000 C 
ENDBRANCH  18  19
ENDBRANCH   7  18
TORSDOF 5
ENDMDL
MODEL 4
REMARK VINA RESULT:    -6.764      4.009      7.720
REMARK INTER + INTRA:          -9.173
REMARK INTER:                  -8.641
REMARK INTRA:                  -0.532
REMARK UNBOUND:                -0.432
REMARK  Name = 
REMARK  5 active torsions:
REMARK  status: ('A' for Active; 'I' for Inactive)
REMARK    1  A    between atoms: C_5  and  C_6
REMARK    2  A    between atoms: C_6  and  C_7
REMARK    3  A    between atoms: C_7  and  N_8
REMARK    4  A    between atoms: C_16  and  O_17
REMARK    5  A    between atoms: O_17  and  C_18
REMARK                            x       y       z     vdW  Elec       q    Type
REMARK                         _______ _______ _______ _____ _____    ______ ____
ROOT
ATOM      1 CL   UNL     1      43.296   2.458  11.762  0.00  0.00    +0.000 Cl
ATOM      2  C   UNL     1      44.461   3.725  11.649  0.00  0.00    +0.000 A 
ATOM      3  C   UNL     1      45.116   4.036  12.843  0.00  0.00    +0.000 A 
ATOM      4  C   UNL     1      46.015   5.096  12.913  0.00  0.00    +0.000 A 
ATOM      5  C   UNL     1      46.286   5.892  11.794  0.00  0.00    +0.000 A 
ATOM      6  C   UNL     1      45.645   5.554  10.589  0.00  0.00    +0.000 A 
ATOM      7  C   UNL     1      44.738   4.473  10.499  0.00  0.00    +0.000 A 
ENDROOT
BRANCH   5   8
ATOM      8  C   UNL     1      47.220   7.100  11.854  0.00  0.00    +0.000 C 
BRANCH   8   9
ATOM      9  C   UNL     1      48.504   6.820  12.646  0.00  0.00    +0.000 C 
BRANCH   9  10
ATOM     10  N   UNL     1      48.823   7.808  13.681  0.00  0.00    +0.000 N 
ATOM     11  C   UNL     1      48.697   7.214  14.970  0.00  0.00    +0.000 A 
ATOM     12  C   UNL     1      48.948   7.984  16.088  0.00  0.00    +0.000 A 
ATOM     13  C   UNL     1      48.827   7.355  17.309  0.00  0.00    +0.000 A 
ATOM     14  N   UNL     1      48.481   6.065  17.457  0.00  0.00    +0.000 NA
ATOM     15  C   UNL     1      48.270   5.401  16.316  0.00  0.00    +0.000 A 
ATOM     16  N   UNL     1      48.365   5.913  15.082  0.00  0.00    +0.000 NA
ATOM     17  H   UNL     1      48.216   8.623  13.645  0.00  0.00    +0.000 HD
ENDBRANCH   9  10
ENDBRANCH   8   9
ENDBRANCH   5   8
BRANCH   7  18
ATOM     18  O   UNL     1      44.176   4.349   9.249  0.00  0.00    +0.000 OA
BRANCH  18  19
ATOM     19  C   UNL     1      44.615   3.330   8.324  0.00  0.00    +0.000 C 
ATOM     20  C   UNL     1      45.327   2.082   8.899  0.00  0.00    +0.000 C 
ATOM     21  C   UNL     1      46.424   2.244   7.837  0.00  0.00    +0.000 C 
ATOM     22  C   UNL     1      45.935   3.676   7.594  0.00  0.00    +0.000 C 
ENDBRANCH  18  19
ENDBRANCH   7  18
TORSDOF 5
ENDMDL
MODEL 5
REMARK VINA RESULT:    -6.305      4.052      7.730
REMARK INTER + INTRA:          -8.581
REMARK INTER:                  -8.033
REMARK INTRA:                  -0.547
REMARK UNBOUND:                -0.432
REMARK  Name = 
REMARK  5 active torsions:
REMARK  status: ('A' for Active; 'I' for Inactive)
REMARK    1  A    between atoms: C_5  and  C_6
REMARK    2  A    between atoms: C_6  and  C_7
REMARK    3  A    between atoms: C_7  and  N_8
REMARK    4  A    between atoms: C_16  and  O_17
REMARK    5  A    between atoms: O_17  and  C_18
REMARK                            x       y       z     vdW  Elec       q    Type
REMARK                         _______ _______ _______ _____ _____    ______ ____
ROOT
ATOM      1 CL   UNL     1      42.346   5.655  11.593  0.00  0.00    +0.000 Cl
ATOM      2  C   UNL     1      44.007   5.743  12.050  0.00  0.00    +0.000 A 
ATOM      3  C   UNL     1      44.410   6.968  12.587  0.00  0.00    +0.000 A 
ATOM      4  C   UNL     1      45.742   7.204  12.915  0.00  0.00    +0.000 A 
ATOM      5  C   UNL     1      46.723   6.228  12.707  0.00  0.00    +0.000 A 
ATOM      6  C   UNL     1      46.305   4.988  12.192  0.00  0.00    +0.000 A 
ATOM      7  C   UNL     1      44.954   4.729  11.866  0.00  0.00    +0.000 A 
ENDROOT
BRANCH   5   8
ATOM      8  C   UNL     1      48.203   6.480  12.999  0.00  0.00    +0.000 C 
BRANCH   8   9
ATOM      9  C   UNL     1      48.498   6.621  14.497  0.00  0.00    +0.000 C 
BRANCH   9  10
ATOM     10  N   UNL     1      47.620   5.845  15.379  0.00  0.00    +0.000 N 
ATOM     11  C   UNL     1      48.385   5.259  16.428  0.00  0.00    +0.000 A 
ATOM     12  C   UNL     1      47.742   4.477  17.367  0.00  0.00    +0.000 A 
ATOM     13  C   UNL     1      48.527   3.948  18.369  0.00  0.00    +0.000 A 
ATOM     14  N   UNL     1      49.852   4.148  18.469  0.00  0.00    +0.000 NA
ATOM     15  C   UNL     1      50.379   4.928  17.519  0.00  0.00    +0.000 A 
ATOM     16  N   UNL     1      49.708   5.494  16.508  0.00  0.00    +0.000 NA
ATOM     17  H   UNL     1      47.130   5.101  14.887  0.00  0.00    +0.000 HD
ENDBRANCH   9  10
ENDBRANCH   8   9
ENDBRANCH   5   8
BRANCH   7  18
ATOM     18  O   UNL     1      44.765   3.479  11.322  0.00  0.00    +0.000 OA
BRANCH  18  19
ATOM     19  C   UNL     1      44.389   3.310   9.937  0.00  0.00    +0.000 C 
ATOM     20  C   UNL     1      45.052   2.164   9.137  0.00  0.00    +0.000 C 
ATOM     21  C   UNL     1      45.341   3.154   7.999  0.00  0.00    +0.000 C 
ATOM     22  C   UNL     1      45.081   4.306   8.975  0.00  0.00    +0.000 C 
ENDBRANCH  18  19
ENDBRANCH   7  18
TORSDOF 5
ENDMDL
MODEL 6
REMARK VINA RESULT:    -6.022      4.445      7.286
REMARK INTER + INTRA:          -8.214
REMARK INTER:                  -7.480
REMARK INTRA:                  -0.734
REMARK UNBOUND:                -0.432
REMARK  Name = 
REMARK  5 active torsions:
REMARK  status: ('A' for Active; 'I' for Inactive)
REMARK    1  A    between atoms: C_5  and  C_6
REMARK    2  A    between atoms: C_6  and  C_7
REMARK    3  A    between atoms: C_7  and  N_8
REMARK    4  A    between atoms: C_16  and  O_17
REMARK    5  A    between atoms: O_17  and  C_18
REMARK                            x       y       z     vdW  Elec       q    Type
REMARK                         _______ _______ _______ _____ _____    ______ ____
ROOT
ATOM      1 CL   UNL     1      43.536   9.044  10.977  0.00  0.00    +0.000 Cl
ATOM      2  C   UNL     1      44.917   8.301  11.695  0.00  0.00    +0.000 A 
ATOM      3  C   UNL     1      45.685   9.139  12.507  0.00  0.00    +0.000 A 
ATOM      4  C   UNL     1      46.875   8.692  13.077  0.00  0.00    +0.000 A 
ATOM      5  C   UNL     1      47.346   7.395  12.847  0.00  0.00    +0.000 A 
ATOM      6  C   UNL     1      46.553   6.549  12.051  0.00  0.00    +0.000 A 
ATOM      7  C   UNL     1      45.336   6.984  11.475  0.00  0.00    +0.000 A 
ENDROOT
BRANCH   5   8
ATOM      8  C   UNL     1      48.678   6.896  13.407  0.00  0.00    +0.000 C 
BRANCH   8   9
ATOM      9  C   UNL     1      48.626   6.630  14.917  0.00  0.00    +0.000 C 
BRANCH   9  10
ATOM     10  N   UNL     1      47.539   5.749  15.355  0.00  0.00    +0.000 N 
ATOM     11  C   UNL     1      48.035   4.801  16.295  0.00  0.00    +0.000 A 
ATOM     12  C   UNL     1      47.166   3.870  16.827  0.00  0.00    +0.000 A 
ATOM     13  C   UNL     1      47.695   2.986  17.744  0.00  0.00    +0.000 A 
ATOM     14  N   UNL     1      48.982   2.988  18.130  0.00  0.00    +0.000 NA
ATOM     15  C   UNL     1      49.740   3.934  17.567  0.00  0.00    +0.000 A 
ATOM     16  N   UNL     1      49.327   4.841  16.673  0.00  0.00    +0.000 NA
ATOM     17  H   UNL     1      47.112   5.240  14.584  0.00  0.00    +0.000 HD
ENDBRANCH   9  10
ENDBRANCH   8   9
ENDBRANCH   5   8
BRANCH   7  18
ATOM     18  O   UNL     1      44.746   6.025  10.685  0.00  0.00    +0.000 OA
BRANCH  18  19
ATOM     19  C   UNL     1      43.693   5.175  11.193  0.00  0.00    +0.000 C 
ATOM     20  C   UNL     1      43.488   5.107  12.725  0.00  0.00    +0.000 C 
ATOM     21  C   UNL     1      43.444   3.574  12.629  0.00  0.00    +0.000 C 
ATOM     22  C   UNL     1      44.067   3.674  11.233  0.00  0.00    +0.000 C 
ENDBRANCH  18  19
ENDBRANCH   7  18
TORSDOF 5
ENDMDL
MODEL 7
REMARK VINA RESULT:    -6.000      3.220      4.769
REMARK INTER + INTRA:          -8.186
REMARK INTER:                  -7.549
REMARK INTRA:                  -0.636
REMARK UNBOUND:                -0.432
REMARK  Name = 
REMARK  5 active torsions:
REMARK  status: ('A' for Active; 'I' for Inactive)
REMARK    1  A    between atoms: C_5  and  C_6
REMARK    2  A    between atoms: C_6  and  C_7
REMARK    3  A    between atoms: C_7  and  N_8
REMARK    4  A    between atoms: C_16  and  O_17
REMARK    5  A    between atoms: O_17  and  C_18
REMARK                            x       y       z     vdW  Elec       q    Type
REMARK                         _______ _______ _______ _____ _____    ______ ____
ROOT
ATOM      1 CL   UNL     1      49.384   8.113  17.939  0.00  0.00    +0.000 Cl
ATOM      2  C   UNL     1      48.857   7.844  16.319  0.00  0.00    +0.000 A 
ATOM      3  C   UNL     1      48.362   8.974  15.662  0.00  0.00    +0.000 A 
ATOM      4  C   UNL     1      47.822   8.880  14.382  0.00  0.00    +0.000 A 
ATOM      5  C   UNL     1      47.746   7.652  13.716  0.00  0.00    +0.000 A 
ATOM      6  C   UNL     1      48.271   6.525  14.373  0.00  0.00    +0.000 A 
ATOM      7  C   UNL     1      48.834   6.606  15.668  0.00  0.00    +0.000 A 
ENDROOT
BRANCH   5   8
ATOM      8  C   UNL     1      47.102   7.507  12.337  0.00  0.00    +0.000 C 
BRANCH   8   9
ATOM      9  C   UNL     1      45.573   7.401  12.403  0.00  0.00    +0.000 C 
BRANCH   9  10
ATOM     10  N   UNL     1      45.062   6.299  13.224  0.00  0.00    +0.000 N 
ATOM     11  C   UNL     1      44.485   5.301  12.386  0.00  0.00    +0.000 A 
ATOM     12  C   UNL     1      43.937   4.176  12.968  0.00  0.00    +0.000 A 
ATOM     13  C   UNL     1      43.406   3.235  12.110  0.00  0.00    +0.000 A 
ATOM     14  N   UNL     1      43.395   3.362  10.772  0.00  0.00    +0.000 NA
ATOM     15  C   UNL     1      43.959   4.480  10.305  0.00  0.00    +0.000 A 
ATOM     16  N   UNL     1      44.506   5.452  11.048  0.00  0.00    +0.000 NA
ATOM     17  H   UNL     1      44.356   6.601  13.891  0.00  0.00    +0.000 HD
ENDBRANCH   9  10
ENDBRANCH   8   9
ENDBRANCH   5   8
BRANCH   7  18
ATOM     18  O   UNL     1      49.234   5.383  16.154  0.00  0.00    +0.000 OA
BRANCH  18  19
ATOM     19  C   UNL     1      48.512   4.722  17.217  0.00  0.00    +0.000 C 
ATOM     20  C   UNL     1      48.982   3.313  17.650  0.00  0.00    +0.000 C 
ATOM     21  C   UNL     1      47.526   2.829  17.582  0.00  0.00    +0.000 C 
ATOM     22  C   UNL     1      47.182   4.076  16.760  0.00  0.00    +0.000 C 
ENDBRANCH  18  19
ENDBRANCH   7  18
TORSDOF 5
ENDMDL
MODEL 8
REMARK VINA RESULT:    -5.959      1.930      3.089
REMARK INTER + INTRA:          -8.133
REMARK INTER:                  -7.492
REMARK INTRA:                  -0.641
REMARK UNBOUND:                -0.432
REMARK  Name = 
REMARK  5 active torsions:
REMARK  status: ('A' for Active; 'I' for Inactive)
REMARK    1  A    between atoms: C_5  and  C_6
REMARK    2  A    between atoms: C_6  and  C_7
REMARK    3  A    between atoms: C_7  and  N_8
REMARK    4  A    between atoms: C_16  and  O_17
REMARK    5  A    between atoms: O_17  and  C_18
REMARK                            x       y       z     vdW  Elec       q    Type
REMARK                         _______ _______ _______ _____ _____    ______ ____
ROOT
ATOM      1 CL   UNL     1      50.820   7.923  14.716  0.00  0.00    +0.000 Cl
ATOM      2  C   UNL     1      49.287   7.634  13.982  0.00  0.00    +0.000 A 
ATOM      3  C   UNL     1      48.871   8.611  13.075  0.00  0.00    +0.000 A 
ATOM      4  C   UNL     1      47.615   8.547  12.477  0.00  0.00    +0.000 A 
ATOM      5  C   UNL     1      46.724   7.509  12.773  0.00  0.00    +0.000 A 
ATOM      6  C   UNL     1      47.162   6.514  13.665  0.00  0.00    +0.000 A 
ATOM      7  C   UNL     1      48.439   6.559  14.271  0.00  0.00    +0.000 A 
ENDROOT
BRANCH   5   8
ATOM      8  C   UNL     1      45.316   7.445  12.181  0.00  0.00    +0.000 C 
BRANCH   8   9
ATOM      9  C   UNL     1      45.013   6.099  11.510  0.00  0.00    +0.000 C 
BRANCH   9  10
ATOM     10  N   UNL     1      45.480   5.978  10.125  0.00  0.00    +0.000 N 
ATOM     11  C   UNL     1      45.271   4.647   9.660  0.00  0.00    +0.000 A 
ATOM     12  C   UNL     1      45.651   4.321   8.374  0.00  0.00    +0.000 A 
ATOM     13  C   UNL     1      45.412   3.024   7.971  0.00  0.00    +0.000 A 
ATOM     14  N   UNL     1      44.844   2.089   8.751  0.00  0.00    +0.000 NA
ATOM     15  C   UNL     1      44.501   2.505   9.974  0.00  0.00    +0.000 A 
ATOM     16  N   UNL     1      44.684   3.739  10.463  0.00  0.00    +0.000 NA
ATOM     17  H   UNL     1      46.467   6.199  10.023  0.00  0.00    +0.000 HD
ENDBRANCH   9  10
ENDBRANCH   8   9
ENDBRANCH   5   8
BRANCH   7  18
ATOM     18  O   UNL     1      48.648   5.526  15.155  0.00  0.00    +0.000 OA
BRANCH  18  19
ATOM     19  C   UNL     1      47.549   4.901  15.855  0.00  0.00    +0.000 C 
ATOM     20  C   UNL     1      47.583   4.891  17.402  0.00  0.00    +0.000 C 
ATOM     21  C   UNL     1      47.237   3.395  17.380  0.00  0.00    +0.000 C 
ATOM     22  C   UNL     1      47.635   3.356  15.901  0.00  0.00    +0.000 C 
ENDBRANCH  18  19
ENDBRANCH   7  18
TORSDOF 5
ENDMDL
MODEL 9
REMARK VINA RESULT:    -5.906      2.379      3.059
REMARK INTER + INTRA:          -8.065
REMARK INTER:                  -7.846
REMARK INTRA:                  -0.219
REMARK UNBOUND:                -0.432
REMARK  Name = 
REMARK  5 active torsions:
REMARK  status: ('A' for Active; 'I' for Inactive)
REMARK    1  A    between atoms: C_5  and  C_6
REMARK    2  A    between atoms: C_6  and  C_7
REMARK    3  A    between atoms: C_7  and  N_8
REMARK    4  A    between atoms: C_16  and  O_17
REMARK    5  A    between atoms: O_17  and  C_18
REMARK                            x       y       z     vdW  Elec       q    Type
REMARK                         _______ _______ _______ _____ _____    ______ ____
ROOT
ATOM      1 CL   UNL     1      46.609   9.355  12.159  0.00  0.00    +0.000 Cl
ATOM      2  C   UNL     1      45.991   7.748  12.261  0.00  0.00    +0.000 A 
ATOM      3  C   UNL     1      44.809   7.522  11.552  0.00  0.00    +0.000 A 
ATOM      4  C   UNL     1      44.156   6.294  11.620  0.00  0.00    +0.000 A 
ATOM      5  C   UNL     1      44.654   5.251  12.408  0.00  0.00    +0.000 A 
ATOM      6  C   UNL     1      45.859   5.478  13.097  0.00  0.00    +0.000 A 
ATOM      7  C   UNL     1      46.541   6.715  13.028  0.00  0.00    +0.000 A 
ENDROOT
BRANCH   5   8
ATOM      8  C   UNL     1      43.926   3.914  12.553  0.00  0.00    +0.000 C 
BRANCH   8   9
ATOM      9  C   UNL     1      43.363   3.397  11.222  0.00  0.00    +0.000 C 
BRANCH   9  10
ATOM     10  N   UNL     1      44.052   2.226  10.670  0.00  0.00    +0.000 N 
ATOM     11  C   UNL     1      44.820   2.610   9.534  0.00  0.00    +0.000 A 
ATOM     12  C   UNL     1      45.543   1.646   8.860  0.00  0.00    +0.000 A 
ATOM     13  C   UNL     1      46.282   2.075   7.778  0.00  0.00    +0.000 A 
ATOM     14  N   UNL     1      46.327   3.351   7.358  0.00  0.00    +0.000 NA
ATOM     15  C   UNL     1      45.603   4.210   8.082  0.00  0.00    +0.000 A 
ATOM     16  N   UNL     1      44.857   3.901   9.151  0.00  0.00    +0.000 NA
ATOM     17  H   UNL     1      43.408   1.491  10.386  0.00  0.00    +0.000 HD
ENDBRANCH   9  10
ENDBRANCH   8   9
ENDBRANCH   5   8
BRANCH   7  18
ATOM     18  O   UNL     1      47.665   6.750  13.820  0.00  0.00    +0.000 OA
BRANCH  18  19
ATOM     19  C   UNL     1      48.348   7.991  14.103  0.00  0.00    +0.000 C 
ATOM     20  C   UNL     1      49.858   8.084  13.774  0.00  0.00    +0.000 C 
ATOM     21  C   UNL     1      50.104   8.677  15.170  0.00  0.00    +0.000 C 
ATOM     22  C   UNL     1      48.720   8.174  15.594  0.00  0.00    +0.000 C 
ENDBRANCH  18  19
ENDBRANCH   7  18
TORSDOF 5
ENDMDL
