MODEL 1
REMARK VINA RESULT:    -7.837      0.000      0.000
REMARK INTER + INTRA:          -9.638
REMARK INTER:                  -9.441
REMARK INTRA:                  -0.197
REMARK UNBOUND:                -0.197
REMARK  Name = 
REMARK  4 active torsions:
REMARK  status: ('A' for Active; 'I' for Inactive)
REMARK    1  A    between atoms: N_1  and  C_2
REMARK    2  A    between atoms: C_2  and  C_3
REMARK    3  A    between atoms: C_6  and  C_7
REMARK    4  A    between atoms: C_7  and  N_8
REMARK                            x       y       z     vdW  Elec       q    Type
REMARK                         _______ _______ _______ _____ _____    ______ ____
ROOT
ATOM      1  C   UNL     1      46.614   2.770   6.852  0.00  0.00    +0.000 A 
ATOM      2  C   UNL     1      46.002   3.954   7.283  0.00  0.00    +0.000 A 
ATOM      3  C   UNL     1      45.193   3.970   8.421  0.00  0.00    +0.000 A 
ATOM      4  C   UNL     1      44.971   2.793   9.149  0.00  0.00    +0.000 A 
ATOM      5  C   UNL     1      45.601   1.611   8.730  0.00  0.00    +0.000 A 
ATOM      6  C   UNL     1      46.413   1.599   7.593  0.00  0.00    +0.000 A 
ENDROOT
BRANCH   1   7
ATOM      7  C   UNL     1      47.431   2.744   5.586  0.00  0.00    +0.000 C 
BRANCH   7   8
ATOM      8  N   UNL     1      48.479   1.732   5.644  0.00  0.00    +0.000 NA
ATOM      9  H   UNL     1      49.322   2.151   6.032  0.00  0.00    +0.000 HD
ATOM     10  H   UNL     1      48.711   1.453   4.692  0.00  0.00    +0.000 HD
ENDBRANCH   7   8
ENDBRANCH   1   7
BRANCH   4  11
ATOM     11  C   UNL     1      43.951   2.754  10.269  0.00  0.00    +0.000 C 
BRANCH  11  12
ATOM     12  N   UNL     1      44.113   3.934  11.106  0.00  0.00    +0.000 N 
ATOM     13  N   UNL     1      43.573   5.107  10.713  0.00  0.00    +0.000 NA
ATOM     14  N   UNL     1      44.300   6.076  11.254  0.00  0.00    +0.000 NA
ATOM     15  C   UNL     1      45.251   5.497  12.051  0.00  0.00    +0.000 A 
ATOM     16  C   UNL     1      46.317   6.060  12.766  0.00  0.00    +0.000 A 
ATOM     17  C   UNL     1      47.143   5.209  13.513  0.00  0.00    +0.000 A 
ATOM     18  C   UNL     1      46.895   3.834  13.574  0.00  0.00    +0.000 A 
ATOM     19  C   UNL     1      45.852   3.255  12.848  0.00  0.00    +0.000 A 
ATOM     20  C   UNL     1      45.071   4.119  12.074  0.00  0.00    +0.000 A 
ENDBRANCH  11  12
ENDBRANCH   4  11
TORSDOF 4
ENDMDL
MODEL 2
REMARK VINA RESULT:    -7.724      1.336      2.261
REMARK INTER + INTRA:          -9.501
REMARK INTER:                  -9.008
REMARK INTRA:                  -0.493
REMARK UNBOUND:                -0.197
REMARK  Name = 
REMARK  4 active torsions:
REMARK  status: ('A' for Active; 'I' for Inactive)
REMARK    1  A    between atoms: N_1  and  C_2
REMARK    2  A    between atoms: C_2  and  C_3
REMARK    3  A    between atoms: C_6  and  C_7
REMARK    4  A    between atoms: C_7  and  N_8
REMARK                            x       y       z     vdW  Elec       q    Type
REMARK                         _______ _______ _______ _____ _____    ______ ____
ROOT
ATOM      1  C   UNL     1      46.457   2.546   7.189  0.00  0.00    +0.000 A 
ATOM      2  C   UNL     1      46.049   1.632   8.170  0.00  0.00    +0.000 A 
ATOM      3  C   UNL     1      45.284   2.049   9.262  0.00  0.00    +0.000 A 
ATOM      4  C   UNL     1      44.918   3.394   9.400  0.00  0.00    +0.000 A 
ATOM      5  C   UNL     1      45.309   4.305   8.406  0.00  0.00    +0.000 A 
ATOM      6  C   UNL     1      46.071   3.886   7.313  0.00  0.00    +0.000 A 
ENDROOT
BRANCH   1   7
ATOM      7  C   UNL     1      47.340   2.106   6.049  0.00  0.00    +0.000 C 
BRANCH   7   8
ATOM      8  N   UNL     1      48.723   2.520   6.251  0.00  0.00    +0.000 NA
ATOM      9  H   UNL     1      48.766   3.537   6.255  0.00  0.00    +0.000 HD
ATOM     10  H   UNL     1      49.272   2.213   5.449  0.00  0.00    +0.000 HD
ENDBRANCH   7   8
ENDBRANCH   1   7
BRANCH   4  11
ATOM     11  C   UNL     1      44.253   3.892  10.667  0.00  0.00    +0.000 C 
BRANCH  11  12
ATOM     12  N   UNL     1      45.262   4.054  11.704  0.00  0.00    +0.000 N 
ATOM     13  N   UNL     1      45.270   3.214  12.761  0.00  0.00    +0.000 NA
ATOM     14  N   UNL     1      45.818   3.866  13.778  0.00  0.00    +0.000 NA
ATOM     15  C   UNL     1      46.224   5.093  13.325  0.00  0.00    +0.000 A 
ATOM     16  C   UNL     1      46.771   6.188  14.007  0.00  0.00    +0.000 A 
ATOM     17  C   UNL     1      47.099   7.336  13.271  0.00  0.00    +0.000 A 
ATOM     18  C   UNL     1      46.921   7.379  11.885  0.00  0.00    +0.000 A 
ATOM     19  C   UNL     1      46.354   6.305  11.195  0.00  0.00    +0.000 A 
ATOM     20  C   UNL     1      45.992   5.191  11.958  0.00  0.00    +0.000 A 
ENDBRANCH  11  12
ENDBRANCH   4  11
TORSDOF 4
ENDMDL
MODEL 3
REMARK VINA RESULT:    -7.147      1.966      5.758
REMARK INTER + INTRA:          -8.805
REMARK INTER:                  -8.958
REMARK INTRA:                   0.152
REMARK UNBOUND:                -0.197
REMARK  Name = 
REMARK  4 active torsions:
REMARK  status: ('A' for Active; 'I' for Inactive)
REMARK    1  A    between atoms: N_1  and  C_2
REMARK    2  A    between atoms: C_2  and  C_3
REMARK    3  A    between atoms: C_6  and  C_7
REMARK    4  A    between atoms: C_7  and  N_8
REMARK                            x       y       z     vdW  Elec       q    Type
REMARK                         _______ _______ _______ _____ _____    ______ ____
ROOT
ATOM      1  C   UNL     1      46.197   4.744  13.031  0.00  0.00    +0.000 A 
ATOM      2  C   UNL     1      46.393   5.770  12.097  0.00  0.00    +0.000 A 
ATOM      3  C   UNL     1      45.733   5.753  10.866  0.00  0.00    +0.000 A 
ATOM      4  C   UNL     1      44.869   4.699  10.539  0.00  0.00    +0.000 A 
ATOM      5  C   UNL     1      44.657   3.683  11.482  0.00  0.00    +0.000 A 
ATOM      6  C   UNL     1      45.315   3.703  12.714  0.00  0.00    +0.000 A 
ENDROOT
BRANCH   1   7
ATOM      7  C   UNL     1      46.963   4.731  14.329  0.00  0.00    +0.000 C 
BRANCH   7   8
ATOM      8  N   UNL     1      47.452   3.395  14.650  0.00  0.00    +0.000 NA
ATOM      9  H   UNL     1      47.758   3.380  15.621  0.00  0.00    +0.000 HD
ATOM     10  H   UNL     1      48.281   3.211  14.086  0.00  0.00    +0.000 HD
ENDBRANCH   7   8
ENDBRANCH   1   7
BRANCH   4  11
ATOM     11  C   UNL     1      44.296   4.570   9.142  0.00  0.00    +0.000 C 
BRANCH  11  12
ATOM     12  N   UNL     1      44.629   3.257   8.608  0.00  0.00    +0.000 N 
ATOM     13  N   UNL     1      44.154   2.151   9.219  0.00  0.00    +0.000 NA
ATOM     14  N   UNL     1      45.004   1.165   8.963  0.00  0.00    +0.000 NA
ATOM     15  C   UNL     1      45.971   1.647   8.123  0.00  0.00    +0.000 A 
ATOM     16  C   UNL     1      47.140   1.049   7.629  0.00  0.00    +0.000 A 
ATOM     17  C   UNL     1      47.957   1.794   6.767  0.00  0.00    +0.000 A 
ATOM     18  C   UNL     1      47.602   3.090   6.378  0.00  0.00    +0.000 A 
ATOM     19  C   UNL     1      46.455   3.707   6.881  0.00  0.00    +0.000 A 
ATOM     20  C   UNL     1      45.682   2.961   7.775  0.00  0.00    +0.000 A 
ENDBRANCH  11  12
ENDBRANCH   4  11
TORSDOF 4
ENDMDL
MODEL 4
REMARK VINA RESULT:    -6.742      1.939      2.981
REMARK INTER + INTRA:          -8.318
REMARK INTER:                  -7.868
REMARK INTRA:                  -0.450
REMARK UNBOUND:                -0.197
REMARK  Name = 
REMARK  4 active torsions:
REMARK  status: ('A' for Active; 'I' for Inactive)
REMARK    1  A    between atoms: N_1  and  C_2
REMARK    2  A    between atoms: C_2  and  C_3
REMARK    3  A    between atoms: C_6  and  C_7
REMARK    4  A    between atoms: C_7  and  N_8
REMARK                            x       y       z     vdW  Elec       q    Type
REMARK                         _______ _______ _______ _____ _____    ______ ____
ROOT
ATOM      1  C   UNL     1      46.418   2.524   7.622  0.00  0.00    +0.000 A 
ATOM      2  C   UNL     1      45.667   1.825   8.576  0.00  0.00    +0.000 A 
ATOM      3  C   UNL     1      44.919   2.507   9.538  0.00  0.00    +0.000 A 
ATOM      4  C   UNL     1      44.914   3.908   9.571  0.00  0.00    +0.000 A 
ATOM      5  C   UNL     1      45.649   4.608   8.602  0.00  0.00    +0.000 A 
ATOM      6  C   UNL     1      46.394   3.924   7.638  0.00  0.00    +0.000 A 
ENDROOT
BRANCH   1   7
ATOM      7  C   UNL     1      47.278   1.785   6.629  0.00  0.00    +0.000 C 
BRANCH   7   8
ATOM      8  N   UNL     1      47.970   2.701   5.731  0.00  0.00    +0.000 NA
ATOM      9  H   UNL     1      48.795   2.236   5.355  0.00  0.00    +0.000 HD
ATOM     10  H   UNL     1      48.311   3.491   6.277  0.00  0.00    +0.000 HD
ENDBRANCH   7   8
ENDBRANCH   1   7
BRANCH   4  11
ATOM     11  C   UNL     1      44.263   4.656  10.717  0.00  0.00    +0.000 C 
BRANCH  11  12
ATOM     12  N   UNL     1      45.255   5.506  11.358  0.00  0.00    +0.000 N 
ATOM     13  N   UNL     1      46.118   4.968  12.245  0.00  0.00    +0.000 NA
ATOM     14  N   UNL     1      46.478   5.933  13.081  0.00  0.00    +0.000 NA
ATOM     15  C   UNL     1      45.892   7.097  12.660  0.00  0.00    +0.000 A 
ATOM     16  C   UNL     1      45.873   8.376  13.235  0.00  0.00    +0.000 A 
ATOM     17  C   UNL     1      45.182   9.397  12.567  0.00  0.00    +0.000 A 
ATOM     18  C   UNL     1      44.555   9.160  11.339  0.00  0.00    +0.000 A 
ATOM     19  C   UNL     1      44.545   7.886  10.767  0.00  0.00    +0.000 A 
ATOM     20  C   UNL     1      45.200   6.875  11.475  0.00  0.00    +0.000 A 
ENDBRANCH  11  12
ENDBRANCH   4  11
TORSDOF 4
ENDMDL
MODEL 5
REMARK VINA RESULT:    -6.154      1.258      2.028
REMARK INTER + INTRA:          -7.610
REMARK INTER:                  -7.720
REMARK INTRA:                   0.111
REMARK UNBOUND:                -0.197
REMARK  Name = 
REMARK  4 active torsions:
REMARK  status: ('A' for Active; 'I' for Inactive)
REMARK    1  A    between atoms: N_1  and  C_2
REMARK    2  A    between atoms: C_2  and  C_3
REMARK    3  A    between atoms: C_6  and  C_7
REMARK    4  A    between atoms: C_7  and  N_8
REMARK                            x       y       z     vdW  Elec       q    Type
REMARK                         _______ _______ _______ _____ _____    ______ ____
ROOT
ATOM      1  C   UNL     1      45.983   3.395   7.549  0.00  0.00    +0.000 A 
ATOM      2  C   UNL     1      45.172   2.421   8.146  0.00  0.00    +0.000 A 
ATOM      3  C   UNL     1      44.511   2.679   9.349  0.00  0.00    +0.000 A 
ATOM      4  C   UNL     1      44.656   3.919   9.986  0.00  0.00    +0.000 A 
ATOM      5  C   UNL     1      45.451   4.901   9.377  0.00  0.00    +0.000 A 
ATOM      6  C   UNL     1      46.108   4.643   8.172  0.00  0.00    +0.000 A 
ENDROOT
BRANCH   1   7
ATOM      7  C   UNL     1      46.748   3.089   6.287  0.00  0.00    +0.000 C 
BRANCH   7   8
ATOM      8  N   UNL     1      48.170   2.906   6.553  0.00  0.00    +0.000 NA
ATOM      9  H   UNL     1      48.445   3.521   7.317  0.00  0.00    +0.000 HD
ATOM     10  H   UNL     1      48.693   3.215   5.735  0.00  0.00    +0.000 HD
ENDBRANCH   7   8
ENDBRANCH   1   7
BRANCH   4  11
ATOM     11  C   UNL     1      44.101   4.146  11.378  0.00  0.00    +0.000 C 
BRANCH  11  12
ATOM     12  N   UNL     1      44.410   5.504  11.801  0.00  0.00    +0.000 N 
ATOM     13  N   UNL     1      43.666   6.531  11.338  0.00  0.00    +0.000 NA
ATOM     14  N   UNL     1      44.434   7.612  11.354  0.00  0.00    +0.000 NA
ATOM     15  C   UNL     1      45.639   7.268  11.905  0.00  0.00    +0.000 A 
ATOM     16  C   UNL     1      46.820   8.006  12.067  0.00  0.00    +0.000 A 
ATOM     17  C   UNL     1      47.917   7.384  12.679  0.00  0.00    +0.000 A 
ATOM     18  C   UNL     1      47.830   6.070  13.151  0.00  0.00    +0.000 A 
ATOM     19  C   UNL     1      46.669   5.314  12.975  0.00  0.00    +0.000 A 
ATOM     20  C   UNL     1      45.606   5.941  12.320  0.00  0.00    +0.000 A 
ENDBRANCH  11  12
ENDBRANCH   4  11
TORSDOF 4
ENDMDL
MODEL 6
REMARK VINA RESULT:    -6.135      2.658      3.847
REMARK INTER + INTRA:          -7.586
REMARK INTER:                  -7.134
REMARK INTRA:                  -0.452
REMARK UNBOUND:                -0.197
REMARK  Name = 
REMARK  4 active torsions:
REMARK  status: ('A' for Active; 'I' for Inactive)
REMARK    1  A    between atoms: N_1  and  C_2
REMARK    2  A    between atoms: C_2  and  C_3
REMARK    3  A    between atoms: C_6  and  C_7
REMARK    4  A    between atoms: C_7  and  N_8
REMARK                            x       y       z     vdW  Elec       q    Type
REMARK                         _______ _______ _______ _____ _____    ______ ____
ROOT
ATOM      1  C   UNL     1      45.151   3.868   9.070  0.00  0.00    +0.000 A 
ATOM      2  C   UNL     1      45.586   5.159   9.401  0.00  0.00    +0.000 A 
ATOM      3  C   UNL     1      45.657   5.571  10.733  0.00  0.00    +0.000 A 
ATOM      4  C   UNL     1      45.282   4.701  11.766  0.00  0.00    +0.000 A 
ATOM      5  C   UNL     1      44.866   3.402  11.436  0.00  0.00    +0.000 A 
ATOM      6  C   UNL     1      44.799   2.990  10.103  0.00  0.00    +0.000 A 
ENDROOT
BRANCH   1   7
ATOM      7  C   UNL     1      45.011   3.451   7.629  0.00  0.00    +0.000 C 
BRANCH   7   8
ATOM      8  N   UNL     1      46.221   3.737   6.867  0.00  0.00    +0.000 NA
ATOM      9  H   UNL     1      46.506   2.895   6.370  0.00  0.00    +0.000 HD
ATOM     10  H   UNL     1      46.972   3.951   7.523  0.00  0.00    +0.000 HD
ENDBRANCH   7   8
ENDBRANCH   1   7
BRANCH   4  11
ATOM     11  C   UNL     1      45.173   5.193  13.195  0.00  0.00    +0.000 C 
BRANCH  11  12
ATOM     12  N   UNL     1      46.471   5.073  13.843  0.00  0.00    +0.000 N 
ATOM     13  N   UNL     1      46.683   4.074  14.726  0.00  0.00    +0.000 NA
ATOM     14  N   UNL     1      47.621   4.487  15.569  0.00  0.00    +0.000 NA
ATOM     15  C   UNL     1      48.048   5.721  15.156  0.00  0.00    +0.000 A 
ATOM     16  C   UNL     1      48.948   6.624  15.739  0.00  0.00    +0.000 A 
ATOM     17  C   UNL     1      49.200   7.834  15.079  0.00  0.00    +0.000 A 
ATOM     18  C   UNL     1      48.599   8.124  13.849  0.00  0.00    +0.000 A 
ATOM     19  C   UNL     1      47.683   7.246  13.268  0.00  0.00    +0.000 A 
ATOM     20  C   UNL     1      47.412   6.067  13.969  0.00  0.00    +0.000 A 
ENDBRANCH  11  12
ENDBRANCH   4  11
TORSDOF 4
ENDMDL
MODEL 7
REMARK VINA RESULT:    -5.974      2.846      6.728
REMARK INTER + INTRA:          -7.393
REMARK INTER:                  -7.240
REMARK INTRA:                  -0.153
REMARK UNBOUND:                -0.197
REMARK  Name = 
REMARK  4 active torsions:
REMARK  status: ('A' for Active; 'I' for Inactive)
REMARK    1  A    between atoms: N_1  and  C_2
REMARK    2  A    between atoms: C_2  and  C_3
REMARK    3  A    between atoms: C_6  and  C_7
REMARK    4  A    between atoms: C_7  and  N_8
REMARK                            x       y       z     vdW  Elec       q    Type
REMARK                         _______ _______ _______ _____ _____    ______ ____
ROOT
ATOM      1  C   UNL     1      47.787   4.679  16.117  0.00  0.00    +0.000 A 
ATOM      2  C   UNL     1      47.122   4.044  15.059  0.00  0.00    +0.000 A 
ATOM      3  C   UNL     1      47.018   4.657  13.808  0.00  0.00    +0.000 A 
ATOM      4  C   UNL     1      47.569   5.927  13.592  0.00  0.00    +0.000 A 
ATOM      5  C   UNL     1      48.252   6.554  14.645  0.00  0.00    +0.000 A 
ATOM      6  C   UNL     1      48.359   5.938  15.895  0.00  0.00    +0.000 A 
ENDROOT
BRANCH   1   7
ATOM      7  C   UNL     1      47.838   4.045  17.483  0.00  0.00    +0.000 C 
BRANCH   7   8
ATOM      8  N   UNL     1      46.765   3.075  17.665  0.00  0.00    +0.000 NA
ATOM      9  H   UNL     1      45.971   3.348  17.088  0.00  0.00    +0.000 HD
ATOM     10  H   UNL     1      46.446   3.124  18.632  0.00  0.00    +0.000 HD
ENDBRANCH   7   8
ENDBRANCH   1   7
BRANCH   4  11
ATOM     11  C   UNL     1      47.302   6.680  12.305  0.00  0.00    +0.000 C 
BRANCH  11  12
ATOM     12  N   UNL     1      45.910   6.494  11.922  0.00  0.00    +0.000 N 
ATOM     13  N   UNL     1      44.938   6.673  12.840  0.00  0.00    +0.000 NA
ATOM     14  N   UNL     1      43.908   5.921  12.475  0.00  0.00    +0.000 NA
ATOM     15  C   UNL     1      44.217   5.331  11.279  0.00  0.00    +0.000 A 
ATOM     16  C   UNL     1      43.522   4.382  10.516  0.00  0.00    +0.000 A 
ATOM     17  C   UNL     1      44.090   3.953   9.307  0.00  0.00    +0.000 A 
ATOM     18  C   UNL     1      45.302   4.482   8.852  0.00  0.00    +0.000 A 
ATOM     19  C   UNL     1      46.017   5.409   9.613  0.00  0.00    +0.000 A 
ATOM     20  C   UNL     1      45.454   5.785  10.836  0.00  0.00    +0.000 A 
ENDBRANCH  11  12
ENDBRANCH   4  11
TORSDOF 4
ENDMDL
MODEL 8
REMARK VINA RESULT:    -5.962      4.557      7.730
REMARK INTER + INTRA:          -7.378
REMARK INTER:                  -7.020
REMARK INTRA:                  -0.358
REMARK UNBOUND:                -0.197
REMARK  Name = 
REMARK  4 active torsions:
REMARK  status: ('A' for Active; 'I' for Inactive)
REMARK    1  A    between atoms: N_1  and  C_2
REMARK    2  A    between atoms: C_2  and  C_3
REMARK    3  A    between atoms: C_6  and  C_7
REMARK    4  A    between atoms: C_7  and  N_8
REMARK                            x       y       z     vdW  Elec       q    Type
REMARK                         _______ _______ _______ _____ _____    ______ ____
ROOT
ATOM      1  C   UNL     1      50.654   2.380  17.373  0.00  0.00    +0.000 A 
ATOM      2  C   UNL     1      50.472   3.707  17.782  0.00  0.00    +0.000 A 
ATOM      3  C   UNL     1      49.318   4.413  17.430  0.00  0.00    +0.000 A 
ATOM      4  C   UNL     1      48.325   3.805  16.651  0.00  0.00    +0.000 A 
ATOM      5  C   UNL     1      48.498   2.469  16.259  0.00  0.00    +0.000 A 
ATOM      6  C   UNL     1      49.651   1.764  16.615  0.00  0.00    +0.000 A 
ENDROOT
BRANCH   1   7
ATOM      7  C   UNL     1      51.930   1.645  17.696  0.00  0.00    +0.000 C 
BRANCH   7   8
ATOM      8  N   UNL     1      51.668   0.268  18.100  0.00  0.00    +0.000 NA
ATOM      9  H   UNL     1      52.024  -0.360  17.382  0.00  0.00    +0.000 HD
ATOM     10  H   UNL     1      50.660   0.127  18.131  0.00  0.00    +0.000 HD
ENDBRANCH   7   8
ENDBRANCH   1   7
BRANCH   4  11
ATOM     11  C   UNL     1      47.164   4.611  16.106  0.00  0.00    +0.000 C 
BRANCH  11  12
ATOM     12  N   UNL     1      47.504   5.102  14.778  0.00  0.00    +0.000 N 
ATOM     13  N   UNL     1      48.325   6.166  14.653  0.00  0.00    +0.000 NA
ATOM     14  N   UNL     1      48.026   6.762  13.506  0.00  0.00    +0.000 NA
ATOM     15  C   UNL     1      47.065   6.015  12.880  0.00  0.00    +0.000 A 
ATOM     16  C   UNL     1      46.345   6.248  11.699  0.00  0.00    +0.000 A 
ATOM     17  C   UNL     1      45.407   5.290  11.290  0.00  0.00    +0.000 A 
ATOM     18  C   UNL     1      45.214   4.112  12.018  0.00  0.00    +0.000 A 
ATOM     19  C   UNL     1      45.906   3.877  13.209  0.00  0.00    +0.000 A 
ATOM     20  C   UNL     1      46.801   4.869  13.620  0.00  0.00    +0.000 A 
ENDBRANCH  11  12
ENDBRANCH   4  11
TORSDOF 4
ENDMDL
MODEL 9
REMARK VINA RESULT:    -5.358      3.257      6.076
REMARK INTER + INTRA:          -6.651
REMARK INTER:                  -6.192
REMARK INTRA:                  -0.460
REMARK UNBOUND:                -0.197
REMARK  Name = 
REMARK  4 active torsions:
REMARK  status: ('A' for Active; 'I' for Inactive)
REMARK    1  A    between atoms: N_1  and  C_2
REMARK    2  A    between atoms: C_2  and  C_3
REMARK    3  A    between atoms: C_6  and  C_7
REMARK    4  A    between atoms: C_7  and  N_8
REMARK                            x       y       z     vdW  Elec       q    Type
REMARK                         _______ _______ _______ _____ _____    ______ ____
ROOT
ATOM      1  C   UNL     1      49.878   8.108  12.597  0.00  0.00    +0.000 A 
ATOM      2  C   UNL     1      49.213   8.287  13.817  0.00  0.00    +0.000 A 
ATOM      3  C   UNL     1      47.855   7.985  13.944  0.00  0.00    +0.000 A 
ATOM      4  C   UNL     1      47.129   7.504  12.845  0.00  0.00    +0.000 A 
ATOM      5  C   UNL     1      47.800   7.305  11.629  0.00  0.00    +0.000 A 
ATOM      6  C   UNL     1      49.159   7.604  11.506  0.00  0.00    +0.000 A 
ENDROOT
BRANCH   1   7
ATOM      7  C   UNL     1      51.325   8.499  12.447  0.00  0.00    +0.000 C 
BRANCH   7   8
ATOM      8  N   UNL     1      51.986   7.722  11.405  0.00  0.00    +0.000 NA
ATOM      9  H   UNL     1      51.321   7.541  10.655  0.00  0.00    +0.000 HD
ATOM     10  H   UNL     1      52.237   6.813  11.791  0.00  0.00    +0.000 HD
ENDBRANCH   7   8
ENDBRANCH   1   7
BRANCH   4  11
ATOM     11  C   UNL     1      45.624   7.352  12.915  0.00  0.00    +0.000 C 
BRANCH  11  12
ATOM     12  N   UNL     1      45.287   5.937  12.973  0.00  0.00    +0.000 N 
ATOM     13  N   UNL     1      45.889   5.147  13.887  0.00  0.00    +0.000 NA
ATOM     14  N   UNL     1      45.898   3.914  13.397  0.00  0.00    +0.000 NA
ATOM     15  C   UNL     1      45.226   3.928  12.204  0.00  0.00    +0.000 A 
ATOM     16  C   UNL     1      45.031   2.921  11.249  0.00  0.00    +0.000 A 
ATOM     17  C   UNL     1      44.284   3.225  10.102  0.00  0.00    +0.000 A 
ATOM     18  C   UNL     1      43.717   4.491   9.926  0.00  0.00    +0.000 A 
ATOM     19  C   UNL     1      43.924   5.512  10.856  0.00  0.00    +0.000 A 
ATOM     20  C   UNL     1      44.711   5.197  11.968  0.00  0.00    +0.000 A 
ENDBRANCH  11  12
ENDBRANCH   4  11
TORSDOF 4
ENDMDL
