MODEL 1
REMARK VINA RESULT:    -8.515      0.000      0.000
REMARK INTER + INTRA:         -11.923
REMARK INTER:                 -11.004
REMARK INTRA:                  -0.919
REMARK UNBOUND:                -0.919
REMARK  Name = 
REMARK  7 active torsions:
REMARK  status: ('A' for Active; 'I' for Inactive)
REMARK    1  A    between atoms: C_1  and  C_2
REMARK    2  A    between atoms: C_2  and  C_3
REMARK    3  A    between atoms: C_2  and  C_4
REMARK    4  A    between atoms: C_2  and  C_18
REMARK    5  A    between atoms: C_5  and  C_6
REMARK    6  A    between atoms: C_10  and  N_11
REMARK    7  A    between atoms: C_21  and  C_22
REMARK                            x       y       z     vdW  Elec       q    Type
REMARK                         _______ _______ _______ _____ _____    ______ ____
ROOT
ATOM      1  C   UNL     1      45.240   4.287  12.080  0.00  0.00    +0.000 C 
ATOM      2  C   UNL     1      45.964   5.416  12.157  0.00  0.00    +0.000 C 
ENDROOT
BRANCH   2   3
ATOM      3  C   UNL     1      46.901   5.731  13.244  0.00  0.00    +0.000 A 
ATOM      4  C   UNL     1      47.708   6.868  13.226  0.00  0.00    +0.000 A 
ATOM      5  C   UNL     1      48.542   7.149  14.302  0.00  0.00    +0.000 A 
ATOM      6  C   UNL     1      48.541   6.315  15.420  0.00  0.00    +0.000 A 
ATOM      7  C   UNL     1      47.714   5.185  15.505  0.00  0.00    +0.000 A 
ATOM      8  C   UNL     1      46.916   4.907  14.382  0.00  0.00    +0.000 A 
BRANCH   7   9
ATOM      9  N   UNL     1      47.669   4.409  16.645  0.00  0.00    +0.000 N 
ATOM     10  C   UNL     1      47.162   4.902  17.932  0.00  0.00    +0.000 C 
ATOM     11  C   UNL     1      48.205   4.655  19.042  0.00  0.00    +0.000 C 
ATOM     12  N   UNL     1      48.608   3.235  19.153  0.00  0.00    +0.000 NA
ATOM     13  C   UNL     1      49.118   2.786  17.839  0.00  0.00    +0.000 C 
ATOM     14  C   UNL     1      48.140   3.014  16.660  0.00  0.00    +0.000 C 
ATOM     15  H   UNL     1      47.772   2.689  19.365  0.00  0.00    +0.000 HD
ENDBRANCH   7   9
ENDBRANCH   2   3
BRANCH   1  17
ATOM     16  C   UNL     1      43.367   2.808  11.499  0.00  0.00    +0.000 C 
ATOM     17  C   UNL     1      44.311   3.895  10.936  0.00  0.00    +0.000 C 
ATOM     18  C   UNL     1      43.437   5.118  10.567  0.00  0.00    +0.000 C 
BRANCH  17  19
ATOM     19  C   UNL     1      45.084   3.449   9.680  0.00  0.00    +0.000 A 
ATOM     20  C   UNL     1      45.591   4.414   8.784  0.00  0.00    +0.000 A 
ATOM     21  C   UNL     1      46.298   4.043   7.635  0.00  0.00    +0.000 A 
ATOM     22  C   UNL     1      46.521   2.692   7.361  0.00  0.00    +0.000 A 
ATOM     23  C   UNL     1      46.041   1.733   8.243  0.00  0.00    +0.000 A 
ATOM     24  F   UNL     1      46.252   0.429   8.012  0.00  0.00    +0.000 F 
ATOM     25  C   UNL     1      45.334   2.098   9.388  0.00  0.00    +0.000 A 
BRANCH  22  26
ATOM     26  C   UNL     1      47.234   2.300   6.191  0.00  0.00    +0.000 C 
ATOM     27  N   UNL     1      47.831   1.956   5.255  0.00  0.00    +0.000 NA
ENDBRANCH  22  26
ENDBRANCH  17  19
ENDBRANCH   1  17
TORSDOF 5
ENDMDL
MODEL 2
REMARK VINA RESULT:    -7.633      2.101      3.658
REMARK INTER + INTRA:         -10.784
REMARK INTER:                  -9.755
REMARK INTRA:                  -1.028
REMARK UNBOUND:                -0.919
REMARK  Name = 
REMARK  7 active torsions:
REMARK  status: ('A' for Active; 'I' for Inactive)
REMARK    1  A    between atoms: C_1  and  C_2
REMARK    2  A    between atoms: C_2  and  C_3
REMARK    3  A    between atoms: C_2  and  C_4
REMARK    4  A    between atoms: C_2  and  C_18
REMARK    5  A    between atoms: C_5  and  C_6
REMARK    6  A    between atoms: C_10  and  N_11
REMARK    7  A    between atoms: C_21  and  C_22
REMARK                            x       y       z     vdW  Elec       q    Type
REMARK                         _______ _______ _______ _____ _____    ______ ____
ROOT
ATOM      1  C   UNL     1      45.066   4.887  12.484  0.00  0.00    +0.000 C 
ATOM      2  C   UNL     1      46.080   4.280  13.122  0.00  0.00    +0.000 C 
ENDROOT
BRANCH   2   3
ATOM      3  C   UNL     1      46.933   4.923  14.131  0.00  0.00    +0.000 A 
ATOM      4  C   UNL     1      47.196   4.337  15.369  0.00  0.00    +0.000 A 
ATOM      5  C   UNL     1      48.050   4.960  16.270  0.00  0.00    +0.000 A 
ATOM      6  C   UNL     1      48.680   6.155  15.919  0.00  0.00    +0.000 A 
ATOM      7  C   UNL     1      48.485   6.760  14.668  0.00  0.00    +0.000 A 
ATOM      8  C   UNL     1      47.581   6.125  13.799  0.00  0.00    +0.000 A 
BRANCH   7   9
ATOM      9  N   UNL     1      49.168   7.902  14.306  0.00  0.00    +0.000 N 
ATOM     10  C   UNL     1      48.500   9.118  13.823  0.00  0.00    +0.000 C 
ATOM     11  C   UNL     1      49.111   9.559  12.476  0.00  0.00    +0.000 C 
ATOM     12  N   UNL     1      50.576   9.765  12.543  0.00  0.00    +0.000 NA
ATOM     13  C   UNL     1      51.205   8.515  13.025  0.00  0.00    +0.000 C 
ATOM     14  C   UNL     1      50.637   7.987  14.366  0.00  0.00    +0.000 C 
ATOM     15  H   UNL     1      50.757  10.491  13.237  0.00  0.00    +0.000 HD
ENDBRANCH   7   9
ENDBRANCH   2   3
BRANCH   1  17
ATOM     16  C   UNL     1      43.453   3.053  12.226  0.00  0.00    +0.000 C 
ATOM     17  C   UNL     1      44.117   4.235  11.484  0.00  0.00    +0.000 C 
ATOM     18  C   UNL     1      42.999   5.245  11.132  0.00  0.00    +0.000 C 
BRANCH  17  19
ATOM     19  C   UNL     1      44.831   3.823  10.182  0.00  0.00    +0.000 A 
ATOM     20  C   UNL     1      45.369   4.810   9.328  0.00  0.00    +0.000 A 
ATOM     21  C   UNL     1      46.023   4.468   8.140  0.00  0.00    +0.000 A 
ATOM     22  C   UNL     1      46.162   3.126   7.783  0.00  0.00    +0.000 A 
ATOM     23  C   UNL     1      45.652   2.144   8.622  0.00  0.00    +0.000 A 
ATOM     24  F   UNL     1      45.782   0.846   8.310  0.00  0.00    +0.000 F 
ATOM     25  C   UNL     1      44.996   2.480   9.806  0.00  0.00    +0.000 A 
BRANCH  22  26
ATOM     26  C   UNL     1      46.821   2.765   6.571  0.00  0.00    +0.000 C 
ATOM     27  N   UNL     1      47.351   2.438   5.590  0.00  0.00    +0.000 NA
ENDBRANCH  22  26
ENDBRANCH  17  19
ENDBRANCH   1  17
TORSDOF 5
ENDMDL
MODEL 3
REMARK VINA RESULT:    -7.177      3.366      8.664
REMARK INTER + INTRA:         -10.194
REMARK INTER:                  -9.286
REMARK INTRA:                  -0.908
REMARK UNBOUND:                -0.919
REMARK  Name = 
REMARK  7 active torsions:
REMARK  status: ('A' for Active; 'I' for Inactive)
REMARK    1  A    between atoms: C_1  and  C_2
REMARK    2  A    between atoms: C_2  and  C_3
REMARK    3  A    between atoms: C_2  and  C_4
REMARK    4  A    between atoms: C_2  and  C_18
REMARK    5  A    between atoms: C_5  and  C_6
REMARK    6  A    between atoms: C_10  and  N_11
REMARK    7  A    between atoms: C_21  and  C_22
REMARK                            x       y       z     vdW  Elec       q    Type
REMARK                         _______ _______ _______ _____ _____    ______ ____
ROOT
ATOM      1  C   UNL     1      47.894   4.997  16.106  0.00  0.00    +0.000 C 
ATOM      2  C   UNL     1      47.127   4.589  15.082  0.00  0.00    +0.000 C 
ENDROOT
BRANCH   2   3
ATOM      3  C   UNL     1      46.945   5.335  13.829  0.00  0.00    +0.000 A 
ATOM      4  C   UNL     1      47.641   6.512  13.554  0.00  0.00    +0.000 A 
ATOM      5  C   UNL     1      47.473   7.155  12.334  0.00  0.00    +0.000 A 
ATOM      6  C   UNL     1      46.637   6.600  11.365  0.00  0.00    +0.000 A 
ATOM      7  C   UNL     1      45.951   5.394  11.575  0.00  0.00    +0.000 A 
ATOM      8  C   UNL     1      46.111   4.794  12.836  0.00  0.00    +0.000 A 
BRANCH   7   9
ATOM      9  N   UNL     1      45.185   4.818  10.583  0.00  0.00    +0.000 N 
ATOM     10  C   UNL     1      44.024   3.962  10.861  0.00  0.00    +0.000 C 
ATOM     11  C   UNL     1      44.164   2.620  10.110  0.00  0.00    +0.000 C 
ATOM     12  N   UNL     1      44.347   2.788   8.651  0.00  0.00    +0.000 NA
ATOM     13  C   UNL     1      45.528   3.648   8.420  0.00  0.00    +0.000 C 
ATOM     14  C   UNL     1      45.481   5.012   9.154  0.00  0.00    +0.000 C 
ATOM     15  H   UNL     1      43.529   3.280   8.290  0.00  0.00    +0.000 HD
ENDBRANCH   7   9
ENDBRANCH   2   3
BRANCH   1  17
ATOM     16  C   UNL     1      47.703   5.132  18.551  0.00  0.00    +0.000 C 
ATOM     17  C   UNL     1      48.161   4.220  17.390  0.00  0.00    +0.000 C 
ATOM     18  C   UNL     1      47.257   2.964  17.406  0.00  0.00    +0.000 C 
BRANCH  17  19
ATOM     19  C   UNL     1      49.629   3.766  17.506  0.00  0.00    +0.000 A 
ATOM     20  C   UNL     1      50.641   4.710  17.784  0.00  0.00    +0.000 A 
ATOM     21  C   UNL     1      51.983   4.330  17.896  0.00  0.00    +0.000 A 
ATOM     22  C   UNL     1      52.342   2.991  17.739  0.00  0.00    +0.000 A 
ATOM     23  C   UNL     1      51.354   2.049  17.480  0.00  0.00    +0.000 A 
ATOM     24  F   UNL     1      51.670   0.753  17.338  0.00  0.00    +0.000 F 
ATOM     25  C   UNL     1      50.017   2.423  17.365  0.00  0.00    +0.000 A 
BRANCH  22  26
ATOM     26  C   UNL     1      53.707   2.592  17.845  0.00  0.00    +0.000 C 
ATOM     27  N   UNL     1      54.811   2.237  17.914  0.00  0.00    +0.000 NA
ENDBRANCH  22  26
ENDBRANCH  17  19
ENDBRANCH   1  17
TORSDOF 5
ENDMDL
MODEL 4
REMARK VINA RESULT:    -6.982      3.930      8.445
REMARK INTER + INTRA:          -9.942
REMARK INTER:                  -8.951
REMARK INTRA:                  -0.992
REMARK UNBOUND:                -0.919
REMARK  Name = 
REMARK  7 active torsions:
REMARK  status: ('A' for Active; 'I' for Inactive)
REMARK    1  A    between atoms: C_1  and  C_2
REMARK    2  A    between atoms: C_2  and  C_3
REMARK    3  A    between atoms: C_2  and  C_4
REMARK    4  A    between atoms: C_2  and  C_18
REMARK    5  A    between atoms: C_5  and  C_6
REMARK    6  A    between atoms: C_10  and  N_11
REMARK    7  A    between atoms: C_21  and  C_22
REMARK                            x       y       z     vdW  Elec       q    Type
REMARK                         _______ _______ _______ _____ _____    ______ ____
ROOT
ATOM      1  C   UNL     1      47.722   4.483  15.968  0.00  0.00    +0.000 C 
ATOM      2  C   UNL     1      48.180   5.606  15.389  0.00  0.00    +0.000 C 
ENDROOT
BRANCH   2   3
ATOM      3  C   UNL     1      47.772   6.084  14.061  0.00  0.00    +0.000 A 
ATOM      4  C   UNL     1      48.548   6.973  13.317  0.00  0.00    +0.000 A 
ATOM      5  C   UNL     1      48.143   7.356  12.044  0.00  0.00    +0.000 A 
ATOM      6  C   UNL     1      46.980   6.819  11.492  0.00  0.00    +0.000 A 
ATOM      7  C   UNL     1      46.191   5.887  12.181  0.00  0.00    +0.000 A 
ATOM      8  C   UNL     1      46.606   5.555  13.482  0.00  0.00    +0.000 A 
BRANCH   7   9
ATOM      9  N   UNL     1      45.083   5.308  11.597  0.00  0.00    +0.000 N 
ATOM     10  C   UNL     1      43.810   6.017  11.415  0.00  0.00    +0.000 C 
ATOM     11  C   UNL     1      42.652   5.191  12.014  0.00  0.00    +0.000 C 
ATOM     12  N   UNL     1      42.567   3.822  11.457  0.00  0.00    +0.000 NA
ATOM     13  C   UNL     1      43.866   3.145  11.671  0.00  0.00    +0.000 C 
ATOM     14  C   UNL     1      45.089   3.917  11.116  0.00  0.00    +0.000 C 
ATOM     15  H   UNL     1      42.422   3.904  10.450  0.00  0.00    +0.000 HD
ENDBRANCH   7   9
ENDBRANCH   2   3
BRANCH   1  17
ATOM     16  C   UNL     1      47.769   5.168  18.326  0.00  0.00    +0.000 C 
ATOM     17  C   UNL     1      48.069   3.992  17.369  0.00  0.00    +0.000 C 
ATOM     18  C   UNL     1      47.107   2.838  17.741  0.00  0.00    +0.000 C 
BRANCH  17  19
ATOM     19  C   UNL     1      49.516   3.472  17.465  0.00  0.00    +0.000 A 
ATOM     20  C   UNL     1      49.803   2.121  17.174  0.00  0.00    +0.000 A 
ATOM     21  C   UNL     1      51.106   1.619  17.251  0.00  0.00    +0.000 A 
ATOM     22  C   UNL     1      52.157   2.462  17.616  0.00  0.00    +0.000 A 
ATOM     23  C   UNL     1      51.891   3.797  17.890  0.00  0.00    +0.000 A 
ATOM     24  F   UNL     1      52.883   4.633  18.230  0.00  0.00    +0.000 F 
ATOM     25  C   UNL     1      50.594   4.302  17.817  0.00  0.00    +0.000 A 
BRANCH  22  26
ATOM     26  C   UNL     1      53.488   1.961  17.705  0.00  0.00    +0.000 C 
ATOM     27  N   UNL     1      54.581   1.576  17.800  0.00  0.00    +0.000 NA
ENDBRANCH  22  26
ENDBRANCH  17  19
ENDBRANCH   1  17
TORSDOF 5
ENDMDL
MODEL 5
REMARK VINA RESULT:    -6.705      2.087      2.454
REMARK INTER + INTRA:          -9.584
REMARK INTER:                  -8.670
REMARK INTRA:                  -0.914
REMARK UNBOUND:                -0.919
REMARK  Name = 
REMARK  7 active torsions:
REMARK  status: ('A' for Active; 'I' for Inactive)
REMARK    1  A    between atoms: C_1  and  C_2
REMARK    2  A    between atoms: C_2  and  C_3
REMARK    3  A    between atoms: C_2  and  C_4
REMARK    4  A    between atoms: C_2  and  C_18
REMARK    5  A    between atoms: C_5  and  C_6
REMARK    6  A    between atoms: C_10  and  N_11
REMARK    7  A    between atoms: C_21  and  C_22
REMARK                            x       y       z     vdW  Elec       q    Type
REMARK                         _______ _______ _______ _____ _____    ______ ____
ROOT
ATOM      1  C   UNL     1      45.175   5.848  12.080  0.00  0.00    +0.000 C 
ATOM      2  C   UNL     1      46.400   5.699  12.612  0.00  0.00    +0.000 C 
ENDROOT
BRANCH   2   3
ATOM      3  C   UNL     1      47.179   6.784  13.225  0.00  0.00    +0.000 A 
ATOM      4  C   UNL     1      47.039   8.116  12.834  0.00  0.00    +0.000 A 
ATOM      5  C   UNL     1      47.761   9.112  13.479  0.00  0.00    +0.000 A 
ATOM      6  C   UNL     1      48.597   8.786  14.548  0.00  0.00    +0.000 A 
ATOM      7  C   UNL     1      48.736   7.468  15.008  0.00  0.00    +0.000 A 
ATOM      8  C   UNL     1      48.025   6.481  14.305  0.00  0.00    +0.000 A 
BRANCH   7   9
ATOM      9  N   UNL     1      49.509   7.168  16.110  0.00  0.00    +0.000 N 
ATOM     10  C   UNL     1      48.970   7.103  17.475  0.00  0.00    +0.000 C 
ATOM     11  C   UNL     1      49.801   8.001  18.416  0.00  0.00    +0.000 C 
ATOM     12  N   UNL     1      51.243   7.667  18.413  0.00  0.00    +0.000 NA
ATOM     13  C   UNL     1      51.743   7.754  17.023  0.00  0.00    +0.000 C 
ATOM     14  C   UNL     1      50.952   6.896  16.003  0.00  0.00    +0.000 C 
ATOM     15  H   UNL     1      51.339   6.699  18.717  0.00  0.00    +0.000 HD
ENDBRANCH   7   9
ENDBRANCH   2   3
BRANCH   1  17
ATOM     16  C   UNL     1      44.142   3.687  12.621  0.00  0.00    +0.000 C 
ATOM     17  C   UNL     1      44.310   4.736  11.499  0.00  0.00    +0.000 C 
ATOM     18  C   UNL     1      42.906   5.311  11.192  0.00  0.00    +0.000 C 
BRANCH  17  19
ATOM     19  C   UNL     1      44.897   4.157  10.197  0.00  0.00    +0.000 A 
ATOM     20  C   UNL     1      45.470   5.018   9.236  0.00  0.00    +0.000 A 
ATOM     21  C   UNL     1      46.011   4.524   8.045  0.00  0.00    +0.000 A 
ATOM     22  C   UNL     1      45.999   3.151   7.791  0.00  0.00    +0.000 A 
ATOM     23  C   UNL     1      45.452   2.292   8.735  0.00  0.00    +0.000 A 
ATOM     24  F   UNL     1      45.438   0.968   8.523  0.00  0.00    +0.000 F 
ATOM     25  C   UNL     1      44.909   2.779   9.922  0.00  0.00    +0.000 A 
BRANCH  22  26
ATOM     26  C   UNL     1      46.542   2.636   6.578  0.00  0.00    +0.000 C 
ATOM     27  N   UNL     1      47.015   2.228   5.598  0.00  0.00    +0.000 NA
ENDBRANCH  22  26
ENDBRANCH  17  19
ENDBRANCH   1  17
TORSDOF 5
ENDMDL
MODEL 6
REMARK VINA RESULT:    -6.507      3.815      4.870
REMARK INTER + INTRA:          -9.328
REMARK INTER:                  -8.396
REMARK INTRA:                  -0.932
REMARK UNBOUND:                -0.919
REMARK  Name = 
REMARK  7 active torsions:
REMARK  status: ('A' for Active; 'I' for Inactive)
REMARK    1  A    between atoms: C_1  and  C_2
REMARK    2  A    between atoms: C_2  and  C_3
REMARK    3  A    between atoms: C_2  and  C_4
REMARK    4  A    between atoms: C_2  and  C_18
REMARK    5  A    between atoms: C_5  and  C_6
REMARK    6  A    between atoms: C_10  and  N_11
REMARK    7  A    between atoms: C_21  and  C_22
REMARK                            x       y       z     vdW  Elec       q    Type
REMARK                         _______ _______ _______ _____ _____    ______ ____
ROOT
ATOM      1  C   UNL     1      45.227   6.338  11.257  0.00  0.00    +0.000 C 
ATOM      2  C   UNL     1      44.616   7.457  11.681  0.00  0.00    +0.000 C 
ENDROOT
BRANCH   2   3
ATOM      3  C   UNL     1      45.258   8.777  11.758  0.00  0.00    +0.000 A 
ATOM      4  C   UNL     1      44.564   9.960  11.501  0.00  0.00    +0.000 A 
ATOM      5  C   UNL     1      45.202  11.187  11.636  0.00  0.00    +0.000 A 
ATOM      6  C   UNL     1      46.527  11.239  12.071  0.00  0.00    +0.000 A 
ATOM      7  C   UNL     1      47.252  10.080  12.387  0.00  0.00    +0.000 A 
ATOM      8  C   UNL     1      46.590   8.855  12.197  0.00  0.00    +0.000 A 
BRANCH   7   9
ATOM      9  N   UNL     1      48.537  10.148  12.884  0.00  0.00    +0.000 N 
ATOM     10  C   UNL     1      49.227  11.416  13.157  0.00  0.00    +0.000 C 
ATOM     11  C   UNL     1      50.597  11.437  12.448  0.00  0.00    +0.000 C 
ATOM     12  N   UNL     1      51.458  10.290  12.815  0.00  0.00    +0.000 NA
ATOM     13  C   UNL     1      50.727   9.038  12.516  0.00  0.00    +0.000 C 
ATOM     14  C   UNL     1      49.328   8.941  13.174  0.00  0.00    +0.000 C 
ATOM     15  H   UNL     1      51.612  10.327  13.823  0.00  0.00    +0.000 HD
ENDBRANCH   7   9
ENDBRANCH   2   3
BRANCH   1  17
ATOM     16  C   UNL     1      44.747   4.249  12.456  0.00  0.00    +0.000 C 
ATOM     17  C   UNL     1      44.576   4.968  11.099  0.00  0.00    +0.000 C 
ATOM     18  C   UNL     1      43.058   5.165  10.869  0.00  0.00    +0.000 C 
BRANCH  17  19
ATOM     19  C   UNL     1      45.153   4.180   9.907  0.00  0.00    +0.000 A 
ATOM     20  C   UNL     1      45.851   4.857   8.884  0.00  0.00    +0.000 A 
ATOM     21  C   UNL     1      46.387   4.171   7.789  0.00  0.00    +0.000 A 
ATOM     22  C   UNL     1      46.243   2.785   7.698  0.00  0.00    +0.000 A 
ATOM     23  C   UNL     1      45.573   2.105   8.706  0.00  0.00    +0.000 A 
ATOM     24  F   UNL     1      45.432   0.772   8.651  0.00  0.00    +0.000 F 
ATOM     25  C   UNL     1      45.034   2.785   9.797  0.00  0.00    +0.000 A 
BRANCH  22  26
ATOM     26  C   UNL     1      46.780   2.075   6.584  0.00  0.00    +0.000 C 
ATOM     27  N   UNL     1      47.239   1.521   5.672  0.00  0.00    +0.000 NA
ENDBRANCH  22  26
ENDBRANCH  17  19
ENDBRANCH   1  17
TORSDOF 5
ENDMDL
MODEL 7
REMARK VINA RESULT:    -6.481      3.004      4.627
REMARK INTER + INTRA:          -9.294
REMARK INTER:                  -8.275
REMARK INTRA:                  -1.020
REMARK UNBOUND:                -0.919
REMARK  Name = 
REMARK  7 active torsions:
REMARK  status: ('A' for Active; 'I' for Inactive)
REMARK    1  A    between atoms: C_1  and  C_2
REMARK    2  A    between atoms: C_2  and  C_3
REMARK    3  A    between atoms: C_2  and  C_4
REMARK    4  A    between atoms: C_2  and  C_18
REMARK    5  A    between atoms: C_5  and  C_6
REMARK    6  A    between atoms: C_10  and  N_11
REMARK    7  A    between atoms: C_21  and  C_22
REMARK                            x       y       z     vdW  Elec       q    Type
REMARK                         _______ _______ _______ _____ _____    ______ ____
ROOT
ATOM      1  C   UNL     1      47.961   7.704  13.830  0.00  0.00    +0.000 C 
ATOM      2  C   UNL     1      49.258   7.505  14.120  0.00  0.00    +0.000 C 
ENDROOT
BRANCH   2   3
ATOM      3  C   UNL     1      49.812   7.478  15.481  0.00  0.00    +0.000 A 
ATOM      4  C   UNL     1      50.393   8.600  16.072  0.00  0.00    +0.000 A 
ATOM      5  C   UNL     1      50.858   8.538  17.380  0.00  0.00    +0.000 A 
ATOM      6  C   UNL     1      50.705   7.364  18.118  0.00  0.00    +0.000 A 
ATOM      7  C   UNL     1      50.086   6.224  17.584  0.00  0.00    +0.000 A 
ATOM      8  C   UNL     1      49.667   6.308  16.245  0.00  0.00    +0.000 A 
BRANCH   7   9
ATOM      9  N   UNL     1      49.876   5.094  18.347  0.00  0.00    +0.000 N 
ATOM     10  C   UNL     1      49.577   3.778  17.766  0.00  0.00    +0.000 C 
ATOM     11  C   UNL     1      48.297   3.197  18.401  0.00  0.00    +0.000 C 
ATOM     12  N   UNL     1      48.370   3.108  19.877  0.00  0.00    +0.000 NA
ATOM     13  C   UNL     1      48.663   4.454  20.416  0.00  0.00    +0.000 C 
ATOM     14  C   UNL     1      49.926   5.123  19.818  0.00  0.00    +0.000 C 
ATOM     15  H   UNL     1      49.155   2.501  20.113  0.00  0.00    +0.000 HD
ENDBRANCH   7   9
ENDBRANCH   2   3
BRANCH   1  17
ATOM     16  C   UNL     1      46.657   9.043  12.238  0.00  0.00    +0.000 C 
ATOM     17  C   UNL     1      47.339   7.671  12.439  0.00  0.00    +0.000 C 
ATOM     18  C   UNL     1      48.474   7.562  11.392  0.00  0.00    +0.000 C 
BRANCH  17  19
ATOM     19  C   UNL     1      46.386   6.475  12.252  0.00  0.00    +0.000 A 
ATOM     20  C   UNL     1      46.047   5.662  13.355  0.00  0.00    +0.000 A 
ATOM     21  C   UNL     1      45.184   4.569  13.218  0.00  0.00    +0.000 A 
ATOM     22  C   UNL     1      44.632   4.270  11.972  0.00  0.00    +0.000 A 
ATOM     23  C   UNL     1      44.944   5.072  10.881  0.00  0.00    +0.000 A 
ATOM     24  F   UNL     1      44.417   4.816   9.675  0.00  0.00    +0.000 F 
ATOM     25  C   UNL     1      45.806   6.160  11.012  0.00  0.00    +0.000 A 
BRANCH  22  26
ATOM     26  C   UNL     1      43.756   3.156  11.818  0.00  0.00    +0.000 C 
ATOM     27  N   UNL     1      43.068   2.227  11.697  0.00  0.00    +0.000 NA
ENDBRANCH  22  26
ENDBRANCH  17  19
ENDBRANCH   1  17
TORSDOF 5
ENDMDL
MODEL 8
REMARK VINA RESULT:    -5.939      5.008      7.673
REMARK INTER + INTRA:          -8.595
REMARK INTER:                  -7.676
REMARK INTRA:                  -0.918
REMARK UNBOUND:                -0.919
REMARK  Name = 
REMARK  7 active torsions:
REMARK  status: ('A' for Active; 'I' for Inactive)
REMARK    1  A    between atoms: C_1  and  C_2
REMARK    2  A    between atoms: C_2  and  C_3
REMARK    3  A    between atoms: C_2  and  C_4
REMARK    4  A    between atoms: C_2  and  C_18
REMARK    5  A    between atoms: C_5  and  C_6
REMARK    6  A    between atoms: C_10  and  N_11
REMARK    7  A    between atoms: C_21  and  C_22
REMARK                            x       y       z     vdW  Elec       q    Type
REMARK                         _______ _______ _______ _____ _____    ______ ____
ROOT
ATOM      1  C   UNL     1      48.878   7.976  12.100  0.00  0.00    +0.000 C 
ATOM      2  C   UNL     1      50.164   7.604  11.982  0.00  0.00    +0.000 C 
ENDROOT
BRANCH   2   3
ATOM      3  C   UNL     1      51.103   8.157  10.996  0.00  0.00    +0.000 A 
ATOM      4  C   UNL     1      51.417   9.516  10.946  0.00  0.00    +0.000 A 
ATOM      5  C   UNL     1      52.350   9.983  10.029  0.00  0.00    +0.000 A 
ATOM      6  C   UNL     1      53.005   9.087   9.183  0.00  0.00    +0.000 A 
ATOM      7  C   UNL     1      52.758   7.706   9.227  0.00  0.00    +0.000 A 
ATOM      8  C   UNL     1      51.778   7.274  10.137  0.00  0.00    +0.000 A 
BRANCH   7   9
ATOM      9  N   UNL     1      53.463   6.823   8.437  0.00  0.00    +0.000 N 
ATOM     10  C   UNL     1      52.930   6.258   7.191  0.00  0.00    +0.000 C 
ATOM     11  C   UNL     1      53.032   4.719   7.219  0.00  0.00    +0.000 C 
ATOM     12  N   UNL     1      54.409   4.233   7.460  0.00  0.00    +0.000 NA
ATOM     13  C   UNL     1      54.901   4.819   8.727  0.00  0.00    +0.000 C 
ATOM     14  C   UNL     1      54.817   6.365   8.792  0.00  0.00    +0.000 C 
ATOM     15  H   UNL     1      54.999   4.585   6.706  0.00  0.00    +0.000 HD
ENDBRANCH   7   9
ENDBRANCH   2   3
BRANCH   1  17
ATOM     16  C   UNL     1      48.747   6.988  14.345  0.00  0.00    +0.000 C 
ATOM     17  C   UNL     1      47.894   7.476  13.152  0.00  0.00    +0.000 C 
ATOM     18  C   UNL     1      47.049   8.674  13.648  0.00  0.00    +0.000 C 
BRANCH  17  19
ATOM     19  C   UNL     1      46.939   6.402  12.597  0.00  0.00    +0.000 A 
ATOM     20  C   UNL     1      46.435   5.397  13.449  0.00  0.00    +0.000 A 
ATOM     21  C   UNL     1      45.565   4.408  12.977  0.00  0.00    +0.000 A 
ATOM     22  C   UNL     1      45.174   4.408  11.637  0.00  0.00    +0.000 A 
ATOM     23  C   UNL     1      45.650   5.401  10.791  0.00  0.00    +0.000 A 
ATOM     24  F   UNL     1      45.279   5.433   9.502  0.00  0.00    +0.000 F 
ATOM     25  C   UNL     1      46.518   6.387  11.256  0.00  0.00    +0.000 A 
BRANCH  22  26
ATOM     26  C   UNL     1      44.293   3.402  11.141  0.00  0.00    +0.000 C 
ATOM     27  N   UNL     1      43.560   2.606  10.718  0.00  0.00    +0.000 NA
ENDBRANCH  22  26
ENDBRANCH  17  19
ENDBRANCH   1  17
TORSDOF 5
ENDMDL
MODEL 9
REMARK VINA RESULT:    -5.905      4.156      9.357
REMARK INTER + INTRA:          -8.551
REMARK INTER:                  -7.557
REMARK INTRA:                  -0.994
REMARK UNBOUND:                -0.919
REMARK  Name = 
REMARK  7 active torsions:
REMARK  status: ('A' for Active; 'I' for Inactive)
REMARK    1  A    between atoms: C_1  and  C_2
REMARK    2  A    between atoms: C_2  and  C_3
REMARK    3  A    between atoms: C_2  and  C_4
REMARK    4  A    between atoms: C_2  and  C_18
REMARK    5  A    between atoms: C_5  and  C_6
REMARK    6  A    between atoms: C_10  and  N_11
REMARK    7  A    between atoms: C_21  and  C_22
REMARK                            x       y       z     vdW  Elec       q    Type
REMARK                         _______ _______ _______ _____ _____    ______ ____
ROOT
ATOM      1  C   UNL     1      47.944   4.897  15.981  0.00  0.00    +0.000 C 
ATOM      2  C   UNL     1      48.254   5.978  15.245  0.00  0.00    +0.000 C 
ENDROOT
BRANCH   2   3
ATOM      3  C   UNL     1      47.719   6.253  13.904  0.00  0.00    +0.000 A 
ATOM      4  C   UNL     1      48.361   7.105  13.006  0.00  0.00    +0.000 A 
ATOM      5  C   UNL     1      47.842   7.294  11.730  0.00  0.00    +0.000 A 
ATOM      6  C   UNL     1      46.700   6.598  11.333  0.00  0.00    +0.000 A 
ATOM      7  C   UNL     1      46.046   5.694  12.184  0.00  0.00    +0.000 A 
ATOM      8  C   UNL     1      46.572   5.561  13.480  0.00  0.00    +0.000 A 
BRANCH   7   9
ATOM      9  N   UNL     1      44.961   4.958  11.755  0.00  0.00    +0.000 N 
ATOM     10  C   UNL     1      43.903   4.488  12.659  0.00  0.00    +0.000 C 
ATOM     11  C   UNL     1      43.701   2.967  12.494  0.00  0.00    +0.000 C 
ATOM     12  N   UNL     1      43.405   2.570  11.099  0.00  0.00    +0.000 NA
ATOM     13  C   UNL     1      44.499   3.055  10.229  0.00  0.00    +0.000 C 
ATOM     14  C   UNL     1      44.784   4.573  10.345  0.00  0.00    +0.000 C 
ATOM     15  H   UNL     1      42.548   3.045  10.815  0.00  0.00    +0.000 HD
ENDBRANCH   7   9
ENDBRANCH   2   3
BRANCH   1  17
ATOM     16  C   UNL     1      47.345   3.717  18.049  0.00  0.00    +0.000 C 
ATOM     17  C   UNL     1      48.424   4.612  17.400  0.00  0.00    +0.000 C 
ATOM     18  C   UNL     1      49.728   3.781  17.324  0.00  0.00    +0.000 C 
BRANCH  17  19
ATOM     19  C   UNL     1      48.712   5.902  18.191  0.00  0.00    +0.000 A 
ATOM     20  C   UNL     1      50.023   6.421  18.243  0.00  0.00    +0.000 A 
ATOM     21  C   UNL     1      50.318   7.591  18.952  0.00  0.00    +0.000 A 
ATOM     22  C   UNL     1      49.301   8.274  19.620  0.00  0.00    +0.000 A 
ATOM     23  C   UNL     1      48.003   7.783  19.564  0.00  0.00    +0.000 A 
ATOM     24  F   UNL     1      47.004   8.426  20.186  0.00  0.00    +0.000 F 
ATOM     25  C   UNL     1      47.705   6.617  18.862  0.00  0.00    +0.000 A 
BRANCH  22  26
ATOM     26  C   UNL     1      49.589   9.464  20.352  0.00  0.00    +0.000 C 
ATOM     27  N   UNL     1      49.830  10.449  20.918  0.00  0.00    +0.000 NA
ENDBRANCH  22  26
ENDBRANCH  17  19
ENDBRANCH   1  17
TORSDOF 5
ENDMDL
