MODEL 1
REMARK VINA RESULT:    -6.813      0.000      0.000
REMARK INTER + INTRA:          -8.899
REMARK INTER:                  -8.207
REMARK INTRA:                  -0.693
REMARK UNBOUND:                -0.693
REMARK  Name = 
REMARK  4 active torsions:
REMARK  status: ('A' for Active; 'I' for Inactive)
REMARK    1  A    between atoms: C_2  and  C_4
REMARK    2  A    between atoms: N_10  and  C_11
REMARK    3  A    between atoms: C_11  and  C_12
REMARK    4  A    between atoms: C_17  and  N_18
REMARK                            x       y       z     vdW  Elec       q    Type
REMARK                         _______ _______ _______ _____ _____    ______ ____
ROOT
ATOM      1  C   UNL     1      46.787   5.119  14.229  0.00  0.00    +0.000 A 
ATOM      2  C   UNL     1      47.573   6.265  14.262  0.00  0.00    +0.000 A 
ATOM      3  N   UNL     1      47.321   7.371  13.521  0.00  0.00    +0.000 NA
ATOM      4  C   UNL     1      46.208   7.252  12.752  0.00  0.00    +0.000 A 
ATOM      5  C   UNL     1      45.620   8.187  11.873  0.00  0.00    +0.000 A 
ATOM      6  C   UNL     1      44.494   7.596  11.341  0.00  0.00    +0.000 A 
ATOM      7  N   UNL     1      44.375   6.331  11.879  0.00  0.00    +0.000 N 
ATOM      8  C   UNL     1      45.425   6.092  12.736  0.00  0.00    +0.000 A 
ATOM      9  N   UNL     1      45.660   4.964  13.457  0.00  0.00    +0.000 NA
ENDROOT
BRANCH   1  11
ATOM     10  N   UNL     1      46.960   4.153  16.454  0.00  0.00    +0.000 N 
ATOM     11  C   UNL     1      47.173   3.979  15.111  0.00  0.00    +0.000 C 
ATOM     12  O   UNL     1      47.650   2.943  14.670  0.00  0.00    +0.000 OA
ATOM     13  H   UNL     1      47.163   3.382  17.075  0.00  0.00    +0.000 HD
ATOM     14  H   UNL     1      46.441   4.951  16.801  0.00  0.00    +0.000 HD
ENDBRANCH   1  11
BRANCH   7  15
ATOM     15  C   UNL     1      43.307   5.398  11.547  0.00  0.00    +0.000 C 
BRANCH  15  16
ATOM     16  C   UNL     1      43.782   4.344  10.586  0.00  0.00    +0.000 A 
ATOM     17  N   UNL     1      44.051   4.747   9.307  0.00  0.00    +0.000 NA
ATOM     18  C   UNL     1      44.477   3.782   8.463  0.00  0.00    +0.000 A 
ATOM     19  C   UNL     1      44.642   2.472   8.867  0.00  0.00    +0.000 A 
ATOM     20  N   UNL     1      44.382   2.065  10.129  0.00  0.00    +0.000 NA
ATOM     21  C   UNL     1      43.938   3.009  10.983  0.00  0.00    +0.000 A 
BRANCH  21  22
ATOM     22  N   UNL     1      43.684   2.565  12.281  0.00  0.00    +0.000 N 
ATOM     23  H   UNL     1      43.537   3.402  12.844  0.00  0.00    +0.000 HD
ATOM     24  H   UNL     1      44.474   2.020  12.630  0.00  0.00    +0.000 HD
ENDBRANCH  21  22
ENDBRANCH  15  16
ENDBRANCH   7  15
TORSDOF 4
ENDMDL
MODEL 2
REMARK VINA RESULT:    -6.662      2.497      5.979
REMARK INTER + INTRA:          -8.717
REMARK INTER:                  -8.299
REMARK INTRA:                  -0.418
REMARK UNBOUND:                -0.693
REMARK  Name = 
REMARK  4 active torsions:
REMARK  status: ('A' for Active; 'I' for Inactive)
REMARK    1  A    between atoms: C_2  and  C_4
REMARK    2  A    between atoms: N_10  and  C_11
REMARK    3  A    between atoms: C_11  and  C_12
REMARK    4  A    between atoms: C_17  and  N_18
REMARK                            x       y       z     vdW  Elec       q    Type
REMARK                         _______ _______ _______ _____ _____    ______ ____
ROOT
ATOM      1  C   UNL     1      45.340   3.483   8.839  0.00  0.00    +0.000 A 
ATOM      2  C   UNL     1      44.614   2.390   9.301  0.00  0.00    +0.000 A 
ATOM      3  N   UNL     1      43.812   2.427  10.391  0.00  0.00    +0.000 NA
ATOM      4  C   UNL     1      43.774   3.650  10.982  0.00  0.00    +0.000 A 
ATOM      5  C   UNL     1      43.047   4.079  12.112  0.00  0.00    +0.000 A 
ATOM      6  C   UNL     1      43.336   5.414  12.302  0.00  0.00    +0.000 A 
ATOM      7  N   UNL     1      44.211   5.812  11.313  0.00  0.00    +0.000 N 
ATOM      8  C   UNL     1      44.507   4.741  10.500  0.00  0.00    +0.000 A 
ATOM      9  N   UNL     1      45.329   4.731   9.417  0.00  0.00    +0.000 NA
ENDROOT
BRANCH   1  11
ATOM     10  N   UNL     1      46.615   2.032   7.362  0.00  0.00    +0.000 N 
ATOM     11  C   UNL     1      46.172   3.305   7.614  0.00  0.00    +0.000 C 
ATOM     12  O   UNL     1      46.446   4.234   6.868  0.00  0.00    +0.000 OA
ATOM     13  H   UNL     1      47.138   1.866   6.514  0.00  0.00    +0.000 HD
ATOM     14  H   UNL     1      46.274   1.245   7.901  0.00  0.00    +0.000 HD
ENDBRANCH   1  11
BRANCH   7  15
ATOM     15  C   UNL     1      44.750   7.158  11.190  0.00  0.00    +0.000 C 
BRANCH  15  16
ATOM     16  C   UNL     1      45.878   7.385  12.158  0.00  0.00    +0.000 A 
ATOM     17  N   UNL     1      46.836   6.412  12.235  0.00  0.00    +0.000 NA
ATOM     18  C   UNL     1      47.838   6.640  13.111  0.00  0.00    +0.000 A 
ATOM     19  C   UNL     1      47.900   7.788  13.875  0.00  0.00    +0.000 A 
ATOM     20  N   UNL     1      46.960   8.758  13.805  0.00  0.00    +0.000 NA
ATOM     21  C   UNL     1      45.941   8.541  12.949  0.00  0.00    +0.000 A 
BRANCH  21  22
ATOM     22  N   UNL     1      44.988   9.559  12.889  0.00  0.00    +0.000 N 
ATOM     23  H   UNL     1      45.022   9.923  11.938  0.00  0.00    +0.000 HD
ATOM     24  H   UNL     1      45.205  10.287  13.571  0.00  0.00    +0.000 HD
ENDBRANCH  21  22
ENDBRANCH  15  16
ENDBRANCH   7  15
TORSDOF 4
ENDMDL
MODEL 3
REMARK VINA RESULT:    -6.590      2.032      3.378
REMARK INTER + INTRA:          -8.631
REMARK INTER:                  -8.766
REMARK INTRA:                   0.135
REMARK UNBOUND:                -0.693
REMARK  Name = 
REMARK  4 active torsions:
REMARK  status: ('A' for Active; 'I' for Inactive)
REMARK    1  A    between atoms: C_2  and  C_4
REMARK    2  A    between atoms: N_10  and  C_11
REMARK    3  A    between atoms: C_11  and  C_12
REMARK    4  A    between atoms: C_17  and  N_18
REMARK                            x       y       z     vdW  Elec       q    Type
REMARK                         _______ _______ _______ _____ _____    ______ ____
ROOT
ATOM      1  C   UNL     1      46.844   5.806  12.516  0.00  0.00    +0.000 A 
ATOM      2  C   UNL     1      46.566   5.267  13.767  0.00  0.00    +0.000 A 
ATOM      3  N   UNL     1      45.540   4.416  14.008  0.00  0.00    +0.000 NA
ATOM      4  C   UNL     1      44.817   4.128  12.895  0.00  0.00    +0.000 A 
ATOM      5  C   UNL     1      43.700   3.278  12.745  0.00  0.00    +0.000 A 
ATOM      6  C   UNL     1      43.338   3.311  11.415  0.00  0.00    +0.000 A 
ATOM      7  N   UNL     1      44.208   4.150  10.749  0.00  0.00    +0.000 N 
ATOM      8  C   UNL     1      45.115   4.675  11.642  0.00  0.00    +0.000 A 
ATOM      9  N   UNL     1      46.128   5.540  11.372  0.00  0.00    +0.000 NA
ENDROOT
BRANCH   1  11
ATOM     10  N   UNL     1      47.842   7.829  11.607  0.00  0.00    +0.000 N 
ATOM     11  C   UNL     1      48.018   6.719  12.391  0.00  0.00    +0.000 C 
ATOM     12  O   UNL     1      49.080   6.499  12.956  0.00  0.00    +0.000 OA
ATOM     13  H   UNL     1      48.599   8.494  11.541  0.00  0.00    +0.000 HD
ATOM     14  H   UNL     1      46.925   8.079  11.255  0.00  0.00    +0.000 HD
ENDBRANCH   1  11
BRANCH   7  15
ATOM     15  C   UNL     1      44.135   4.442   9.325  0.00  0.00    +0.000 C 
BRANCH  15  16
ATOM     16  C   UNL     1      45.237   3.754   8.569  0.00  0.00    +0.000 A 
ATOM     17  N   UNL     1      46.105   4.550   7.875  0.00  0.00    +0.000 NA
ATOM     18  C   UNL     1      47.087   3.908   7.205  0.00  0.00    +0.000 A 
ATOM     19  C   UNL     1      47.214   2.534   7.228  0.00  0.00    +0.000 A 
ATOM     20  N   UNL     1      46.363   1.738   7.913  0.00  0.00    +0.000 NA
ATOM     21  C   UNL     1      45.366   2.358   8.574  0.00  0.00    +0.000 A 
BRANCH  21  22
ATOM     22  N   UNL     1      44.506   1.515   9.279  0.00  0.00    +0.000 N 
ATOM     23  H   UNL     1      43.726   1.319   8.655  0.00  0.00    +0.000 HD
ATOM     24  H   UNL     1      44.187   1.971  10.136  0.00  0.00    +0.000 HD
ENDBRANCH  21  22
ENDBRANCH  15  16
ENDBRANCH   7  15
TORSDOF 4
ENDMDL
MODEL 4
REMARK VINA RESULT:    -6.347      1.867      5.351
REMARK INTER + INTRA:          -8.338
REMARK INTER:                  -7.631
REMARK INTRA:                  -0.706
REMARK UNBOUND:                -0.693
REMARK  Name = 
REMARK  4 active torsions:
REMARK  status: ('A' for Active; 'I' for Inactive)
REMARK    1  A    between atoms: C_2  and  C_4
REMARK    2  A    between atoms: N_10  and  C_11
REMARK    3  A    between atoms: C_11  and  C_12
REMARK    4  A    between atoms: C_17  and  N_18
REMARK                            x       y       z     vdW  Elec       q    Type
REMARK                         _______ _______ _______ _____ _____    ______ ____
ROOT
ATOM      1  C   UNL     1      44.126   4.299  11.360  0.00  0.00    +0.000 A 
ATOM      2  C   UNL     1      43.186   5.296  11.124  0.00  0.00    +0.000 A 
ATOM      3  N   UNL     1      43.389   6.604  11.412  0.00  0.00    +0.000 NA
ATOM      4  C   UNL     1      44.616   6.846  11.943  0.00  0.00    +0.000 A 
ATOM      5  C   UNL     1      45.193   8.069  12.348  0.00  0.00    +0.000 A 
ATOM      6  C   UNL     1      46.464   7.789  12.805  0.00  0.00    +0.000 A 
ATOM      7  N   UNL     1      46.679   6.432  12.681  0.00  0.00    +0.000 N 
ATOM      8  C   UNL     1      45.552   5.830  12.168  0.00  0.00    +0.000 A 
ATOM      9  N   UNL     1      45.373   4.510  11.901  0.00  0.00    +0.000 NA
ENDROOT
BRANCH   1  11
ATOM     10  N   UNL     1      44.453   2.377   9.906  0.00  0.00    +0.000 N 
ATOM     11  C   UNL     1      43.775   2.900  10.976  0.00  0.00    +0.000 C 
ATOM     12  O   UNL     1      42.935   2.248  11.579  0.00  0.00    +0.000 OA
ATOM     13  H   UNL     1      44.277   1.416   9.651  0.00  0.00    +0.000 HD
ATOM     14  H   UNL     1      45.241   2.866   9.498  0.00  0.00    +0.000 HD
ENDBRANCH   1  11
BRANCH   7  15
ATOM     15  C   UNL     1      47.910   5.760  13.071  0.00  0.00    +0.000 C 
BRANCH  15  16
ATOM     16  C   UNL     1      47.866   5.331  14.511  0.00  0.00    +0.000 A 
ATOM     17  N   UNL     1      48.333   6.221  15.438  0.00  0.00    +0.000 NA
ATOM     18  C   UNL     1      48.280   5.814  16.725  0.00  0.00    +0.000 A 
ATOM     19  C   UNL     1      47.778   4.579  17.085  0.00  0.00    +0.000 A 
ATOM     20  N   UNL     1      47.312   3.693  16.177  0.00  0.00    +0.000 NA
ATOM     21  C   UNL     1      47.371   4.074  14.885  0.00  0.00    +0.000 A 
BRANCH  21  22
ATOM     22  N   UNL     1      46.877   3.146  13.968  0.00  0.00    +0.000 N 
ATOM     23  H   UNL     1      47.566   3.092  13.219  0.00  0.00    +0.000 HD
ATOM     24  H   UNL     1      45.968   3.447  13.613  0.00  0.00    +0.000 HD
ENDBRANCH  21  22
ENDBRANCH  15  16
ENDBRANCH   7  15
TORSDOF 4
ENDMDL
MODEL 5
REMARK VINA RESULT:    -6.248      2.650      6.634
REMARK INTER + INTRA:          -8.219
REMARK INTER:                  -8.018
REMARK INTRA:                  -0.201
REMARK UNBOUND:                -0.693
REMARK  Name = 
REMARK  4 active torsions:
REMARK  status: ('A' for Active; 'I' for Inactive)
REMARK    1  A    between atoms: C_2  and  C_4
REMARK    2  A    between atoms: N_10  and  C_11
REMARK    3  A    between atoms: C_11  and  C_12
REMARK    4  A    between atoms: C_17  and  N_18
REMARK                            x       y       z     vdW  Elec       q    Type
REMARK                         _______ _______ _______ _____ _____    ______ ____
ROOT
ATOM      1  C   UNL     1      44.949   4.302  12.372  0.00  0.00    +0.000 A 
ATOM      2  C   UNL     1      45.377   5.345  11.557  0.00  0.00    +0.000 A 
ATOM      3  N   UNL     1      46.374   6.199  11.891  0.00  0.00    +0.000 NA
ATOM      4  C   UNL     1      46.928   5.922  13.100  0.00  0.00    +0.000 A 
ATOM      5  C   UNL     1      47.988   6.568  13.771  0.00  0.00    +0.000 A 
ATOM      6  C   UNL     1      48.185   5.900  14.961  0.00  0.00    +0.000 A 
ATOM      7  N   UNL     1      47.281   4.860  15.030  0.00  0.00    +0.000 N 
ATOM      8  C   UNL     1      46.488   4.864  13.904  0.00  0.00    +0.000 A 
ATOM      9  N   UNL     1      45.483   4.000  13.602  0.00  0.00    +0.000 NA
ENDROOT
BRANCH   1  11
ATOM     10  N   UNL     1      43.742   2.193  12.456  0.00  0.00    +0.000 N 
ATOM     11  C   UNL     1      43.850   3.427  11.870  0.00  0.00    +0.000 C 
ATOM     12  O   UNL     1      43.081   3.783  10.988  0.00  0.00    +0.000 OA
ATOM     13  H   UNL     1      42.978   1.595  12.177  0.00  0.00    +0.000 HD
ATOM     14  H   UNL     1      44.288   1.955  13.276  0.00  0.00    +0.000 HD
ENDBRANCH   1  11
BRANCH   7  15
ATOM     15  C   UNL     1      47.181   3.934  16.148  0.00  0.00    +0.000 C 
BRANCH  15  16
ATOM     16  C   UNL     1      48.233   4.215  17.185  0.00  0.00    +0.000 A 
ATOM     17  N   UNL     1      49.485   3.718  16.949  0.00  0.00    +0.000 NA
ATOM     18  C   UNL     1      50.413   3.985  17.894  0.00  0.00    +0.000 A 
ATOM     19  C   UNL     1      50.120   4.723  19.024  0.00  0.00    +0.000 A 
ATOM     20  N   UNL     1      48.887   5.221  19.265  0.00  0.00    +0.000 NA
ATOM     21  C   UNL     1      47.942   4.951  18.342  0.00  0.00    +0.000 A 
BRANCH  21  22
ATOM     22  N   UNL     1      46.680   5.483  18.610  0.00  0.00    +0.000 N 
ATOM     23  H   UNL     1      46.107   5.279  17.793  0.00  0.00    +0.000 HD
ATOM     24  H   UNL     1      46.747   6.489  18.773  0.00  0.00    +0.000 HD
ENDBRANCH  21  22
ENDBRANCH  15  16
ENDBRANCH   7  15
TORSDOF 4
ENDMDL
MODEL 6
REMARK VINA RESULT:    -5.981      1.634      2.357
REMARK INTER + INTRA:          -7.898
REMARK INTER:                  -7.628
REMARK INTRA:                  -0.270
REMARK UNBOUND:                -0.693
REMARK  Name = 
REMARK  4 active torsions:
REMARK  status: ('A' for Active; 'I' for Inactive)
REMARK    1  A    between atoms: C_2  and  C_4
REMARK    2  A    between atoms: N_10  and  C_11
REMARK    3  A    between atoms: C_11  and  C_12
REMARK    4  A    between atoms: C_17  and  N_18
REMARK                            x       y       z     vdW  Elec       q    Type
REMARK                         _______ _______ _______ _____ _____    ______ ____
ROOT
ATOM      1  C   UNL     1      47.690   4.622  16.084  0.00  0.00    +0.000 A 
ATOM      2  C   UNL     1      48.691   5.570  15.907  0.00  0.00    +0.000 A 
ATOM      3  N   UNL     1      48.805   6.347  14.804  0.00  0.00    +0.000 NA
ATOM      4  C   UNL     1      47.827   6.116  13.889  0.00  0.00    +0.000 A 
ATOM      5  C   UNL     1      47.602   6.734  12.641  0.00  0.00    +0.000 A 
ATOM      6  C   UNL     1      46.472   6.160  12.099  0.00  0.00    +0.000 A 
ATOM      7  N   UNL     1      45.997   5.216  12.986  0.00  0.00    +0.000 N 
ATOM      8  C   UNL     1      46.823   5.161  14.086  0.00  0.00    +0.000 A 
ATOM      9  N   UNL     1      46.691   4.359  15.176  0.00  0.00    +0.000 NA
ENDROOT
BRANCH   1  11
ATOM     10  N   UNL     1      46.714   2.875  17.467  0.00  0.00    +0.000 N 
ATOM     11  C   UNL     1      47.675   3.846  17.359  0.00  0.00    +0.000 C 
ATOM     12  O   UNL     1      48.474   4.056  18.261  0.00  0.00    +0.000 OA
ATOM     13  H   UNL     1      46.708   2.298  18.295  0.00  0.00    +0.000 HD
ATOM     14  H   UNL     1      46.147   2.612  16.670  0.00  0.00    +0.000 HD
ENDBRANCH   1  11
BRANCH   7  15
ATOM     15  C   UNL     1      44.818   4.394  12.754  0.00  0.00    +0.000 C 
BRANCH  15  16
ATOM     16  C   UNL     1      44.692   4.018  11.304  0.00  0.00    +0.000 A 
ATOM     17  N   UNL     1      45.368   2.904  10.891  0.00  0.00    +0.000 NA
ATOM     18  C   UNL     1      45.237   2.586   9.584  0.00  0.00    +0.000 A 
ATOM     19  C   UNL     1      44.461   3.332   8.721  0.00  0.00    +0.000 A 
ATOM     20  N   UNL     1      43.786   4.434   9.120  0.00  0.00    +0.000 NA
ATOM     21  C   UNL     1      43.918   4.778  10.417  0.00  0.00    +0.000 A 
BRANCH  21  22
ATOM     22  N   UNL     1      43.206   5.914  10.806  0.00  0.00    +0.000 N 
ATOM     23  H   UNL     1      43.018   5.804  11.800  0.00  0.00    +0.000 HD
ATOM     24  H   UNL     1      42.339   5.988  10.271  0.00  0.00    +0.000 HD
ENDBRANCH  21  22
ENDBRANCH  15  16
ENDBRANCH   7  15
TORSDOF 4
ENDMDL
MODEL 7
REMARK VINA RESULT:    -5.921      2.632      4.256
REMARK INTER + INTRA:          -7.825
REMARK INTER:                  -7.036
REMARK INTRA:                  -0.789
REMARK UNBOUND:                -0.693
REMARK  Name = 
REMARK  4 active torsions:
REMARK  status: ('A' for Active; 'I' for Inactive)
REMARK    1  A    between atoms: C_2  and  C_4
REMARK    2  A    between atoms: N_10  and  C_11
REMARK    3  A    between atoms: C_11  and  C_12
REMARK    4  A    between atoms: C_17  and  N_18
REMARK                            x       y       z     vdW  Elec       q    Type
REMARK                         _______ _______ _______ _____ _____    ______ ____
ROOT
ATOM      1  C   UNL     1      48.908   4.801  17.372  0.00  0.00    +0.000 A 
ATOM      2  C   UNL     1      49.106   5.867  18.243  0.00  0.00    +0.000 A 
ATOM      3  N   UNL     1      49.067   7.166  17.863  0.00  0.00    +0.000 NA
ATOM      4  C   UNL     1      48.798   7.324  16.540  0.00  0.00    +0.000 A 
ATOM      5  C   UNL     1      48.659   8.510  15.788  0.00  0.00    +0.000 A 
ATOM      6  C   UNL     1      48.370   8.140  14.492  0.00  0.00    +0.000 A 
ATOM      7  N   UNL     1      48.321   6.762  14.435  0.00  0.00    +0.000 N 
ATOM      8  C   UNL     1      48.596   6.239  15.679  0.00  0.00    +0.000 A 
ATOM      9  N   UNL     1      48.642   4.927  16.029  0.00  0.00    +0.000 NA
ENDROOT
BRANCH   1  11
ATOM     10  N   UNL     1      48.439   3.252  19.187  0.00  0.00    +0.000 N 
ATOM     11  C   UNL     1      48.963   3.419  17.931  0.00  0.00    +0.000 C 
ATOM     12  O   UNL     1      49.442   2.481  17.311  0.00  0.00    +0.000 OA
ATOM     13  H   UNL     1      48.414   2.321  19.576  0.00  0.00    +0.000 HD
ATOM     14  H   UNL     1      47.922   3.997  19.639  0.00  0.00    +0.000 HD
ENDBRANCH   1  11
BRANCH   7  15
ATOM     15  C   UNL     1      48.049   6.002  13.224  0.00  0.00    +0.000 C 
BRANCH  15  16
ATOM     16  C   UNL     1      46.597   5.623  13.132  0.00  0.00    +0.000 A 
ATOM     17  N   UNL     1      45.729   6.592  12.708  0.00  0.00    +0.000 NA
ATOM     18  C   UNL     1      44.431   6.227  12.632  0.00  0.00    +0.000 A 
ATOM     19  C   UNL     1      44.006   4.953  12.952  0.00  0.00    +0.000 A 
ATOM     20  N   UNL     1      44.855   3.988  13.369  0.00  0.00    +0.000 NA
ATOM     21  C   UNL     1      46.154   4.337  13.469  0.00  0.00    +0.000 A 
BRANCH  21  22
ATOM     22  N   UNL     1      47.011   3.322  13.894  0.00  0.00    +0.000 N 
ATOM     23  H   UNL     1      47.233   2.772  13.066  0.00  0.00    +0.000 HD
ATOM     24  H   UNL     1      46.556   2.750  14.607  0.00  0.00    +0.000 HD
ENDBRANCH  21  22
ENDBRANCH  15  16
ENDBRANCH   7  15
TORSDOF 4
ENDMDL
MODEL 8
REMARK VINA RESULT:    -5.539      2.657      6.304
REMARK INTER + INTRA:          -7.365
REMARK INTER:                  -6.610
REMARK INTRA:                  -0.755
REMARK UNBOUND:                -0.693
REMARK  Name = 
REMARK  4 active torsions:
REMARK  status: ('A' for Active; 'I' for Inactive)
REMARK    1  A    between atoms: C_2  and  C_4
REMARK    2  A    between atoms: N_10  and  C_11
REMARK    3  A    between atoms: C_11  and  C_12
REMARK    4  A    between atoms: C_17  and  N_18
REMARK                            x       y       z     vdW  Elec       q    Type
REMARK                         _______ _______ _______ _____ _____    ______ ____
ROOT
ATOM      1  C   UNL     1      46.311   5.247  13.236  0.00  0.00    +0.000 A 
ATOM      2  C   UNL     1      46.790   6.042  12.200  0.00  0.00    +0.000 A 
ATOM      3  N   UNL     1      47.847   6.879  12.322  0.00  0.00    +0.000 NA
ATOM      4  C   UNL     1      48.406   6.852  13.560  0.00  0.00    +0.000 A 
ATOM      5  C   UNL     1      49.521   7.560  14.057  0.00  0.00    +0.000 A 
ATOM      6  C   UNL     1      49.698   7.173  15.368  0.00  0.00    +0.000 A 
ATOM      7  N   UNL     1      48.729   6.242  15.680  0.00  0.00    +0.000 N 
ATOM      8  C   UNL     1      47.915   6.040  14.589  0.00  0.00    +0.000 A 
ATOM      9  N   UNL     1      46.849   5.201  14.501  0.00  0.00    +0.000 NA
ENDROOT
BRANCH   1  11
ATOM     10  N   UNL     1      43.921   4.968  12.882  0.00  0.00    +0.000 N 
ATOM     11  C   UNL     1      45.146   4.358  12.956  0.00  0.00    +0.000 C 
ATOM     12  O   UNL     1      45.268   3.151  12.797  0.00  0.00    +0.000 OA
ATOM     13  H   UNL     1      43.118   4.404  12.644  0.00  0.00    +0.000 HD
ATOM     14  H   UNL     1      43.841   5.978  12.877  0.00  0.00    +0.000 HD
ENDBRANCH   1  11
BRANCH   7  15
ATOM     15  C   UNL     1      48.592   5.608  16.984  0.00  0.00    +0.000 C 
BRANCH  15  16
ATOM     16  C   UNL     1      49.353   4.313  17.044  0.00  0.00    +0.000 A 
ATOM     17  N   UNL     1      50.666   4.380  17.421  0.00  0.00    +0.000 NA
ATOM     18  C   UNL     1      51.327   3.204  17.469  0.00  0.00    +0.000 A 
ATOM     19  C   UNL     1      50.715   2.004  17.165  0.00  0.00    +0.000 A 
ATOM     20  N   UNL     1      49.417   1.926  16.793  0.00  0.00    +0.000 NA
ATOM     21  C   UNL     1      48.744   3.092  16.723  0.00  0.00    +0.000 A 
BRANCH  21  22
ATOM     22  N   UNL     1      47.405   2.984  16.344  0.00  0.00    +0.000 N 
ATOM     23  H   UNL     1      47.396   3.006  15.326  0.00  0.00    +0.000 HD
ATOM     24  H   UNL     1      46.863   3.755  16.736  0.00  0.00    +0.000 HD
ENDBRANCH  21  22
ENDBRANCH  15  16
ENDBRANCH   7  15
TORSDOF 4
ENDMDL
MODEL 9
REMARK VINA RESULT:    -5.380      2.093      5.871
REMARK INTER + INTRA:          -7.173
REMARK INTER:                  -6.651
REMARK INTRA:                  -0.522
REMARK UNBOUND:                -0.693
REMARK  Name = 
REMARK  4 active torsions:
REMARK  status: ('A' for Active; 'I' for Inactive)
REMARK    1  A    between atoms: C_2  and  C_4
REMARK    2  A    between atoms: N_10  and  C_11
REMARK    3  A    between atoms: C_11  and  C_12
REMARK    4  A    between atoms: C_17  and  N_18
REMARK                            x       y       z     vdW  Elec       q    Type
REMARK                         _______ _______ _______ _____ _____    ______ ____
ROOT
ATOM      1  C   UNL     1      44.977   4.820  11.678  0.00  0.00    +0.000 A 
ATOM      2  C   UNL     1      43.928   5.681  11.372  0.00  0.00    +0.000 A 
ATOM      3  N   UNL     1      43.957   7.014  11.606  0.00  0.00    +0.000 NA
ATOM      4  C   UNL     1      45.127   7.431  12.158  0.00  0.00    +0.000 A 
ATOM      5  C   UNL     1      45.534   8.732  12.521  0.00  0.00    +0.000 A 
ATOM      6  C   UNL     1      46.814   8.634  13.024  0.00  0.00    +0.000 A 
ATOM      7  N   UNL     1      47.201   7.311  12.968  0.00  0.00    +0.000 N 
ATOM      8  C   UNL     1      46.174   6.551  12.454  0.00  0.00    +0.000 A 
ATOM      9  N   UNL     1      46.169   5.208  12.243  0.00  0.00    +0.000 NA
ENDROOT
BRANCH   1  11
ATOM     10  N   UNL     1      44.462   2.552  12.389  0.00  0.00    +0.000 N 
ATOM     11  C   UNL     1      44.815   3.373  11.350  0.00  0.00    +0.000 C 
ATOM     12  O   UNL     1      44.982   2.936  10.220  0.00  0.00    +0.000 OA
ATOM     13  H   UNL     1      44.294   1.576  12.192  0.00  0.00    +0.000 HD
ATOM     14  H   UNL     1      44.190   2.934  13.287  0.00  0.00    +0.000 HD
ENDBRANCH   1  11
BRANCH   7  15
ATOM     15  C   UNL     1      48.492   6.815  13.421  0.00  0.00    +0.000 C 
BRANCH  15  16
ATOM     16  C   UNL     1      48.455   6.446  14.878  0.00  0.00    +0.000 A 
ATOM     17  N   UNL     1      47.980   5.202  15.191  0.00  0.00    +0.000 NA
ATOM     18  C   UNL     1      47.958   4.894  16.506  0.00  0.00    +0.000 A 
ATOM     19  C   UNL     1      48.396   5.774  17.475  0.00  0.00    +0.000 A 
ATOM     20  N   UNL     1      48.871   7.004  17.176  0.00  0.00    +0.000 NA
ATOM     21  C   UNL     1      48.885   7.338  15.870  0.00  0.00    +0.000 A 
BRANCH  21  22
ATOM     22  N   UNL     1      49.385   8.610  15.587  0.00  0.00    +0.000 N 
ATOM     23  H   UNL     1      49.806   8.948  16.451  0.00  0.00    +0.000 HD
ATOM     24  H   UNL     1      48.632   9.226  15.277  0.00  0.00    +0.000 HD
ENDBRANCH  21  22
ENDBRANCH  15  16
ENDBRANCH   7  15
TORSDOF 4
ENDMDL
