MODEL 1
REMARK VINA RESULT:    -7.337      0.000      0.000
REMARK INTER + INTRA:         -10.355
REMARK INTER:                  -9.267
REMARK INTRA:                  -1.089
REMARK UNBOUND:                -1.089
REMARK  Name = 
REMARK  5 active torsions:
REMARK  status: ('A' for Active; 'I' for Inactive)
REMARK    1  A    between atoms: N_1  and  C_2
REMARK    2  A    between atoms: C_5  and  N_6
REMARK    3  A    between atoms: C_10  and  C_11
REMARK    4  A    between atoms: C_11  and  N_12
REMARK    5  A    between atoms: C_13  and  C_15
REMARK                            x       y       z     vdW  Elec       q    Type
REMARK                         _______ _______ _______ _____ _____    ______ ____
ROOT
ATOM      1  N   UNL     1      46.116   4.356  13.732  0.00  0.00    +0.000 N 
ATOM      2  C   UNL     1      47.021   4.904  14.651  0.00  0.00    +0.000 A 
ATOM      3  C   UNL     1      47.199   4.223  15.853  0.00  0.00    +0.000 A 
ATOM      4  C   UNL     1      48.091   4.715  16.803  0.00  0.00    +0.000 A 
ATOM      5  C   UNL     1      48.822   5.867  16.523  0.00  0.00    +0.000 A 
ATOM      6  C   UNL     1      48.615   6.454  15.280  0.00  0.00    +0.000 A 
ATOM      7  N   UNL     1      47.729   6.008  14.353  0.00  0.00    +0.000 NA
ATOM      8  H   UNL     1      46.590   3.573  13.286  0.00  0.00    +0.000 HD
ENDROOT
BRANCH   1  12
ATOM      9  C   UNL     1      43.478   3.405  11.564  0.00  0.00    +0.000 C 
ATOM     10  C   UNL     1      43.258   4.079  12.922  0.00  0.00    +0.000 C 
ATOM     11  C   UNL     1      43.994   5.418  13.006  0.00  0.00    +0.000 C 
ATOM     12  C   UNL     1      45.503   5.260  12.752  0.00  0.00    +0.000 C 
ATOM     13  C   UNL     1      45.693   4.646  11.349  0.00  0.00    +0.000 C 
ATOM     14  C   UNL     1      44.963   3.307  11.192  0.00  0.00    +0.000 C 
BRANCH   9  15
ATOM     15  N   UNL     1      42.880   2.067  11.559  0.00  0.00    +0.000 NA
ATOM     16  H   UNL     1      43.359   1.483  10.873  0.00  0.00    +0.000 HD
ATOM     17  H   UNL     1      41.915   2.131  11.235  0.00  0.00    +0.000 HD
ENDBRANCH   9  15
ENDBRANCH   1  12
BRANCH   5  18
ATOM     18  C   UNL     1      49.829   6.415  17.488  0.00  0.00    +0.000 C 
BRANCH  18  19
ATOM     19  N   UNL     1      50.747   5.389  17.919  0.00  0.00    +0.000 N 
ATOM     20  C   UNL     1      52.002   5.280  17.377  0.00  0.00    +0.000 C 
ATOM     21  O   UNL     1      52.415   6.072  16.534  0.00  0.00    +0.000 OA
ATOM     22  H   UNL     1      50.364   4.610  18.444  0.00  0.00    +0.000 HD
BRANCH  20  23
ATOM     23  C   UNL     1      52.854   4.204  17.902  0.00  0.00    +0.000 A 
ATOM     24  C   UNL     1      54.069   4.518  18.494  0.00  0.00    +0.000 A 
ATOM     25  S   UNL     1      54.913   3.161  19.090  0.00  0.00    +0.000 S 
ATOM     26  C   UNL     1      53.704   2.096  18.531  0.00  0.00    +0.000 A 
ATOM     27  N   UNL     1      53.829   0.755  18.697  0.00  0.00    +0.000 NA
ATOM     28  C   UNL     1      52.857   0.064  18.195  0.00  0.00    +0.000 A 
ATOM     29  N   UNL     1      51.776   0.595  17.549  0.00  0.00    +0.000 N 
ATOM     30  C   UNL     1      51.594   1.951  17.388  0.00  0.00    +0.000 A 
ATOM     31  O   UNL     1      50.586   2.401  16.850  0.00  0.00    +0.000 OA
ATOM     32  C   UNL     1      52.666   2.771  17.918  0.00  0.00    +0.000 A 
ATOM     33  H   UNL     1      51.045   0.001  17.186  0.00  0.00    +0.000 HD
ENDBRANCH  20  23
ENDBRANCH  18  19
ENDBRANCH   5  18
TORSDOF 5
ENDMDL
MODEL 2
REMARK VINA RESULT:    -6.859      3.478      9.699
REMARK INTER + INTRA:          -9.752
REMARK INTER:                  -8.896
REMARK INTRA:                  -0.856
REMARK UNBOUND:                -1.089
REMARK  Name = 
REMARK  5 active torsions:
REMARK  status: ('A' for Active; 'I' for Inactive)
REMARK    1  A    between atoms: N_1  and  C_2
REMARK    2  A    between atoms: C_5  and  N_6
REMARK    3  A    between atoms: C_10  and  C_11
REMARK    4  A    between atoms: C_11  and  N_12
REMARK    5  A    between atoms: C_13  and  C_15
REMARK                            x       y       z     vdW  Elec       q    Type
REMARK                         _______ _______ _______ _____ _____    ______ ____
ROOT
ATOM      1  N   UNL     1      52.638   4.471  17.715  0.00  0.00    +0.000 N 
ATOM      2  C   UNL     1      51.280   4.207  17.490  0.00  0.00    +0.000 A 
ATOM      3  C   UNL     1      50.432   5.303  17.353  0.00  0.00    +0.000 A 
ATOM      4  C   UNL     1      49.073   5.103  17.121  0.00  0.00    +0.000 A 
ATOM      5  C   UNL     1      48.585   3.805  16.991  0.00  0.00    +0.000 A 
ATOM      6  C   UNL     1      49.512   2.773  17.094  0.00  0.00    +0.000 A 
ATOM      7  N   UNL     1      50.833   2.946  17.351  0.00  0.00    +0.000 NA
ATOM      8  H   UNL     1      53.035   4.743  16.819  0.00  0.00    +0.000 HD
ENDROOT
BRANCH   1  12
ATOM      9  C   UNL     1      55.343   5.177  19.895  0.00  0.00    +0.000 C 
ATOM     10  C   UNL     1      53.906   4.946  20.374  0.00  0.00    +0.000 C 
ATOM     11  C   UNL     1      53.377   3.585  19.912  0.00  0.00    +0.000 C 
ATOM     12  C   UNL     1      53.436   3.436  18.382  0.00  0.00    +0.000 C 
ATOM     13  C   UNL     1      54.905   3.604  17.939  0.00  0.00    +0.000 C 
ATOM     14  C   UNL     1      55.503   4.943  18.388  0.00  0.00    +0.000 C 
BRANCH   9  15
ATOM     15  N   UNL     1      55.775   6.537  20.230  0.00  0.00    +0.000 NA
ATOM     16  H   UNL     1      55.019   7.026  20.710  0.00  0.00    +0.000 HD
ATOM     17  H   UNL     1      55.933   7.060  19.368  0.00  0.00    +0.000 HD
ENDBRANCH   9  15
ENDBRANCH   1  12
BRANCH   5  18
ATOM     18  C   UNL     1      47.141   3.532  16.695  0.00  0.00    +0.000 C 
BRANCH  18  19
ATOM     19  N   UNL     1      46.625   4.468  15.726  0.00  0.00    +0.000 N 
ATOM     20  C   UNL     1      46.718   4.228  14.380  0.00  0.00    +0.000 C 
ATOM     21  O   UNL     1      47.206   3.190  13.939  0.00  0.00    +0.000 OA
ATOM     22  H   UNL     1      46.417   5.407  16.049  0.00  0.00    +0.000 HD
BRANCH  20  23
ATOM     23  C   UNL     1      46.146   5.246  13.488  0.00  0.00    +0.000 A 
ATOM     24  C   UNL     1      46.888   6.375  13.172  0.00  0.00    +0.000 A 
ATOM     25  S   UNL     1      46.099   7.434  12.092  0.00  0.00    +0.000 S 
ATOM     26  C   UNL     1      44.712   6.443  12.047  0.00  0.00    +0.000 A 
ATOM     27  N   UNL     1      43.628   6.799  11.315  0.00  0.00    +0.000 NA
ATOM     28  C   UNL     1      42.634   5.974  11.399  0.00  0.00    +0.000 A 
ATOM     29  N   UNL     1      42.635   4.828  12.145  0.00  0.00    +0.000 N 
ATOM     30  C   UNL     1      43.726   4.413  12.876  0.00  0.00    +0.000 A 
ATOM     31  O   UNL     1      43.715   3.351  13.493  0.00  0.00    +0.000 OA
ATOM     32  C   UNL     1      44.861   5.313  12.830  0.00  0.00    +0.000 A 
ATOM     33  H   UNL     1      41.829   4.220  12.163  0.00  0.00    +0.000 HD
ENDBRANCH  20  23
ENDBRANCH  18  19
ENDBRANCH   5  18
TORSDOF 5
ENDMDL
MODEL 3
REMARK VINA RESULT:    -6.248      6.691      9.857
REMARK INTER + INTRA:          -8.981
REMARK INTER:                  -8.247
REMARK INTRA:                  -0.733
REMARK UNBOUND:                -1.089
REMARK  Name = 
REMARK  5 active torsions:
REMARK  status: ('A' for Active; 'I' for Inactive)
REMARK    1  A    between atoms: N_1  and  C_2
REMARK    2  A    between atoms: C_5  and  N_6
REMARK    3  A    between atoms: C_10  and  C_11
REMARK    4  A    between atoms: C_11  and  N_12
REMARK    5  A    between atoms: C_13  and  C_15
REMARK                            x       y       z     vdW  Elec       q    Type
REMARK                         _______ _______ _______ _____ _____    ______ ____
ROOT
ATOM      1  N   UNL     1      51.535   8.952  10.765  0.00  0.00    +0.000 N 
ATOM      2  C   UNL     1      50.296   8.699  11.370  0.00  0.00    +0.000 A 
ATOM      3  C   UNL     1      49.437   9.782  11.538  0.00  0.00    +0.000 A 
ATOM      4  C   UNL     1      48.188   9.592  12.127  0.00  0.00    +0.000 A 
ATOM      5  C   UNL     1      47.800   8.309  12.506  0.00  0.00    +0.000 A 
ATOM      6  C   UNL     1      48.702   7.281  12.256  0.00  0.00    +0.000 A 
ATOM      7  N   UNL     1      49.934   7.450  11.713  0.00  0.00    +0.000 NA
ATOM      8  H   UNL     1      51.360   9.045   9.767  0.00  0.00    +0.000 HD
ENDROOT
BRANCH   1  12
ATOM      9  C   UNL     1      54.281   8.441   8.582  0.00  0.00    +0.000 C 
ATOM     10  C   UNL     1      54.294   9.444   9.740  0.00  0.00    +0.000 C 
ATOM     11  C   UNL     1      53.989   8.758  11.075  0.00  0.00    +0.000 C 
ATOM     12  C   UNL     1      52.637   8.025  11.048  0.00  0.00    +0.000 C 
ATOM     13  C   UNL     1      52.681   6.975   9.919  0.00  0.00    +0.000 C 
ATOM     14  C   UNL     1      53.001   7.595   8.554  0.00  0.00    +0.000 C 
BRANCH   9  15
ATOM     15  N   UNL     1      54.436   9.140   7.304  0.00  0.00    +0.000 NA
ATOM     16  H   UNL     1      54.429   8.462   6.542  0.00  0.00    +0.000 HD
ATOM     17  H   UNL     1      55.357   9.577   7.270  0.00  0.00    +0.000 HD
ENDBRANCH   9  15
ENDBRANCH   1  12
BRANCH   5  18
ATOM     18  C   UNL     1      46.451   8.038  13.100  0.00  0.00    +0.000 C 
BRANCH  18  19
ATOM     19  N   UNL     1      45.979   6.724  12.738  0.00  0.00    +0.000 N 
ATOM     20  C   UNL     1      44.960   6.554  11.836  0.00  0.00    +0.000 C 
ATOM     21  O   UNL     1      44.433   7.506  11.266  0.00  0.00    +0.000 OA
ATOM     22  H   UNL     1      46.243   5.950  13.339  0.00  0.00    +0.000 HD
BRANCH  20  23
ATOM     23  C   UNL     1      44.572   5.169  11.535  0.00  0.00    +0.000 A 
ATOM     24  C   UNL     1      43.836   4.446  12.464  0.00  0.00    +0.000 A 
ATOM     25  S   UNL     1      43.429   2.874  11.942  0.00  0.00    +0.000 S 
ATOM     26  C   UNL     1      44.267   3.086  10.472  0.00  0.00    +0.000 A 
ATOM     27  N   UNL     1      44.337   2.083   9.562  0.00  0.00    +0.000 NA
ATOM     28  C   UNL     1      45.033   2.367   8.508  0.00  0.00    +0.000 A 
ATOM     29  N   UNL     1      45.657   3.563   8.287  0.00  0.00    +0.000 N 
ATOM     30  C   UNL     1      45.584   4.618   9.170  0.00  0.00    +0.000 A 
ATOM     31  O   UNL     1      46.112   5.699   8.918  0.00  0.00    +0.000 OA
ATOM     32  C   UNL     1      44.830   4.345  10.377  0.00  0.00    +0.000 A 
ATOM     33  H   UNL     1      46.180   3.726   7.439  0.00  0.00    +0.000 HD
ENDBRANCH  20  23
ENDBRANCH  18  19
ENDBRANCH   5  18
TORSDOF 5
ENDMDL
MODEL 4
REMARK VINA RESULT:    -6.196      4.865      9.347
REMARK INTER + INTRA:          -8.915
REMARK INTER:                  -8.137
REMARK INTRA:                  -0.778
REMARK UNBOUND:                -1.089
REMARK  Name = 
REMARK  5 active torsions:
REMARK  status: ('A' for Active; 'I' for Inactive)
REMARK    1  A    between atoms: N_1  and  C_2
REMARK    2  A    between atoms: C_5  and  N_6
REMARK    3  A    between atoms: C_10  and  C_11
REMARK    4  A    between atoms: C_11  and  N_12
REMARK    5  A    between atoms: C_13  and  C_15
REMARK                            x       y       z     vdW  Elec       q    Type
REMARK                         _______ _______ _______ _____ _____    ______ ____
ROOT
ATOM      1  N   UNL     1      50.000   7.348  17.169  0.00  0.00    +0.000 N 
ATOM      2  C   UNL     1      49.314   7.414  15.949  0.00  0.00    +0.000 A 
ATOM      3  C   UNL     1      49.034   8.681  15.442  0.00  0.00    +0.000 A 
ATOM      4  C   UNL     1      48.360   8.809  14.230  0.00  0.00    +0.000 A 
ATOM      5  C   UNL     1      48.006   7.665  13.520  0.00  0.00    +0.000 A 
ATOM      6  C   UNL     1      48.367   6.444  14.078  0.00  0.00    +0.000 A 
ATOM      7  N   UNL     1      48.995   6.296  15.271  0.00  0.00    +0.000 NA
ATOM      8  H   UNL     1      50.977   7.548  16.965  0.00  0.00    +0.000 HD
ENDROOT
BRANCH   1  12
ATOM      9  C   UNL     1      48.660   7.343  20.450  0.00  0.00    +0.000 C 
ATOM     10  C   UNL     1      47.822   7.094  19.192  0.00  0.00    +0.000 C 
ATOM     11  C   UNL     1      48.372   5.919  18.379  0.00  0.00    +0.000 C 
ATOM     12  C   UNL     1      49.842   6.136  17.980  0.00  0.00    +0.000 C 
ATOM     13  C   UNL     1      50.670   6.312  19.271  0.00  0.00    +0.000 C 
ATOM     14  C   UNL     1      50.158   7.464  20.143  0.00  0.00    +0.000 C 
BRANCH   9  15
ATOM     15  N   UNL     1      48.199   8.553  21.135  0.00  0.00    +0.000 NA
ATOM     16  H   UNL     1      47.787   8.300  22.033  0.00  0.00    +0.000 HD
ATOM     17  H   UNL     1      47.441   8.975  20.598  0.00  0.00    +0.000 HD
ENDBRANCH   9  15
ENDBRANCH   1  12
BRANCH   5  18
ATOM     18  C   UNL     1      47.321   7.744  12.189  0.00  0.00    +0.000 C 
BRANCH  18  19
ATOM     19  N   UNL     1      46.673   6.498  11.864  0.00  0.00    +0.000 N 
ATOM     20  C   UNL     1      45.311   6.413  11.731  0.00  0.00    +0.000 C 
ATOM     21  O   UNL     1      44.587   7.400  11.840  0.00  0.00    +0.000 OA
ATOM     22  H   UNL     1      47.214   5.646  11.978  0.00  0.00    +0.000 HD
BRANCH  20  23
ATOM     23  C   UNL     1      44.764   5.094  11.386  0.00  0.00    +0.000 A 
ATOM     24  C   UNL     1      43.982   4.413  12.309  0.00  0.00    +0.000 A 
ATOM     25  S   UNL     1      43.389   2.920  11.737  0.00  0.00    +0.000 S 
ATOM     26  C   UNL     1      44.199   3.106  10.248  0.00  0.00    +0.000 A 
ATOM     27  N   UNL     1      44.130   2.145   9.294  0.00  0.00    +0.000 NA
ATOM     28  C   UNL     1      44.819   2.400   8.229  0.00  0.00    +0.000 A 
ATOM     29  N   UNL     1      45.564   3.530   8.036  0.00  0.00    +0.000 N 
ATOM     30  C   UNL     1      45.635   4.546   8.964  0.00  0.00    +0.000 A 
ATOM     31  O   UNL     1      46.270   5.573   8.740  0.00  0.00    +0.000 OA
ATOM     32  C   UNL     1      44.894   4.300  10.185  0.00  0.00    +0.000 A 
ATOM     33  H   UNL     1      46.075   3.675   7.177  0.00  0.00    +0.000 HD
ENDBRANCH  20  23
ENDBRANCH  18  19
ENDBRANCH   5  18
TORSDOF 5
ENDMDL
MODEL 5
REMARK VINA RESULT:    -6.145      4.208      9.581
REMARK INTER + INTRA:          -8.850
REMARK INTER:                  -8.004
REMARK INTRA:                  -0.846
REMARK UNBOUND:                -1.089
REMARK  Name = 
REMARK  5 active torsions:
REMARK  status: ('A' for Active; 'I' for Inactive)
REMARK    1  A    between atoms: N_1  and  C_2
REMARK    2  A    between atoms: C_5  and  N_6
REMARK    3  A    between atoms: C_10  and  C_11
REMARK    4  A    between atoms: C_11  and  N_12
REMARK    5  A    between atoms: C_13  and  C_15
REMARK                            x       y       z     vdW  Elec       q    Type
REMARK                         _______ _______ _______ _____ _____    ______ ____
ROOT
ATOM      1  N   UNL     1      50.975   6.632  16.654  0.00  0.00    +0.000 N 
ATOM      2  C   UNL     1      50.081   6.859  15.599  0.00  0.00    +0.000 A 
ATOM      3  C   UNL     1      50.423   7.844  14.675  0.00  0.00    +0.000 A 
ATOM      4  C   UNL     1      49.577   8.111  13.601  0.00  0.00    +0.000 A 
ATOM      5  C   UNL     1      48.414   7.361  13.444  0.00  0.00    +0.000 A 
ATOM      6  C   UNL     1      48.177   6.367  14.386  0.00  0.00    +0.000 A 
ATOM      7  N   UNL     1      48.972   6.112  15.457  0.00  0.00    +0.000 NA
ATOM      8  H   UNL     1      51.746   6.089  16.272  0.00  0.00    +0.000 HD
ENDROOT
BRANCH   1  12
ATOM      9  C   UNL     1      53.009   5.238  19.201  0.00  0.00    +0.000 C 
ATOM     10  C   UNL     1      52.518   6.690  19.207  0.00  0.00    +0.000 C 
ATOM     11  C   UNL     1      50.991   6.762  19.132  0.00  0.00    +0.000 C 
ATOM     12  C   UNL     1      50.443   6.042  17.888  0.00  0.00    +0.000 C 
ATOM     13  C   UNL     1      50.894   4.567  17.947  0.00  0.00    +0.000 C 
ATOM     14  C   UNL     1      52.418   4.424  18.043  0.00  0.00    +0.000 C 
BRANCH   9  15
ATOM     15  N   UNL     1      54.472   5.199  19.133  0.00  0.00    +0.000 NA
ATOM     16  H   UNL     1      54.863   5.614  19.979  0.00  0.00    +0.000 HD
ATOM     17  H   UNL     1      54.789   5.793  18.367  0.00  0.00    +0.000 HD
ENDBRANCH   9  15
ENDBRANCH   1  12
BRANCH   5  18
ATOM     18  C   UNL     1      47.492   7.572  12.282  0.00  0.00    +0.000 C 
BRANCH  18  19
ATOM     19  N   UNL     1      46.799   6.354  11.941  0.00  0.00    +0.000 N 
ATOM     20  C   UNL     1      45.436   6.321  11.802  0.00  0.00    +0.000 C 
ATOM     21  O   UNL     1      44.748   7.332  11.920  0.00  0.00    +0.000 OA
ATOM     22  H   UNL     1      47.308   5.482  12.047  0.00  0.00    +0.000 HD
BRANCH  20  23
ATOM     23  C   UNL     1      44.841   5.026  11.441  0.00  0.00    +0.000 A 
ATOM     24  C   UNL     1      44.058   4.350  12.366  0.00  0.00    +0.000 A 
ATOM     25  S   UNL     1      43.409   2.888  11.774  0.00  0.00    +0.000 S 
ATOM     26  C   UNL     1      44.193   3.082  10.273  0.00  0.00    +0.000 A 
ATOM     27  N   UNL     1      44.076   2.144   9.301  0.00  0.00    +0.000 NA
ATOM     28  C   UNL     1      44.751   2.402   8.227  0.00  0.00    +0.000 A 
ATOM     29  N   UNL     1      45.525   3.512   8.043  0.00  0.00    +0.000 N 
ATOM     30  C   UNL     1      45.647   4.505   8.991  0.00  0.00    +0.000 A 
ATOM     31  O   UNL     1      46.307   5.517   8.775  0.00  0.00    +0.000 OA
ATOM     32  C   UNL     1      44.923   4.256  10.222  0.00  0.00    +0.000 A 
ATOM     33  H   UNL     1      46.023   3.660   7.177  0.00  0.00    +0.000 HD
ENDBRANCH  20  23
ENDBRANCH  18  19
ENDBRANCH   5  18
TORSDOF 5
ENDMDL
MODEL 6
REMARK VINA RESULT:    -6.033      3.700      4.319
REMARK INTER + INTRA:          -8.708
REMARK INTER:                  -7.861
REMARK INTRA:                  -0.848
REMARK UNBOUND:                -1.089
REMARK  Name = 
REMARK  5 active torsions:
REMARK  status: ('A' for Active; 'I' for Inactive)
REMARK    1  A    between atoms: N_1  and  C_2
REMARK    2  A    between atoms: C_5  and  N_6
REMARK    3  A    between atoms: C_10  and  C_11
REMARK    4  A    between atoms: C_11  and  N_12
REMARK    5  A    between atoms: C_13  and  C_15
REMARK                            x       y       z     vdW  Elec       q    Type
REMARK                         _______ _______ _______ _____ _____    ______ ____
ROOT
ATOM      1  N   UNL     1      46.001   5.365  11.332  0.00  0.00    +0.000 N 
ATOM      2  C   UNL     1      46.525   6.298  12.237  0.00  0.00    +0.000 A 
ATOM      3  C   UNL     1      47.485   5.842  13.136  0.00  0.00    +0.000 A 
ATOM      4  C   UNL     1      48.048   6.725  14.056  0.00  0.00    +0.000 A 
ATOM      5  C   UNL     1      47.668   8.064  14.039  0.00  0.00    +0.000 A 
ATOM      6  C   UNL     1      46.739   8.440  13.075  0.00  0.00    +0.000 A 
ATOM      7  N   UNL     1      46.156   7.590  12.192  0.00  0.00    +0.000 NA
ATOM      8  H   UNL     1      46.703   5.234  10.607  0.00  0.00    +0.000 HD
ENDROOT
BRANCH   1  12
ATOM      9  C   UNL     1      43.266   3.129  11.628  0.00  0.00    +0.000 C 
ATOM     10  C   UNL     1      43.525   4.284  12.600  0.00  0.00    +0.000 C 
ATOM     11  C   UNL     1      43.591   5.626  11.866  0.00  0.00    +0.000 C 
ATOM     12  C   UNL     1      44.671   5.628  10.770  0.00  0.00    +0.000 C 
ATOM     13  C   UNL     1      44.342   4.500   9.769  0.00  0.00    +0.000 C 
ATOM     14  C   UNL     1      44.243   3.127  10.445  0.00  0.00    +0.000 C 
BRANCH   9  15
ATOM     15  N   UNL     1      43.345   1.846  12.332  0.00  0.00    +0.000 NA
ATOM     16  H   UNL     1      43.150   1.087  11.680  0.00  0.00    +0.000 HD
ATOM     17  H   UNL     1      42.604   1.801  13.032  0.00  0.00    +0.000 HD
ENDBRANCH   9  15
ENDBRANCH   1  12
BRANCH   5  18
ATOM     18  C   UNL     1      48.274   9.067  14.973  0.00  0.00    +0.000 C 
BRANCH  18  19
ATOM     19  N   UNL     1      48.253   8.589  16.333  0.00  0.00    +0.000 N 
ATOM     20  C   UNL     1      49.372   8.635  17.125  0.00  0.00    +0.000 C 
ATOM     21  O   UNL     1      50.427   9.123  16.727  0.00  0.00    +0.000 OA
ATOM     22  H   UNL     1      47.475   7.999  16.609  0.00  0.00    +0.000 HD
BRANCH  20  23
ATOM     23  C   UNL     1      49.229   8.130  18.497  0.00  0.00    +0.000 A 
ATOM     24  C   UNL     1      49.290   9.016  19.564  0.00  0.00    +0.000 A 
ATOM     25  S   UNL     1      49.061   8.276  21.083  0.00  0.00    +0.000 S 
ATOM     26  C   UNL     1      48.920   6.733  20.372  0.00  0.00    +0.000 A 
ATOM     27  N   UNL     1      48.738   5.629  21.139  0.00  0.00    +0.000 NA
ATOM     28  C   UNL     1      48.682   4.521  20.472  0.00  0.00    +0.000 A 
ATOM     29  N   UNL     1      48.789   4.425  19.113  0.00  0.00    +0.000 N 
ATOM     30  C   UNL     1      48.941   5.522  18.295  0.00  0.00    +0.000 A 
ATOM     31  O   UNL     1      48.980   5.408  17.073  0.00  0.00    +0.000 OA
ATOM     32  C   UNL     1      49.027   6.789  18.995  0.00  0.00    +0.000 A 
ATOM     33  H   UNL     1      48.729   3.529  18.650  0.00  0.00    +0.000 HD
ENDBRANCH  20  23
ENDBRANCH  18  19
ENDBRANCH   5  18
TORSDOF 5
ENDMDL
MODEL 7
REMARK VINA RESULT:    -5.999      1.918      2.373
REMARK INTER + INTRA:          -8.666
REMARK INTER:                  -7.802
REMARK INTRA:                  -0.863
REMARK UNBOUND:                -1.089
REMARK  Name = 
REMARK  5 active torsions:
REMARK  status: ('A' for Active; 'I' for Inactive)
REMARK    1  A    between atoms: N_1  and  C_2
REMARK    2  A    between atoms: C_5  and  N_6
REMARK    3  A    between atoms: C_10  and  C_11
REMARK    4  A    between atoms: C_11  and  N_12
REMARK    5  A    between atoms: C_13  and  C_15
REMARK                            x       y       z     vdW  Elec       q    Type
REMARK                         _______ _______ _______ _____ _____    ______ ____
ROOT
ATOM      1  N   UNL     1      46.000   5.316  12.659  0.00  0.00    +0.000 N 
ATOM      2  C   UNL     1      47.127   6.054  13.046  0.00  0.00    +0.000 A 
ATOM      3  C   UNL     1      47.579   5.887  14.353  0.00  0.00    +0.000 A 
ATOM      4  C   UNL     1      48.699   6.589  14.793  0.00  0.00    +0.000 A 
ATOM      5  C   UNL     1      49.376   7.422  13.907  0.00  0.00    +0.000 A 
ATOM      6  C   UNL     1      48.882   7.491  12.609  0.00  0.00    +0.000 A 
ATOM      7  N   UNL     1      47.775   6.840  12.169  0.00  0.00    +0.000 NA
ATOM      8  H   UNL     1      46.317   4.364  12.491  0.00  0.00    +0.000 HD
ENDROOT
BRANCH   1  12
ATOM      9  C   UNL     1      43.344   3.510  11.157  0.00  0.00    +0.000 C 
ATOM     10  C   UNL     1      43.148   4.515  12.297  0.00  0.00    +0.000 C 
ATOM     11  C   UNL     1      43.701   5.894  11.925  0.00  0.00    +0.000 C 
ATOM     12  C   UNL     1      45.191   5.832  11.549  0.00  0.00    +0.000 C 
ATOM     13  C   UNL     1      45.346   4.868  10.354  0.00  0.00    +0.000 C 
ATOM     14  C   UNL     1      44.793   3.469  10.654  0.00  0.00    +0.000 C 
BRANCH   9  15
ATOM     15  N   UNL     1      42.935   2.171  11.587  0.00  0.00    +0.000 NA
ATOM     16  H   UNL     1      41.920   2.137  11.678  0.00  0.00    +0.000 HD
ATOM     17  H   UNL     1      43.297   1.994  12.525  0.00  0.00    +0.000 HD
ENDBRANCH   9  15
ENDBRANCH   1  12
BRANCH   5  18
ATOM     18  C   UNL     1      50.614   8.164  14.312  0.00  0.00    +0.000 C 
BRANCH  18  19
ATOM     19  N   UNL     1      51.532   7.299  15.010  0.00  0.00    +0.000 N 
ATOM     20  C   UNL     1      51.906   7.549  16.305  0.00  0.00    +0.000 C 
ATOM     21  O   UNL     1      51.446   8.493  16.942  0.00  0.00    +0.000 OA
ATOM     22  H   UNL     1      52.080   6.652  14.452  0.00  0.00    +0.000 HD
BRANCH  20  23
ATOM     23  C   UNL     1      52.839   6.592  16.918  0.00  0.00    +0.000 A 
ATOM     24  C   UNL     1      54.174   6.939  17.072  0.00  0.00    +0.000 A 
ATOM     25  S   UNL     1      55.109   5.737  17.839  0.00  0.00    +0.000 S 
ATOM     26  C   UNL     1      53.771   4.687  17.949  0.00  0.00    +0.000 A 
ATOM     27  N   UNL     1      53.901   3.449  18.489  0.00  0.00    +0.000 NA
ATOM     28  C   UNL     1      52.815   2.746  18.477  0.00  0.00    +0.000 A 
ATOM     29  N   UNL     1      51.616   3.173  17.977  0.00  0.00    +0.000 N 
ATOM     30  C   UNL     1      51.432   4.433  17.451  0.00  0.00    +0.000 A 
ATOM     31  O   UNL     1      50.330   4.807  17.059  0.00  0.00    +0.000 OA
ATOM     32  C   UNL     1      52.625   5.256  17.424  0.00  0.00    +0.000 A 
ATOM     33  H   UNL     1      50.801   2.578  18.004  0.00  0.00    +0.000 HD
ENDBRANCH  20  23
ENDBRANCH  18  19
ENDBRANCH   5  18
TORSDOF 5
ENDMDL
MODEL 8
REMARK VINA RESULT:    -5.968      2.721      3.698
REMARK INTER + INTRA:          -8.627
REMARK INTER:                  -7.467
REMARK INTRA:                  -1.160
REMARK UNBOUND:                -1.089
REMARK  Name = 
REMARK  5 active torsions:
REMARK  status: ('A' for Active; 'I' for Inactive)
REMARK    1  A    between atoms: N_1  and  C_2
REMARK    2  A    between atoms: C_5  and  N_6
REMARK    3  A    between atoms: C_10  and  C_11
REMARK    4  A    between atoms: C_11  and  N_12
REMARK    5  A    between atoms: C_13  and  C_15
REMARK                            x       y       z     vdW  Elec       q    Type
REMARK                         _______ _______ _______ _____ _____    ______ ____
ROOT
ATOM      1  N   UNL     1      45.590   6.374  11.380  0.00  0.00    +0.000 N 
ATOM      2  C   UNL     1      46.550   7.130  12.066  0.00  0.00    +0.000 A 
ATOM      3  C   UNL     1      47.848   7.121  11.561  0.00  0.00    +0.000 A 
ATOM      4  C   UNL     1      48.844   7.859  12.196  0.00  0.00    +0.000 A 
ATOM      5  C   UNL     1      48.519   8.629  13.311  0.00  0.00    +0.000 A 
ATOM      6  C   UNL     1      47.189   8.615  13.717  0.00  0.00    +0.000 A 
ATOM      7  N   UNL     1      46.211   7.879  13.131  0.00  0.00    +0.000 NA
ATOM      8  H   UNL     1      45.335   6.907  10.552  0.00  0.00    +0.000 HD
ENDROOT
BRANCH   1  12
ATOM      9  C   UNL     1      44.094   3.190  10.946  0.00  0.00    +0.000 C 
ATOM     10  C   UNL     1      45.153   3.490  12.011  0.00  0.00    +0.000 C 
ATOM     11  C   UNL     1      44.716   4.639  12.924  0.00  0.00    +0.000 C 
ATOM     12  C   UNL     1      44.412   5.920  12.129  0.00  0.00    +0.000 C 
ATOM     13  C   UNL     1      43.293   5.603  11.115  0.00  0.00    +0.000 C 
ATOM     14  C   UNL     1      43.661   4.446  10.178  0.00  0.00    +0.000 C 
BRANCH   9  15
ATOM     15  N   UNL     1      44.594   2.186  10.003  0.00  0.00    +0.000 NA
ATOM     16  H   UNL     1      44.673   2.600   9.074  0.00  0.00    +0.000 HD
ATOM     17  H   UNL     1      43.903   1.440   9.909  0.00  0.00    +0.000 HD
ENDBRANCH   9  15
ENDBRANCH   1  12
BRANCH   5  18
ATOM     18  C   UNL     1      49.540   9.479  14.005  0.00  0.00    +0.000 C 
BRANCH  18  19
ATOM     19  N   UNL     1      50.198   8.744  15.057  0.00  0.00    +0.000 N 
ATOM     20  C   UNL     1      51.417   8.148  14.857  0.00  0.00    +0.000 C 
ATOM     21  O   UNL     1      52.020   8.247  13.791  0.00  0.00    +0.000 OA
ATOM     22  H   UNL     1      49.638   8.472  15.858  0.00  0.00    +0.000 HD
BRANCH  20  23
ATOM     23  C   UNL     1      51.997   7.436  16.004  0.00  0.00    +0.000 A 
ATOM     24  C   UNL     1      53.275   7.761  16.438  0.00  0.00    +0.000 A 
ATOM     25  S   UNL     1      53.780   6.876  17.805  0.00  0.00    +0.000 S 
ATOM     26  C   UNL     1      52.326   5.987  17.836  0.00  0.00    +0.000 A 
ATOM     27  N   UNL     1      52.123   5.019  18.764  0.00  0.00    +0.000 NA
ATOM     28  C   UNL     1      50.990   4.402  18.651  0.00  0.00    +0.000 A 
ATOM     29  N   UNL     1      50.050   4.670  17.697  0.00  0.00    +0.000 N 
ATOM     30  C   UNL     1      50.201   5.666  16.757  0.00  0.00    +0.000 A 
ATOM     31  O   UNL     1      49.314   5.920  15.946  0.00  0.00    +0.000 OA
ATOM     32  C   UNL     1      51.462   6.377  16.829  0.00  0.00    +0.000 A 
ATOM     33  H   UNL     1      49.181   4.157  17.666  0.00  0.00    +0.000 HD
ENDBRANCH  20  23
ENDBRANCH  18  19
ENDBRANCH   5  18
TORSDOF 5
ENDMDL
MODEL 9
REMARK VINA RESULT:    -5.884      1.734      2.241
REMARK INTER + INTRA:          -8.520
REMARK INTER:                  -7.761
REMARK INTRA:                  -0.759
REMARK UNBOUND:                -1.089
REMARK  Name = 
REMARK  5 active torsions:
REMARK  status: ('A' for Active; 'I' for Inactive)
REMARK    1  A    between atoms: N_1  and  C_2
REMARK    2  A    between atoms: C_5  and  N_6
REMARK    3  A    between atoms: C_10  and  C_11
REMARK    4  A    between atoms: C_11  and  N_12
REMARK    5  A    between atoms: C_13  and  C_15
REMARK                            x       y       z     vdW  Elec       q    Type
REMARK                         _______ _______ _______ _____ _____    ______ ____
ROOT
ATOM      1  N   UNL     1      46.263   6.732  12.767  0.00  0.00    +0.000 N 
ATOM      2  C   UNL     1      47.333   6.962  13.642  0.00  0.00    +0.000 A 
ATOM      3  C   UNL     1      47.762   8.279  13.792  0.00  0.00    +0.000 A 
ATOM      4  C   UNL     1      48.817   8.569  14.654  0.00  0.00    +0.000 A 
ATOM      5  C   UNL     1      49.407   7.541  15.384  0.00  0.00    +0.000 A 
ATOM      6  C   UNL     1      48.883   6.265  15.208  0.00  0.00    +0.000 A 
ATOM      7  N   UNL     1      47.877   5.956  14.350  0.00  0.00    +0.000 NA
ATOM      8  H   UNL     1      45.417   7.015  13.258  0.00  0.00    +0.000 HD
ENDROOT
BRANCH   1  12
ATOM      9  C   UNL     1      43.187   5.352  11.671  0.00  0.00    +0.000 C 
ATOM     10  C   UNL     1      44.152   6.108  10.752  0.00  0.00    +0.000 C 
ATOM     11  C   UNL     1      45.542   5.467  10.757  0.00  0.00    +0.000 C 
ATOM     12  C   UNL     1      46.136   5.396  12.174  0.00  0.00    +0.000 C 
ATOM     13  C   UNL     1      45.177   4.569  13.056  0.00  0.00    +0.000 C 
ATOM     14  C   UNL     1      43.757   5.148  13.081  0.00  0.00    +0.000 C 
BRANCH   9  15
ATOM     15  N   UNL     1      41.908   6.062  11.757  0.00  0.00    +0.000 NA
ATOM     16  H   UNL     1      42.015   7.003  11.378  0.00  0.00    +0.000 HD
ATOM     17  H   UNL     1      41.661   6.191  12.738  0.00  0.00    +0.000 HD
ENDBRANCH   9  15
ENDBRANCH   1  12
BRANCH   5  18
ATOM     18  C   UNL     1      50.514   7.803  16.361  0.00  0.00    +0.000 C 
BRANCH  18  19
ATOM     19  N   UNL     1      51.235   6.591  16.663  0.00  0.00    +0.000 N 
ATOM     20  C   UNL     1      51.526   6.236  17.955  0.00  0.00    +0.000 C 
ATOM     21  O   UNL     1      51.151   6.909  18.912  0.00  0.00    +0.000 OA
ATOM     22  H   UNL     1      51.732   6.140  15.901  0.00  0.00    +0.000 HD
BRANCH  20  23
ATOM     23  C   UNL     1      52.256   4.974  18.143  0.00  0.00    +0.000 A 
ATOM     24  C   UNL     1      53.556   5.000  18.630  0.00  0.00    +0.000 A 
ATOM     25  S   UNL     1      54.242   3.452  18.831  0.00  0.00    +0.000 S 
ATOM     26  C   UNL     1      52.841   2.691  18.227  0.00  0.00    +0.000 A 
ATOM     27  N   UNL     1      52.781   1.342  18.104  0.00  0.00    +0.000 NA
ATOM     28  C   UNL     1      51.673   0.901  17.599  0.00  0.00    +0.000 A 
ATOM     29  N   UNL     1      50.626   1.690  17.213  0.00  0.00    +0.000 N 
ATOM     30  C   UNL     1      50.632   3.061  17.351  0.00  0.00    +0.000 A 
ATOM     31  O   UNL     1      49.655   3.738  17.045  0.00  0.00    +0.000 OA
ATOM     32  C   UNL     1      51.860   3.607  17.896  0.00  0.00    +0.000 A 
ATOM     33  H   UNL     1      49.783   1.285  16.833  0.00  0.00    +0.000 HD
ENDBRANCH  20  23
ENDBRANCH  18  19
ENDBRANCH   5  18
TORSDOF 5
ENDMDL
