MODEL 1
REMARK VINA RESULT:    -8.150      0.000      0.000
REMARK INTER + INTRA:         -12.442
REMARK INTER:                 -11.486
REMARK INTRA:                  -0.956
REMARK UNBOUND:                -0.956
REMARK  Name = 
REMARK  7 active torsions:
REMARK  status: ('A' for Active; 'I' for Inactive)
REMARK    1  A    between atoms: C_2  and  C_20
REMARK    2  A    between atoms: N_3  and  C_4
REMARK    3  A    between atoms: C_4  and  C_5
REMARK    4  A    between atoms: C_8  and  C_9
REMARK    5  A    between atoms: C_9  and  N_10
REMARK    6  A    between atoms: N_10  and  C_11
REMARK    7  A    between atoms: C_11  and  C_12
REMARK                            x       y       z     vdW  Elec       q    Type
REMARK                         _______ _______ _______ _____ _____    ______ ____
ROOT
ATOM      1  C   UNL     1      47.995   6.987  13.661  0.00  0.00    +0.000 C 
ENDROOT
BRANCH   1   2
ATOM      2  C   UNL     1      46.646   6.468  13.121  0.00  0.00    +0.000 C 
ATOM      3  C   UNL     1      46.379   4.988  13.464  0.00  0.00    +0.000 C 
ATOM      4  C   UNL     1      45.059   4.486  12.873  0.00  0.00    +0.000 C 
ATOM      5  C   UNL     1      45.006   4.671  11.350  0.00  0.00    +0.000 C 
ATOM      6  C   UNL     1      45.287   6.142  10.992  0.00  0.00    +0.000 C 
ATOM      7  C   UNL     1      46.593   6.653  11.598  0.00  0.00    +0.000 C 
BRANCH   5   8
ATOM      8  C   UNL     1      43.648   4.191  10.790  0.00  0.00    +0.000 C 
BRANCH   8   9
ATOM      9  N   UNL     1      43.824   3.603   9.467  0.00  0.00    +0.000 NA
ATOM     10  H   UNL     1      44.314   4.245   8.842  0.00  0.00    +0.000 HD
BRANCH   9  11
ATOM     11  C   UNL     1      44.590   2.347   9.504  0.00  0.00    +0.000 C 
BRANCH  11  12
ATOM     12  C   UNL     1      45.670   2.290   8.431  0.00  0.00    +0.000 A 
ATOM     13  N   UNL     1      46.293   1.104   8.236  0.00  0.00    +0.000 NA
ATOM     14  C   UNL     1      47.222   1.071   7.263  0.00  0.00    +0.000 A 
ATOM     15  C   UNL     1      47.544   2.155   6.482  0.00  0.00    +0.000 A 
ATOM     16  C   UNL     1      46.859   3.313   6.761  0.00  0.00    +0.000 A 
ATOM     17  N   UNL     1      45.920   3.410   7.720  0.00  0.00    +0.000 NA
ENDBRANCH  11  12
ENDBRANCH   9  11
ENDBRANCH   8   9
ENDBRANCH   5   8
ENDBRANCH   1   2
BRANCH   1  20
ATOM     18  O   UNL     1      48.560   8.232  16.164  0.00  0.00    +0.000 OA
ATOM     19  C   UNL     1      48.682   7.027  16.038  0.00  0.00    +0.000 C 
ATOM     20  N   UNL     1      48.388   6.322  14.884  0.00  0.00    +0.000 N 
ATOM     21  H   UNL     1      48.966   5.506  14.763  0.00  0.00    +0.000 HD
BRANCH  19  22
ATOM     22  C   UNL     1      49.431   6.180  16.959  0.00  0.00    +0.000 A 
ATOM     23  C   UNL     1      50.566   6.636  17.603  0.00  0.00    +0.000 A 
ATOM     24  S   UNL     1      51.647   5.342  17.920  0.00  0.00    +0.000 S 
ATOM     25  C   UNL     1      50.496   4.181  17.418  0.00  0.00    +0.000 A 
ATOM     26  N   UNL     1      50.804   2.869  17.286  0.00  0.00    +0.000 NA
ATOM     27  C   UNL     1      49.798   2.110  16.974  0.00  0.00    +0.000 A 
ATOM     28  N   UNL     1      48.506   2.552  16.829  0.00  0.00    +0.000 N 
ATOM     29  C   UNL     1      48.148   3.879  16.923  0.00  0.00    +0.000 A 
ATOM     30  O   UNL     1      46.980   4.238  16.829  0.00  0.00    +0.000 OA
ATOM     31  C   UNL     1      49.274   4.765  17.163  0.00  0.00    +0.000 A 
ATOM     32  H   UNL     1      47.754   1.892  16.670  0.00  0.00    +0.000 HD
ENDBRANCH  19  22
ENDBRANCH   1  20
TORSDOF 7
ENDMDL
MODEL 2
REMARK VINA RESULT:    -8.126      1.611      1.929
REMARK INTER + INTRA:         -12.408
REMARK INTER:                 -11.344
REMARK INTRA:                  -1.063
REMARK UNBOUND:                -0.956
REMARK  Name = 
REMARK  7 active torsions:
REMARK  status: ('A' for Active; 'I' for Inactive)
REMARK    1  A    between atoms: C_2  and  C_20
REMARK    2  A    between atoms: N_3  and  C_4
REMARK    3  A    between atoms: C_4  and  C_5
REMARK    4  A    between atoms: C_8  and  C_9
REMARK    5  A    between atoms: C_9  and  N_10
REMARK    6  A    between atoms: N_10  and  C_11
REMARK    7  A    between atoms: C_11  and  C_12
REMARK                            x       y       z     vdW  Elec       q    Type
REMARK                         _______ _______ _______ _____ _____    ______ ____
ROOT
ATOM      1  C   UNL     1      48.180   6.597  13.718  0.00  0.00    +0.000 C 
ENDROOT
BRANCH   1   2
ATOM      2  C   UNL     1      46.789   6.247  13.147  0.00  0.00    +0.000 C 
ATOM      3  C   UNL     1      46.381   4.779  13.389  0.00  0.00    +0.000 C 
ATOM      4  C   UNL     1      45.021   4.447  12.770  0.00  0.00    +0.000 C 
ATOM      5  C   UNL     1      44.992   4.740  11.263  0.00  0.00    +0.000 C 
ATOM      6  C   UNL     1      45.413   6.198  11.006  0.00  0.00    +0.000 C 
ATOM      7  C   UNL     1      46.760   6.540  11.640  0.00  0.00    +0.000 C 
BRANCH   5   8
ATOM      8  C   UNL     1      43.597   4.431  10.675  0.00  0.00    +0.000 C 
BRANCH   8   9
ATOM      9  N   UNL     1      43.724   3.686   9.429  0.00  0.00    +0.000 NA
ATOM     10  H   UNL     1      44.135   4.265   8.695  0.00  0.00    +0.000 HD
BRANCH   9  11
ATOM     11  C   UNL     1      44.565   2.486   9.571  0.00  0.00    +0.000 C 
BRANCH  11  12
ATOM     12  C   UNL     1      45.580   2.347   8.443  0.00  0.00    +0.000 A 
ATOM     13  N   UNL     1      45.842   3.449   7.702  0.00  0.00    +0.000 NA
ATOM     14  C   UNL     1      46.764   3.310   6.731  0.00  0.00    +0.000 A 
ATOM     15  C   UNL     1      47.432   2.136   6.480  0.00  0.00    +0.000 A 
ATOM     16  C   UNL     1      47.091   1.075   7.284  0.00  0.00    +0.000 A 
ATOM     17  N   UNL     1      46.178   1.150   8.270  0.00  0.00    +0.000 NA
ENDBRANCH  11  12
ENDBRANCH   9  11
ENDBRANCH   8   9
ENDBRANCH   5   8
ENDBRANCH   1   2
BRANCH   1  20
ATOM     18  O   UNL     1      50.340   6.651  15.580  0.00  0.00    +0.000 OA
ATOM     19  C   UNL     1      49.217   6.966  15.934  0.00  0.00    +0.000 C 
ATOM     20  N   UNL     1      48.115   7.020  15.100  0.00  0.00    +0.000 N 
ATOM     21  H   UNL     1      47.252   6.808  15.574  0.00  0.00    +0.000 HD
BRANCH  19  22
ATOM     22  C   UNL     1      48.790   7.043  17.326  0.00  0.00    +0.000 A 
ATOM     23  C   UNL     1      48.950   8.196  18.071  0.00  0.00    +0.000 A 
ATOM     24  S   UNL     1      49.155   7.823  19.733  0.00  0.00    +0.000 S 
ATOM     25  C   UNL     1      48.793   6.173  19.467  0.00  0.00    +0.000 A 
ATOM     26  N   UNL     1      48.930   5.239  20.437  0.00  0.00    +0.000 NA
ATOM     27  C   UNL     1      48.538   4.049  20.096  0.00  0.00    +0.000 A 
ATOM     28  N   UNL     1      47.980   3.733  18.882  0.00  0.00    +0.000 N 
ATOM     29  C   UNL     1      47.846   4.640  17.854  0.00  0.00    +0.000 A 
ATOM     30  O   UNL     1      47.306   4.338  16.796  0.00  0.00    +0.000 OA
ATOM     31  C   UNL     1      48.380   5.954  18.171  0.00  0.00    +0.000 A 
ATOM     32  H   UNL     1      47.614   2.802  18.713  0.00  0.00    +0.000 HD
ENDBRANCH  19  22
ENDBRANCH   1  20
TORSDOF 7
ENDMDL
MODEL 3
REMARK VINA RESULT:    -7.599      1.091      1.562
REMARK INTER + INTRA:         -11.665
REMARK INTER:                 -10.697
REMARK INTRA:                  -0.968
REMARK UNBOUND:                -0.956
REMARK  Name = 
REMARK  7 active torsions:
REMARK  status: ('A' for Active; 'I' for Inactive)
REMARK    1  A    between atoms: C_2  and  C_20
REMARK    2  A    between atoms: N_3  and  C_4
REMARK    3  A    between atoms: C_4  and  C_5
REMARK    4  A    between atoms: C_8  and  C_9
REMARK    5  A    between atoms: C_9  and  N_10
REMARK    6  A    between atoms: N_10  and  C_11
REMARK    7  A    between atoms: C_11  and  C_12
REMARK                            x       y       z     vdW  Elec       q    Type
REMARK                         _______ _______ _______ _____ _____    ______ ____
ROOT
ATOM      1  C   UNL     1      49.070   7.728  13.877  0.00  0.00    +0.000 C 
ENDROOT
BRANCH   1   2
ATOM      2  C   UNL     1      47.845   7.384  13.003  0.00  0.00    +0.000 C 
ATOM      3  C   UNL     1      46.634   8.304  13.259  0.00  0.00    +0.000 C 
ATOM      4  C   UNL     1      45.419   7.908  12.416  0.00  0.00    +0.000 C 
ATOM      5  C   UNL     1      45.007   6.449  12.655  0.00  0.00    +0.000 C 
ATOM      6  C   UNL     1      46.211   5.520  12.418  0.00  0.00    +0.000 C 
ATOM      7  C   UNL     1      47.433   5.924  13.242  0.00  0.00    +0.000 C 
BRANCH   5   8
ATOM      8  C   UNL     1      43.803   6.070  11.762  0.00  0.00    +0.000 C 
BRANCH   8   9
ATOM      9  N   UNL     1      44.259   5.684  10.432  0.00  0.00    +0.000 NA
ATOM     10  H   UNL     1      45.277   5.738  10.363  0.00  0.00    +0.000 HD
BRANCH   9  11
ATOM     11  C   UNL     1      43.861   4.313  10.073  0.00  0.00    +0.000 C 
BRANCH  11  12
ATOM     12  C   UNL     1      44.864   3.637   9.147  0.00  0.00    +0.000 A 
ATOM     13  N   UNL     1      45.013   2.297   9.262  0.00  0.00    +0.000 NA
ATOM     14  C   UNL     1      45.883   1.718   8.413  0.00  0.00    +0.000 A 
ATOM     15  C   UNL     1      46.592   2.411   7.462  0.00  0.00    +0.000 A 
ATOM     16  C   UNL     1      46.374   3.767   7.429  0.00  0.00    +0.000 A 
ATOM     17  N   UNL     1      45.519   4.405   8.250  0.00  0.00    +0.000 NA
ENDBRANCH  11  12
ENDBRANCH   9  11
ENDBRANCH   8   9
ENDBRANCH   5   8
ENDBRANCH   1   2
BRANCH   1  20
ATOM     18  O   UNL     1      48.577   8.181  16.649  0.00  0.00    +0.000 OA
ATOM     19  C   UNL     1      49.031   7.115  16.274  0.00  0.00    +0.000 C 
ATOM     20  N   UNL     1      49.260   6.779  14.952  0.00  0.00    +0.000 N 
ATOM     21  H   UNL     1      50.036   6.147  14.834  0.00  0.00    +0.000 HD
BRANCH  19  22
ATOM     22  C   UNL     1      49.682   6.149  17.151  0.00  0.00    +0.000 A 
ATOM     23  C   UNL     1      50.819   6.471  17.868  0.00  0.00    +0.000 A 
ATOM     24  S   UNL     1      51.794   5.082  18.120  0.00  0.00    +0.000 S 
ATOM     25  C   UNL     1      50.587   4.049  17.489  0.00  0.00    +0.000 A 
ATOM     26  N   UNL     1      50.808   2.732  17.265  0.00  0.00    +0.000 NA
ATOM     27  C   UNL     1      49.765   2.074  16.859  0.00  0.00    +0.000 A 
ATOM     28  N   UNL     1      48.514   2.618  16.704  0.00  0.00    +0.000 N 
ATOM     29  C   UNL     1      48.245   3.956  16.890  0.00  0.00    +0.000 A 
ATOM     30  O   UNL     1      47.109   4.405  16.784  0.00  0.00    +0.000 OA
ATOM     31  C   UNL     1      49.419   4.738  17.238  0.00  0.00    +0.000 A 
ATOM     32  H   UNL     1      47.725   2.027  16.468  0.00  0.00    +0.000 HD
ENDBRANCH  19  22
ENDBRANCH   1  20
TORSDOF 7
ENDMDL
MODEL 4
REMARK VINA RESULT:    -7.553      2.095      3.131
REMARK INTER + INTRA:         -11.599
REMARK INTER:                 -10.657
REMARK INTRA:                  -0.942
REMARK UNBOUND:                -0.956
REMARK  Name = 
REMARK  7 active torsions:
REMARK  status: ('A' for Active; 'I' for Inactive)
REMARK    1  A    between atoms: C_2  and  C_20
REMARK    2  A    between atoms: N_3  and  C_4
REMARK    3  A    between atoms: C_4  and  C_5
REMARK    4  A    between atoms: C_8  and  C_9
REMARK    5  A    between atoms: C_9  and  N_10
REMARK    6  A    between atoms: N_10  and  C_11
REMARK    7  A    between atoms: C_11  and  C_12
REMARK                            x       y       z     vdW  Elec       q    Type
REMARK                         _______ _______ _______ _____ _____    ______ ____
ROOT
ATOM      1  C   UNL     1      47.722   7.331  13.354  0.00  0.00    +0.000 C 
ENDROOT
BRANCH   1   2
ATOM      2  C   UNL     1      46.420   6.642  12.893  0.00  0.00    +0.000 C 
ATOM      3  C   UNL     1      46.202   5.257  13.537  0.00  0.00    +0.000 C 
ATOM      4  C   UNL     1      44.931   4.575  13.024  0.00  0.00    +0.000 C 
ATOM      5  C   UNL     1      44.935   4.430  11.496  0.00  0.00    +0.000 C 
ATOM      6  C   UNL     1      45.168   5.804  10.841  0.00  0.00    +0.000 C 
ATOM      7  C   UNL     1      46.424   6.497  11.365  0.00  0.00    +0.000 C 
BRANCH   5   8
ATOM      8  C   UNL     1      43.623   3.775  11.008  0.00  0.00    +0.000 C 
BRANCH   8   9
ATOM      9  N   UNL     1      43.769   3.309   9.634  0.00  0.00    +0.000 NA
ATOM     10  H   UNL     1      44.211   4.021   9.050  0.00  0.00    +0.000 HD
BRANCH   9  11
ATOM     11  C   UNL     1      44.580   2.085   9.535  0.00  0.00    +0.000 C 
BRANCH  11  12
ATOM     12  C   UNL     1      45.651   2.180   8.454  0.00  0.00    +0.000 A 
ATOM     13  N   UNL     1      45.843   3.387   7.873  0.00  0.00    +0.000 NA
ATOM     14  C   UNL     1      46.814   3.453   6.942  0.00  0.00    +0.000 A 
ATOM     15  C   UNL     1      47.594   2.382   6.581  0.00  0.00    +0.000 A 
ATOM     16  C   UNL     1      47.317   1.200   7.226  0.00  0.00    +0.000 A 
ATOM     17  N   UNL     1      46.361   1.070   8.163  0.00  0.00    +0.000 NA
ENDBRANCH  11  12
ENDBRANCH   9  11
ENDBRANCH   8   9
ENDBRANCH   5   8
ENDBRANCH   1   2
BRANCH   1  20
ATOM     18  O   UNL     1      50.200   6.961  14.716  0.00  0.00    +0.000 OA
ATOM     19  C   UNL     1      49.158   7.019  15.344  0.00  0.00    +0.000 C 
ATOM     20  N   UNL     1      47.913   7.244  14.785  0.00  0.00    +0.000 N 
ATOM     21  H   UNL     1      47.167   6.795  15.291  0.00  0.00    +0.000 HD
BRANCH  19  22
ATOM     22  C   UNL     1      49.008   6.568  16.723  0.00  0.00    +0.000 A 
ATOM     23  C   UNL     1      48.785   5.238  17.031  0.00  0.00    +0.000 A 
ATOM     24  S   UNL     1      47.876   5.094  18.478  0.00  0.00    +0.000 S 
ATOM     25  C   UNL     1      48.000   6.770  18.793  0.00  0.00    +0.000 A 
ATOM     26  N   UNL     1      47.321   7.368  19.800  0.00  0.00    +0.000 NA
ATOM     27  C   UNL     1      47.587   8.629  19.952  0.00  0.00    +0.000 A 
ATOM     28  N   UNL     1      48.510   9.324  19.209  0.00  0.00    +0.000 N 
ATOM     29  C   UNL     1      49.203   8.769  18.157  0.00  0.00    +0.000 A 
ATOM     30  O   UNL     1      50.051   9.404  17.538  0.00  0.00    +0.000 OA
ATOM     31  C   UNL     1      48.843   7.387  17.893  0.00  0.00    +0.000 A 
ATOM     32  H   UNL     1      48.732  10.286  19.440  0.00  0.00    +0.000 HD
ENDBRANCH  19  22
ENDBRANCH   1  20
TORSDOF 7
ENDMDL
MODEL 5
REMARK VINA RESULT:    -7.484      1.774      2.221
REMARK INTER + INTRA:         -11.502
REMARK INTER:                 -10.334
REMARK INTRA:                  -1.168
REMARK UNBOUND:                -0.956
REMARK  Name = 
REMARK  7 active torsions:
REMARK  status: ('A' for Active; 'I' for Inactive)
REMARK    1  A    between atoms: C_2  and  C_20
REMARK    2  A    between atoms: N_3  and  C_4
REMARK    3  A    between atoms: C_4  and  C_5
REMARK    4  A    between atoms: C_8  and  C_9
REMARK    5  A    between atoms: C_9  and  N_10
REMARK    6  A    between atoms: N_10  and  C_11
REMARK    7  A    between atoms: C_11  and  C_12
REMARK                            x       y       z     vdW  Elec       q    Type
REMARK                         _______ _______ _______ _____ _____    ______ ____
ROOT
ATOM      1  C   UNL     1      48.989   8.928  13.847  0.00  0.00    +0.000 C 
ENDROOT
BRANCH   1   2
ATOM      2  C   UNL     1      47.872   8.490  12.876  0.00  0.00    +0.000 C 
ATOM      3  C   UNL     1      46.472   8.474  13.523  0.00  0.00    +0.000 C 
ATOM      4  C   UNL     1      45.392   7.989  12.552  0.00  0.00    +0.000 C 
ATOM      5  C   UNL     1      45.709   6.594  11.994  0.00  0.00    +0.000 C 
ATOM      6  C   UNL     1      47.111   6.592  11.359  0.00  0.00    +0.000 C 
ATOM      7  C   UNL     1      48.189   7.096  12.317  0.00  0.00    +0.000 C 
BRANCH   5   8
ATOM      8  C   UNL     1      44.621   6.150  10.989  0.00  0.00    +0.000 C 
BRANCH   8   9
ATOM      9  N   UNL     1      45.235   5.574   9.799  0.00  0.00    +0.000 NA
ATOM     10  H   UNL     1      46.213   5.334   9.969  0.00  0.00    +0.000 HD
BRANCH   9  11
ATOM     11  C   UNL     1      44.550   4.353   9.344  0.00  0.00    +0.000 C 
BRANCH  11  12
ATOM     12  C   UNL     1      45.450   3.457   8.503  0.00  0.00    +0.000 A 
ATOM     13  N   UNL     1      46.155   4.042   7.506  0.00  0.00    +0.000 NA
ATOM     14  C   UNL     1      46.966   3.235   6.796  0.00  0.00    +0.000 A 
ATOM     15  C   UNL     1      47.107   1.891   7.043  0.00  0.00    +0.000 A 
ATOM     16  C   UNL     1      46.345   1.393   8.072  0.00  0.00    +0.000 A 
ATOM     17  N   UNL     1      45.516   2.146   8.818  0.00  0.00    +0.000 NA
ENDBRANCH  11  12
ENDBRANCH   9  11
ENDBRANCH   8   9
ENDBRANCH   5   8
ENDBRANCH   1   2
BRANCH   1  20
ATOM     18  O   UNL     1      50.400   6.788  15.097  0.00  0.00    +0.000 OA
ATOM     19  C   UNL     1      49.491   7.348  15.684  0.00  0.00    +0.000 C 
ATOM     20  N   UNL     1      48.779   8.424  15.187  0.00  0.00    +0.000 N 
ATOM     21  H   UNL     1      47.825   8.449  15.510  0.00  0.00    +0.000 HD
BRANCH  19  22
ATOM     22  C   UNL     1      48.812   6.801  16.853  0.00  0.00    +0.000 A 
ATOM     23  C   UNL     1      48.873   7.425  18.085  0.00  0.00    +0.000 A 
ATOM     24  S   UNL     1      48.746   6.278  19.354  0.00  0.00    +0.000 S 
ATOM     25  C   UNL     1      48.377   5.019  18.258  0.00  0.00    +0.000 A 
ATOM     26  N   UNL     1      48.292   3.725  18.646  0.00  0.00    +0.000 NA
ATOM     27  C   UNL     1      47.926   2.905  17.709  0.00  0.00    +0.000 A 
ATOM     28  N   UNL     1      47.595   3.284  16.431  0.00  0.00    +0.000 N 
ATOM     29  C   UNL     1      47.693   4.582  15.980  0.00  0.00    +0.000 A 
ATOM     30  O   UNL     1      47.351   4.896  14.845  0.00  0.00    +0.000 OA
ATOM     31  C   UNL     1      48.207   5.503  16.978  0.00  0.00    +0.000 A 
ATOM     32  H   UNL     1      47.232   2.603  15.773  0.00  0.00    +0.000 HD
ENDBRANCH  19  22
ENDBRANCH   1  20
TORSDOF 7
ENDMDL
MODEL 6
REMARK VINA RESULT:    -7.115      2.550      3.670
REMARK INTER + INTRA:         -10.982
REMARK INTER:                 -10.210
REMARK INTRA:                  -0.772
REMARK UNBOUND:                -0.956
REMARK  Name = 
REMARK  7 active torsions:
REMARK  status: ('A' for Active; 'I' for Inactive)
REMARK    1  A    between atoms: C_2  and  C_20
REMARK    2  A    between atoms: N_3  and  C_4
REMARK    3  A    between atoms: C_4  and  C_5
REMARK    4  A    between atoms: C_8  and  C_9
REMARK    5  A    between atoms: C_9  and  N_10
REMARK    6  A    between atoms: N_10  and  C_11
REMARK    7  A    between atoms: C_11  and  C_12
REMARK                            x       y       z     vdW  Elec       q    Type
REMARK                         _______ _______ _______ _____ _____    ______ ____
ROOT
ATOM      1  C   UNL     1      47.447   4.130  15.578  0.00  0.00    +0.000 C 
ENDROOT
BRANCH   1   2
ATOM      2  C   UNL     1      46.528   4.629  14.442  0.00  0.00    +0.000 C 
ATOM      3  C   UNL     1      46.266   3.566  13.356  0.00  0.00    +0.000 C 
ATOM      4  C   UNL     1      45.394   4.104  12.218  0.00  0.00    +0.000 C 
ATOM      5  C   UNL     1      46.007   5.352  11.569  0.00  0.00    +0.000 C 
ATOM      6  C   UNL     1      46.289   6.416  12.644  0.00  0.00    +0.000 C 
ATOM      7  C   UNL     1      47.141   5.878  13.792  0.00  0.00    +0.000 C 
BRANCH   5   8
ATOM      8  C   UNL     1      45.086   5.892  10.451  0.00  0.00    +0.000 C 
BRANCH   8   9
ATOM      9  N   UNL     1      45.549   5.435   9.147  0.00  0.00    +0.000 NA
ATOM     10  H   UNL     1      46.555   5.258   9.155  0.00  0.00    +0.000 HD
BRANCH   9  11
ATOM     11  C   UNL     1      44.883   4.196   8.713  0.00  0.00    +0.000 C 
BRANCH  11  12
ATOM     12  C   UNL     1      45.859   3.185   8.123  0.00  0.00    +0.000 A 
ATOM     13  N   UNL     1      45.653   1.879   8.414  0.00  0.00    +0.000 NA
ATOM     14  C   UNL     1      46.510   1.002   7.858  0.00  0.00    +0.000 A 
ATOM     15  C   UNL     1      47.542   1.369   7.029  0.00  0.00    +0.000 A 
ATOM     16  C   UNL     1      47.669   2.718   6.800  0.00  0.00    +0.000 A 
ATOM     17  N   UNL     1      46.846   3.644   7.326  0.00  0.00    +0.000 NA
ENDBRANCH  11  12
ENDBRANCH   9  11
ENDBRANCH   8   9
ENDBRANCH   5   8
ENDBRANCH   1   2
BRANCH   1  20
ATOM     18  O   UNL     1      49.754   5.609  16.368  0.00  0.00    +0.000 OA
ATOM     19  C   UNL     1      48.716   5.710  16.998  0.00  0.00    +0.000 C 
ATOM     20  N   UNL     1      47.532   5.075  16.670  0.00  0.00    +0.000 N 
ATOM     21  H   UNL     1      46.967   4.854  17.474  0.00  0.00    +0.000 HD
BRANCH  19  22
ATOM     22  C   UNL     1      48.627   6.260  18.345  0.00  0.00    +0.000 A 
ATOM     23  C   UNL     1      48.430   5.450  19.448  0.00  0.00    +0.000 A 
ATOM     24  S   UNL     1      47.583   6.294  20.678  0.00  0.00    +0.000 S 
ATOM     25  C   UNL     1      47.704   7.773  19.829  0.00  0.00    +0.000 A 
ATOM     26  N   UNL     1      47.062   8.893  20.234  0.00  0.00    +0.000 NA
ATOM     27  C   UNL     1      47.322   9.948  19.524  0.00  0.00    +0.000 A 
ATOM     28  N   UNL     1      48.207   9.980  18.474  0.00  0.00    +0.000 N 
ATOM     29  C   UNL     1      48.861   8.862  18.006  0.00  0.00    +0.000 A 
ATOM     30  O   UNL     1      49.676   8.930  17.092  0.00  0.00    +0.000 OA
ATOM     31  C   UNL     1      48.503   7.645  18.712  0.00  0.00    +0.000 A 
ATOM     32  H   UNL     1      48.429  10.858  18.019  0.00  0.00    +0.000 HD
ENDBRANCH  19  22
ENDBRANCH   1  20
TORSDOF 7
ENDMDL
MODEL 7
REMARK VINA RESULT:    -6.939      3.102      4.530
REMARK INTER + INTRA:         -10.734
REMARK INTER:                  -9.777
REMARK INTRA:                  -0.958
REMARK UNBOUND:                -0.956
REMARK  Name = 
REMARK  7 active torsions:
REMARK  status: ('A' for Active; 'I' for Inactive)
REMARK    1  A    between atoms: C_2  and  C_20
REMARK    2  A    between atoms: N_3  and  C_4
REMARK    3  A    between atoms: C_4  and  C_5
REMARK    4  A    between atoms: C_8  and  C_9
REMARK    5  A    between atoms: C_9  and  N_10
REMARK    6  A    between atoms: N_10  and  C_11
REMARK    7  A    between atoms: C_11  and  C_12
REMARK                            x       y       z     vdW  Elec       q    Type
REMARK                         _______ _______ _______ _____ _____    ______ ____
ROOT
ATOM      1  C   UNL     1      47.922   5.998  14.413  0.00  0.00    +0.000 C 
ENDROOT
BRANCH   1   2
ATOM      2  C   UNL     1      46.612   5.842  13.610  0.00  0.00    +0.000 C 
ATOM      3  C   UNL     1      46.193   4.372  13.406  0.00  0.00    +0.000 C 
ATOM      4  C   UNL     1      44.920   4.245  12.565  0.00  0.00    +0.000 C 
ATOM      5  C   UNL     1      45.067   4.926  11.197  0.00  0.00    +0.000 C 
ATOM      6  C   UNL     1      45.501   6.391  11.386  0.00  0.00    +0.000 C 
ATOM      7  C   UNL     1      46.760   6.523  12.242  0.00  0.00    +0.000 C 
BRANCH   5   8
ATOM      8  C   UNL     1      43.755   4.814  10.389  0.00  0.00    +0.000 C 
BRANCH   8   9
ATOM      9  N   UNL     1      44.011   4.215   9.085  0.00  0.00    +0.000 NA
ATOM     10  H   UNL     1      44.708   4.750   8.565  0.00  0.00    +0.000 HD
BRANCH   9  11
ATOM     11  C   UNL     1      44.498   2.829   9.185  0.00  0.00    +0.000 C 
BRANCH  11  12
ATOM     12  C   UNL     1      45.600   2.524   8.179  0.00  0.00    +0.000 A 
ATOM     13  N   UNL     1      46.223   1.326   8.281  0.00  0.00    +0.000 NA
ATOM     14  C   UNL     1      47.173   1.067   7.363  0.00  0.00    +0.000 A 
ATOM     15  C   UNL     1      47.515   1.938   6.357  0.00  0.00    +0.000 A 
ATOM     16  C   UNL     1      46.828   3.128   6.342  0.00  0.00    +0.000 A 
ATOM     17  N   UNL     1      45.870   3.446   7.230  0.00  0.00    +0.000 NA
ENDBRANCH  11  12
ENDBRANCH   9  11
ENDBRANCH   8   9
ENDBRANCH   5   8
ENDBRANCH   1   2
BRANCH   1  20
ATOM     18  O   UNL     1      48.697   8.502  15.537  0.00  0.00    +0.000 OA
ATOM     19  C   UNL     1      49.093   8.178  14.432  0.00  0.00    +0.000 C 
ATOM     20  N   UNL     1      48.815   6.969  13.820  0.00  0.00    +0.000 N 
ATOM     21  H   UNL     1      48.771   7.037  12.816  0.00  0.00    +0.000 HD
BRANCH  19  22
ATOM     22  C   UNL     1      49.660   9.107  13.462  0.00  0.00    +0.000 A 
ATOM     23  C   UNL     1      48.889  10.081  12.855  0.00  0.00    +0.000 A 
ATOM     24  S   UNL     1      49.490  10.445  11.290  0.00  0.00    +0.000 S 
ATOM     25  C   UNL     1      50.885   9.487  11.540  0.00  0.00    +0.000 A 
ATOM     26  N   UNL     1      51.768   9.226  10.547  0.00  0.00    +0.000 NA
ATOM     27  C   UNL     1      52.812   8.551  10.921  0.00  0.00    +0.000 A 
ATOM     28  N   UNL     1      53.062   8.159  12.214  0.00  0.00    +0.000 N 
ATOM     29  C   UNL     1      52.182   8.375  13.251  0.00  0.00    +0.000 A 
ATOM     30  O   UNL     1      52.452   8.050  14.402  0.00  0.00    +0.000 OA
ATOM     31  C   UNL     1      50.954   9.031  12.839  0.00  0.00    +0.000 A 
ATOM     32  H   UNL     1      53.940   7.711  12.452  0.00  0.00    +0.000 HD
ENDBRANCH  19  22
ENDBRANCH   1  20
TORSDOF 7
ENDMDL
MODEL 8
REMARK VINA RESULT:    -6.858      3.264      8.207
REMARK INTER + INTRA:         -10.621
REMARK INTER:                  -9.286
REMARK INTRA:                  -1.335
REMARK UNBOUND:                -0.956
REMARK  Name = 
REMARK  7 active torsions:
REMARK  status: ('A' for Active; 'I' for Inactive)
REMARK    1  A    between atoms: C_2  and  C_20
REMARK    2  A    between atoms: N_3  and  C_4
REMARK    3  A    between atoms: C_4  and  C_5
REMARK    4  A    between atoms: C_8  and  C_9
REMARK    5  A    between atoms: C_9  and  N_10
REMARK    6  A    between atoms: N_10  and  C_11
REMARK    7  A    between atoms: C_11  and  C_12
REMARK                            x       y       z     vdW  Elec       q    Type
REMARK                         _______ _______ _______ _____ _____    ______ ____
ROOT
ATOM      1  C   UNL     1      46.591   8.562  12.998  0.00  0.00    +0.000 C 
ENDROOT
BRANCH   1   2
ATOM      2  C   UNL     1      47.580   8.308  14.156  0.00  0.00    +0.000 C 
ATOM      3  C   UNL     1      48.798   9.255  14.137  0.00  0.00    +0.000 C 
ATOM      4  C   UNL     1      49.786   8.948  15.266  0.00  0.00    +0.000 C 
ATOM      5  C   UNL     1      50.273   7.493  15.221  0.00  0.00    +0.000 C 
ATOM      6  C   UNL     1      49.066   6.538  15.223  0.00  0.00    +0.000 C 
ATOM      7  C   UNL     1      48.067   6.853  14.111  0.00  0.00    +0.000 C 
BRANCH   5   8
ATOM      8  C   UNL     1      51.237   7.205  16.394  0.00  0.00    +0.000 C 
BRANCH   8   9
ATOM      9  N   UNL     1      51.775   5.854  16.289  0.00  0.00    +0.000 NA
ATOM     10  H   UNL     1      52.764   5.871  16.035  0.00  0.00    +0.000 HD
BRANCH   9  11
ATOM     11  C   UNL     1      51.652   5.097  17.545  0.00  0.00    +0.000 C 
BRANCH  11  12
ATOM     12  C   UNL     1      50.345   4.317  17.631  0.00  0.00    +0.000 A 
ATOM     13  N   UNL     1      49.358   4.840  18.396  0.00  0.00    +0.000 NA
ATOM     14  C   UNL     1      48.203   4.149  18.433  0.00  0.00    +0.000 A 
ATOM     15  C   UNL     1      47.995   2.980  17.741  0.00  0.00    +0.000 A 
ATOM     16  C   UNL     1      49.060   2.530  16.999  0.00  0.00    +0.000 A 
ATOM     17  N   UNL     1      50.239   3.174  16.921  0.00  0.00    +0.000 NA
ENDBRANCH  11  12
ENDBRANCH   9  11
ENDBRANCH   8   9
ENDBRANCH   5   8
ENDBRANCH   1   2
BRANCH   1  20
ATOM     18  O   UNL     1      44.425   7.896  11.266  0.00  0.00    +0.000 OA
ATOM     19  C   UNL     1      45.421   7.194  11.301  0.00  0.00    +0.000 C 
ATOM     20  N   UNL     1      46.542   7.455  12.067  0.00  0.00    +0.000 N 
ATOM     21  H   UNL     1      47.017   6.620  12.368  0.00  0.00    +0.000 HD
BRANCH  19  22
ATOM     22  C   UNL     1      45.478   5.831  10.787  0.00  0.00    +0.000 A 
ATOM     23  C   UNL     1      45.824   5.564   9.475  0.00  0.00    +0.000 A 
ATOM     24  S   UNL     1      45.064   4.128   8.926  0.00  0.00    +0.000 S 
ATOM     25  C   UNL     1      44.488   3.763  10.494  0.00  0.00    +0.000 A 
ATOM     26  N   UNL     1      43.629   2.743  10.729  0.00  0.00    +0.000 NA
ATOM     27  C   UNL     1      43.353   2.551  11.983  0.00  0.00    +0.000 A 
ATOM     28  N   UNL     1      43.903   3.267  13.018  0.00  0.00    +0.000 N 
ATOM     29  C   UNL     1      44.758   4.331  12.829  0.00  0.00    +0.000 A 
ATOM     30  O   UNL     1      45.265   4.924  13.775  0.00  0.00    +0.000 OA
ATOM     31  C   UNL     1      44.996   4.638  11.430  0.00  0.00    +0.000 A 
ATOM     32  H   UNL     1      43.711   3.007  13.979  0.00  0.00    +0.000 HD
ENDBRANCH  19  22
ENDBRANCH   1  20
TORSDOF 7
ENDMDL
MODEL 9
REMARK VINA RESULT:    -6.797      2.494      3.482
REMARK INTER + INTRA:         -10.535
REMARK INTER:                  -9.699
REMARK INTRA:                  -0.836
REMARK UNBOUND:                -0.956
REMARK  Name = 
REMARK  7 active torsions:
REMARK  status: ('A' for Active; 'I' for Inactive)
REMARK    1  A    between atoms: C_2  and  C_20
REMARK    2  A    between atoms: N_3  and  C_4
REMARK    3  A    between atoms: C_4  and  C_5
REMARK    4  A    between atoms: C_8  and  C_9
REMARK    5  A    between atoms: C_9  and  N_10
REMARK    6  A    between atoms: N_10  and  C_11
REMARK    7  A    between atoms: C_11  and  C_12
REMARK                            x       y       z     vdW  Elec       q    Type
REMARK                         _______ _______ _______ _____ _____    ______ ____
ROOT
ATOM      1  C   UNL     1      47.759   5.122  14.522  0.00  0.00    +0.000 C 
ENDROOT
BRANCH   1   2
ATOM      2  C   UNL     1      46.871   5.008  13.265  0.00  0.00    +0.000 C 
ATOM      3  C   UNL     1      45.880   6.180  13.108  0.00  0.00    +0.000 C 
ATOM      4  C   UNL     1      44.978   6.015  11.882  0.00  0.00    +0.000 C 
ATOM      5  C   UNL     1      44.199   4.693  11.919  0.00  0.00    +0.000 C 
ATOM      6  C   UNL     1      45.174   3.515  12.092  0.00  0.00    +0.000 C 
ATOM      7  C   UNL     1      46.091   3.686  13.302  0.00  0.00    +0.000 C 
BRANCH   5   8
ATOM      8  C   UNL     1      43.328   4.539  10.651  0.00  0.00    +0.000 C 
BRANCH   8   9
ATOM      9  N   UNL     1      43.893   3.526   9.768  0.00  0.00    +0.000 NA
ATOM     10  H   UNL     1      43.173   2.875   9.448  0.00  0.00    +0.000 HD
BRANCH   9  11
ATOM     11  C   UNL     1      44.529   4.107   8.575  0.00  0.00    +0.000 C 
BRANCH  11  12
ATOM     12  C   UNL     1      45.559   3.175   7.950  0.00  0.00    +0.000 A 
ATOM     13  N   UNL     1      46.315   3.668   6.942  0.00  0.00    +0.000 NA
ATOM     14  C   UNL     1      47.239   2.836   6.425  0.00  0.00    +0.000 A 
ATOM     15  C   UNL     1      47.441   1.553   6.874  0.00  0.00    +0.000 A 
ATOM     16  C   UNL     1      46.619   1.145   7.897  0.00  0.00    +0.000 A 
ATOM     17  N   UNL     1      45.678   1.928   8.454  0.00  0.00    +0.000 NA
ENDBRANCH  11  12
ENDBRANCH   9  11
ENDBRANCH   8   9
ENDBRANCH   5   8
ENDBRANCH   1   2
BRANCH   1  20
ATOM     18  O   UNL     1      49.954   6.233  15.965  0.00  0.00    +0.000 OA
ATOM     19  C   UNL     1      48.976   6.916  15.716  0.00  0.00    +0.000 C 
ATOM     20  N   UNL     1      47.884   6.488  14.983  0.00  0.00    +0.000 N 
ATOM     21  H   UNL     1      47.022   6.925  15.268  0.00  0.00    +0.000 HD
BRANCH  19  22
ATOM     22  C   UNL     1      48.661   8.170  16.390  0.00  0.00    +0.000 A 
ATOM     23  C   UNL     1      48.703   9.381  15.725  0.00  0.00    +0.000 A 
ATOM     24  S   UNL     1      49.102  10.653  16.804  0.00  0.00    +0.000 S 
ATOM     25  C   UNL     1      48.977   9.620  18.161  0.00  0.00    +0.000 A 
ATOM     26  N   UNL     1      49.336  10.015  19.405  0.00  0.00    +0.000 NA
ATOM     27  C   UNL     1      49.105   9.139  20.335  0.00  0.00    +0.000 A 
ATOM     28  N   UNL     1      48.501   7.924  20.124  0.00  0.00    +0.000 N 
ATOM     29  C   UNL     1      48.144   7.465  18.875  0.00  0.00    +0.000 A 
ATOM     30  O   UNL     1      47.570   6.392  18.724  0.00  0.00    +0.000 OA
ATOM     31  C   UNL     1      48.494   8.379  17.803  0.00  0.00    +0.000 A 
ATOM     32  H   UNL     1      48.270   7.324  20.909  0.00  0.00    +0.000 HD
ENDBRANCH  19  22
ENDBRANCH   1  20
TORSDOF 7
ENDMDL
