MODEL 1
REMARK VINA RESULT:    -8.723      0.000      0.000
REMARK INTER + INTRA:         -13.705
REMARK INTER:                 -12.548
REMARK INTRA:                  -1.157
REMARK UNBOUND:                -1.157
REMARK  Name = 
REMARK  8 active torsions:
REMARK  status: ('A' for Active; 'I' for Inactive)
REMARK    1  A    between atoms: C_2  and  C_21
REMARK    2  A    between atoms: N_3  and  C_4
REMARK    3  A    between atoms: C_4  and  C_5
REMARK    4  A    between atoms: C_8  and  C_9
REMARK    5  A    between atoms: C_9  and  C_10
REMARK    6  A    between atoms: C_10  and  O_11
REMARK    7  A    between atoms: C_10  and  C_12
REMARK    8  A    between atoms: C_12  and  C_13
REMARK                            x       y       z     vdW  Elec       q    Type
REMARK                         _______ _______ _______ _____ _____    ______ ____
ROOT
ATOM      1  C   UNL     1      46.171   7.060  12.452  0.00  0.00    +0.000 A 
ATOM      2  C   UNL     1      46.616   6.715  11.177  0.00  0.00    +0.000 A 
ATOM      3  C   UNL     1      45.888   5.816  10.403  0.00  0.00    +0.000 A 
ATOM      4  C   UNL     1      44.705   5.296  10.913  0.00  0.00    +0.000 A 
ATOM      5  N   UNL     1      44.215   5.671  12.120  0.00  0.00    +0.000 NA
ATOM      6  C   UNL     1      44.955   6.530  12.863  0.00  0.00    +0.000 A 
ENDROOT
BRANCH   1   7
ATOM      7  C   UNL     1      46.967   7.980  13.330  0.00  0.00    +0.000 C 
BRANCH   7  10
ATOM      8  O   UNL     1      49.482   6.741  13.627  0.00  0.00    +0.000 OA
ATOM      9  C   UNL     1      48.713   6.775  14.585  0.00  0.00    +0.000 C 
ATOM     10  N   UNL     1      47.454   7.310  14.505  0.00  0.00    +0.000 N 
ATOM     11  H   UNL     1      46.933   7.468  15.359  0.00  0.00    +0.000 HD
BRANCH   9  12
ATOM     12  C   UNL     1      49.076   6.198  15.881  0.00  0.00    +0.000 A 
ATOM     13  C   UNL     1      50.077   6.776  16.650  0.00  0.00    +0.000 A 
ATOM     14  S   UNL     1      50.350   5.966  18.127  0.00  0.00    +0.000 S 
ATOM     15  C   UNL     1      49.115   4.841  17.801  0.00  0.00    +0.000 A 
ATOM     16  N   UNL     1      48.795   3.870  18.701  0.00  0.00    +0.000 NA
ATOM     17  C   UNL     1      47.811   3.114  18.344  0.00  0.00    +0.000 A 
ATOM     18  N   UNL     1      47.124   3.233  17.163  0.00  0.00    +0.000 N 
ATOM     19  C   UNL     1      47.459   4.147  16.194  0.00  0.00    +0.000 A 
ATOM     20  O   UNL     1      46.917   4.133  15.097  0.00  0.00    +0.000 OA
ATOM     21  C   UNL     1      48.526   5.057  16.572  0.00  0.00    +0.000 A 
ATOM     22  H   UNL     1      46.384   2.588  16.925  0.00  0.00    +0.000 HD
ENDBRANCH   9  12
ENDBRANCH   7  10
ENDBRANCH   1   7
BRANCH   4  23
ATOM     23  C   UNL     1      43.889   4.293  10.128  0.00  0.00    +0.000 C 
BRANCH  23  24
ATOM     24  C   UNL     1      44.282   2.821  10.367  0.00  0.00    +0.000 C 
BRANCH  24  25
ATOM     25  O   UNL     1      43.435   2.244  11.369  0.00  0.00    +0.000 OA
ATOM     26  H   UNL     1      42.789   2.926  11.635  0.00  0.00    +0.000 HD
ENDBRANCH  24  25
BRANCH  24  27
ATOM     27  C   UNL     1      44.267   1.964   9.094  0.00  0.00    +0.000 C 
BRANCH  27  28
ATOM     28  C   UNL     1      45.519   2.157   8.266  0.00  0.00    +0.000 A 
ATOM     29  C   UNL     1      45.777   3.389   7.663  0.00  0.00    +0.000 A 
ATOM     30  C   UNL     1      46.926   3.540   6.893  0.00  0.00    +0.000 A 
ATOM     31  C   UNL     1      47.785   2.460   6.741  0.00  0.00    +0.000 A 
ATOM     32  C   UNL     1      47.453   1.269   7.369  0.00  0.00    +0.000 A 
ATOM     33  N   UNL     1      46.348   1.094   8.129  0.00  0.00    +0.000 NA
ENDBRANCH  27  28
ENDBRANCH  24  27
ENDBRANCH  23  24
ENDBRANCH   4  23
TORSDOF 8
ENDMDL
MODEL 2
REMARK VINA RESULT:    -8.150      2.410      2.860
REMARK INTER + INTRA:         -12.880
REMARK INTER:                 -11.646
REMARK INTRA:                  -1.235
REMARK UNBOUND:                -1.157
REMARK  Name = 
REMARK  8 active torsions:
REMARK  status: ('A' for Active; 'I' for Inactive)
REMARK    1  A    between atoms: C_2  and  C_21
REMARK    2  A    between atoms: N_3  and  C_4
REMARK    3  A    between atoms: C_4  and  C_5
REMARK    4  A    between atoms: C_8  and  C_9
REMARK    5  A    between atoms: C_9  and  C_10
REMARK    6  A    between atoms: C_10  and  O_11
REMARK    7  A    between atoms: C_10  and  C_12
REMARK    8  A    between atoms: C_12  and  C_13
REMARK                            x       y       z     vdW  Elec       q    Type
REMARK                         _______ _______ _______ _____ _____    ______ ____
ROOT
ATOM      1  C   UNL     1      47.580   6.441  13.366  0.00  0.00    +0.000 A 
ATOM      2  C   UNL     1      47.291   7.004  12.124  0.00  0.00    +0.000 A 
ATOM      3  C   UNL     1      46.340   6.416  11.295  0.00  0.00    +0.000 A 
ATOM      4  C   UNL     1      45.672   5.281  11.739  0.00  0.00    +0.000 A 
ATOM      5  N   UNL     1      45.885   4.757  12.972  0.00  0.00    +0.000 NA
ATOM      6  C   UNL     1      46.833   5.335  13.749  0.00  0.00    +0.000 A 
ENDROOT
BRANCH   1   7
ATOM      7  C   UNL     1      48.643   7.021  14.253  0.00  0.00    +0.000 C 
BRANCH   7  10
ATOM      8  O   UNL     1      50.429   6.071  16.216  0.00  0.00    +0.000 OA
ATOM      9  C   UNL     1      49.292   6.395  16.547  0.00  0.00    +0.000 C 
ATOM     10  N   UNL     1      48.348   6.815  15.645  0.00  0.00    +0.000 N 
ATOM     11  H   UNL     1      47.492   7.232  15.988  0.00  0.00    +0.000 HD
BRANCH   9  12
ATOM     12  C   UNL     1      48.845   6.313  17.939  0.00  0.00    +0.000 A 
ATOM     13  C   UNL     1      48.990   5.130  18.653  0.00  0.00    +0.000 A 
ATOM     14  S   UNL     1      48.416   5.233  20.257  0.00  0.00    +0.000 S 
ATOM     15  C   UNL     1      47.990   6.869  20.058  0.00  0.00    +0.000 A 
ATOM     16  N   UNL     1      47.465   7.587  21.089  0.00  0.00    +0.000 NA
ATOM     17  C   UNL     1      47.230   8.826  20.811  0.00  0.00    +0.000 A 
ATOM     18  N   UNL     1      47.461   9.410  19.593  0.00  0.00    +0.000 N 
ATOM     19  C   UNL     1      47.917   8.709  18.504  0.00  0.00    +0.000 A 
ATOM     20  O   UNL     1      47.978   9.228  17.398  0.00  0.00    +0.000 OA
ATOM     21  C   UNL     1      48.248   7.322  18.781  0.00  0.00    +0.000 A 
ATOM     22  H   UNL     1      47.223  10.378  19.427  0.00  0.00    +0.000 HD
ENDBRANCH   9  12
ENDBRANCH   7  10
ENDBRANCH   1   7
BRANCH   4  23
ATOM     23  C   UNL     1      44.652   4.583  10.869  0.00  0.00    +0.000 C 
BRANCH  23  24
ATOM     24  C   UNL     1      44.827   3.054  10.776  0.00  0.00    +0.000 C 
BRANCH  24  25
ATOM     25  O   UNL     1      44.164   2.417  11.877  0.00  0.00    +0.000 OA
ATOM     26  H   UNL     1      43.484   1.823  11.505  0.00  0.00    +0.000 HD
ENDBRANCH  24  25
BRANCH  24  27
ATOM     27  C   UNL     1      44.351   2.457   9.445  0.00  0.00    +0.000 C 
BRANCH  27  28
ATOM     28  C   UNL     1      45.476   2.343   8.440  0.00  0.00    +0.000 A 
ATOM     29  C   UNL     1      45.811   3.433   7.637  0.00  0.00    +0.000 A 
ATOM     30  C   UNL     1      46.840   3.301   6.708  0.00  0.00    +0.000 A 
ATOM     31  C   UNL     1      47.503   2.087   6.603  0.00  0.00    +0.000 A 
ATOM     32  C   UNL     1      47.106   1.051   7.435  0.00  0.00    +0.000 A 
ATOM     33  N   UNL     1      46.116   1.151   8.352  0.00  0.00    +0.000 NA
ENDBRANCH  27  28
ENDBRANCH  24  27
ENDBRANCH  23  24
ENDBRANCH   4  23
TORSDOF 8
ENDMDL
MODEL 3
REMARK VINA RESULT:    -8.128      1.849      2.114
REMARK INTER + INTRA:         -12.849
REMARK INTER:                 -11.851
REMARK INTRA:                  -0.998
REMARK UNBOUND:                -1.157
REMARK  Name = 
REMARK  8 active torsions:
REMARK  status: ('A' for Active; 'I' for Inactive)
REMARK    1  A    between atoms: C_2  and  C_21
REMARK    2  A    between atoms: N_3  and  C_4
REMARK    3  A    between atoms: C_4  and  C_5
REMARK    4  A    between atoms: C_8  and  C_9
REMARK    5  A    between atoms: C_9  and  C_10
REMARK    6  A    between atoms: C_10  and  O_11
REMARK    7  A    between atoms: C_10  and  C_12
REMARK    8  A    between atoms: C_12  and  C_13
REMARK                            x       y       z     vdW  Elec       q    Type
REMARK                         _______ _______ _______ _____ _____    ______ ____
ROOT
ATOM      1  C   UNL     1      47.329   6.413  13.220  0.00  0.00    +0.000 A 
ATOM      2  C   UNL     1      46.808   6.973  12.054  0.00  0.00    +0.000 A 
ATOM      3  C   UNL     1      45.765   6.342  11.383  0.00  0.00    +0.000 A 
ATOM      4  C   UNL     1      45.241   5.168  11.908  0.00  0.00    +0.000 A 
ATOM      5  N   UNL     1      45.683   4.642  13.078  0.00  0.00    +0.000 NA
ATOM      6  C   UNL     1      46.716   5.264  13.699  0.00  0.00    +0.000 A 
ENDROOT
BRANCH   1   7
ATOM      7  C   UNL     1      48.492   7.041  13.930  0.00  0.00    +0.000 C 
BRANCH   7  10
ATOM      8  O   UNL     1      50.288   6.239  15.950  0.00  0.00    +0.000 OA
ATOM      9  C   UNL     1      49.221   6.755  16.268  0.00  0.00    +0.000 C 
ATOM     10  N   UNL     1      48.272   7.122  15.349  0.00  0.00    +0.000 N 
ATOM     11  H   UNL     1      47.493   7.697  15.649  0.00  0.00    +0.000 HD
BRANCH   9  12
ATOM     12  C   UNL     1      48.862   6.976  17.670  0.00  0.00    +0.000 A 
ATOM     13  C   UNL     1      48.530   8.249  18.117  0.00  0.00    +0.000 A 
ATOM     14  S   UNL     1      48.137   8.302  19.777  0.00  0.00    +0.000 S 
ATOM     15  C   UNL     1      48.363   6.623  19.942  0.00  0.00    +0.000 A 
ATOM     16  N   UNL     1      48.147   6.000  21.133  0.00  0.00    +0.000 NA
ATOM     17  C   UNL     1      48.314   4.720  21.103  0.00  0.00    +0.000 A 
ATOM     18  N   UNL     1      48.689   4.007  19.994  0.00  0.00    +0.000 N 
ATOM     19  C   UNL     1      48.990   4.600  18.793  0.00  0.00    +0.000 A 
ATOM     20  O   UNL     1      49.455   3.951  17.866  0.00  0.00    +0.000 OA
ATOM     21  C   UNL     1      48.765   6.034  18.760  0.00  0.00    +0.000 A 
ATOM     22  H   UNL     1      48.837   3.009  20.043  0.00  0.00    +0.000 HD
ENDBRANCH   9  12
ENDBRANCH   7  10
ENDBRANCH   1   7
BRANCH   4  23
ATOM     23  C   UNL     1      44.128   4.424  11.204  0.00  0.00    +0.000 C 
BRANCH  23  24
ATOM     24  C   UNL     1      44.603   3.287  10.278  0.00  0.00    +0.000 C 
BRANCH  24  25
ATOM     25  O   UNL     1      43.789   2.123  10.474  0.00  0.00    +0.000 OA
ATOM     26  H   UNL     1      42.881   2.352  10.200  0.00  0.00    +0.000 HD
ENDBRANCH  24  25
BRANCH  24  27
ATOM     27  C   UNL     1      44.639   3.673   8.793  0.00  0.00    +0.000 C 
BRANCH  27  28
ATOM     28  C   UNL     1      45.675   2.880   8.026  0.00  0.00    +0.000 A 
ATOM     29  C   UNL     1      46.362   3.467   6.964  0.00  0.00    +0.000 A 
ATOM     30  C   UNL     1      47.299   2.714   6.262  0.00  0.00    +0.000 A 
ATOM     31  C   UNL     1      47.522   1.397   6.635  0.00  0.00    +0.000 A 
ATOM     32  C   UNL     1      46.794   0.886   7.698  0.00  0.00    +0.000 A 
ATOM     33  N   UNL     1      45.883   1.595   8.404  0.00  0.00    +0.000 NA
ENDBRANCH  27  28
ENDBRANCH  24  27
ENDBRANCH  23  24
ENDBRANCH   4  23
TORSDOF 8
ENDMDL
MODEL 4
REMARK VINA RESULT:    -7.573      2.746      3.377
REMARK INTER + INTRA:         -12.050
REMARK INTER:                 -10.965
REMARK INTRA:                  -1.085
REMARK UNBOUND:                -1.157
REMARK  Name = 
REMARK  8 active torsions:
REMARK  status: ('A' for Active; 'I' for Inactive)
REMARK    1  A    between atoms: C_2  and  C_21
REMARK    2  A    between atoms: N_3  and  C_4
REMARK    3  A    between atoms: C_4  and  C_5
REMARK    4  A    between atoms: C_8  and  C_9
REMARK    5  A    between atoms: C_9  and  C_10
REMARK    6  A    between atoms: C_10  and  O_11
REMARK    7  A    between atoms: C_10  and  C_12
REMARK    8  A    between atoms: C_12  and  C_13
REMARK                            x       y       z     vdW  Elec       q    Type
REMARK                         _______ _______ _______ _____ _____    ______ ____
ROOT
ATOM      1  C   UNL     1      47.960   5.945  14.929  0.00  0.00    +0.000 A 
ATOM      2  C   UNL     1      47.788   6.306  13.593  0.00  0.00    +0.000 A 
ATOM      3  C   UNL     1      47.016   5.513  12.750  0.00  0.00    +0.000 A 
ATOM      4  C   UNL     1      46.406   4.378  13.268  0.00  0.00    +0.000 A 
ATOM      5  N   UNL     1      46.500   4.045  14.579  0.00  0.00    +0.000 NA
ATOM      6  C   UNL     1      47.276   4.822  15.374  0.00  0.00    +0.000 A 
ENDROOT
BRANCH   1   7
ATOM      7  C   UNL     1      48.834   6.751  15.845  0.00  0.00    +0.000 C 
BRANCH   7  10
ATOM      8  O   UNL     1      49.314   6.116  18.550  0.00  0.00    +0.000 OA
ATOM      9  C   UNL     1      50.064   5.668  17.687  0.00  0.00    +0.000 C 
ATOM     10  N   UNL     1      49.931   5.974  16.357  0.00  0.00    +0.000 N 
ATOM     11  H   UNL     1      50.462   5.446  15.675  0.00  0.00    +0.000 HD
BRANCH   9  12
ATOM     12  C   UNL     1      51.195   4.802  18.026  0.00  0.00    +0.000 A 
ATOM     13  C   UNL     1      52.302   5.321  18.686  0.00  0.00    +0.000 A 
ATOM     14  S   UNL     1      53.510   4.157  18.999  0.00  0.00    +0.000 S 
ATOM     15  C   UNL     1      52.577   2.918  18.297  0.00  0.00    +0.000 A 
ATOM     16  N   UNL     1      53.025   1.633  18.270  0.00  0.00    +0.000 NA
ATOM     17  C   UNL     1      52.197   0.791  17.747  0.00  0.00    +0.000 A 
ATOM     18  N   UNL     1      50.967   1.118  17.238  0.00  0.00    +0.000 N 
ATOM     19  C   UNL     1      50.507   2.410  17.175  0.00  0.00    +0.000 A 
ATOM     20  O   UNL     1      49.468   2.683  16.588  0.00  0.00    +0.000 OA
ATOM     21  C   UNL     1      51.379   3.388  17.800  0.00  0.00    +0.000 A 
ATOM     22  H   UNL     1      50.379   0.418  16.809  0.00  0.00    +0.000 HD
ENDBRANCH   9  12
ENDBRANCH   7  10
ENDBRANCH   1   7
BRANCH   4  23
ATOM     23  C   UNL     1      45.581   3.464  12.390  0.00  0.00    +0.000 C 
BRANCH  23  24
ATOM     24  C   UNL     1      44.065   3.742  12.420  0.00  0.00    +0.000 C 
BRANCH  24  25
ATOM     25  O   UNL     1      43.790   4.870  13.261  0.00  0.00    +0.000 OA
ATOM     26  H   UNL     1      42.862   4.797  13.556  0.00  0.00    +0.000 HD
ENDBRANCH  24  25
BRANCH  24  27
ATOM     27  C   UNL     1      43.445   3.944  11.031  0.00  0.00    +0.000 C 
BRANCH  27  28
ATOM     28  C   UNL     1      44.381   3.509   9.924  0.00  0.00    +0.000 A 
ATOM     29  C   UNL     1      45.062   4.462   9.167  0.00  0.00    +0.000 A 
ATOM     30  C   UNL     1      45.906   4.040   8.144  0.00  0.00    +0.000 A 
ATOM     31  C   UNL     1      46.045   2.681   7.901  0.00  0.00    +0.000 A 
ATOM     32  C   UNL     1      45.330   1.798   8.695  0.00  0.00    +0.000 A 
ATOM     33  N   UNL     1      44.508   2.178   9.701  0.00  0.00    +0.000 NA
ENDBRANCH  27  28
ENDBRANCH  24  27
ENDBRANCH  23  24
ENDBRANCH   4  23
TORSDOF 8
ENDMDL
MODEL 5
REMARK VINA RESULT:    -7.504      1.949      2.595
REMARK INTER + INTRA:         -11.951
REMARK INTER:                 -10.763
REMARK INTRA:                  -1.188
REMARK UNBOUND:                -1.157
REMARK  Name = 
REMARK  8 active torsions:
REMARK  status: ('A' for Active; 'I' for Inactive)
REMARK    1  A    between atoms: C_2  and  C_21
REMARK    2  A    between atoms: N_3  and  C_4
REMARK    3  A    between atoms: C_4  and  C_5
REMARK    4  A    between atoms: C_8  and  C_9
REMARK    5  A    between atoms: C_9  and  C_10
REMARK    6  A    between atoms: C_10  and  O_11
REMARK    7  A    between atoms: C_10  and  C_12
REMARK    8  A    between atoms: C_12  and  C_13
REMARK                            x       y       z     vdW  Elec       q    Type
REMARK                         _______ _______ _______ _____ _____    ______ ____
ROOT
ATOM      1  C   UNL     1      47.867   6.800  13.008  0.00  0.00    +0.000 A 
ATOM      2  C   UNL     1      47.419   7.240  11.763  0.00  0.00    +0.000 A 
ATOM      3  C   UNL     1      46.382   6.573  11.119  0.00  0.00    +0.000 A 
ATOM      4  C   UNL     1      45.790   5.485  11.747  0.00  0.00    +0.000 A 
ATOM      5  N   UNL     1      46.160   5.082  12.988  0.00  0.00    +0.000 NA
ATOM      6  C   UNL     1      47.188   5.734  13.584  0.00  0.00    +0.000 A 
ENDROOT
BRANCH   1   7
ATOM      7  C   UNL     1      49.022   7.464  13.698  0.00  0.00    +0.000 C 
BRANCH   7  10
ATOM      8  O   UNL     1      48.519   8.353  16.326  0.00  0.00    +0.000 OA
ATOM      9  C   UNL     1      49.056   7.262  16.155  0.00  0.00    +0.000 C 
ATOM     10  N   UNL     1      49.383   6.784  14.912  0.00  0.00    +0.000 N 
ATOM     11  H   UNL     1      49.662   5.815  14.816  0.00  0.00    +0.000 HD
BRANCH   9  12
ATOM     12  C   UNL     1      49.430   6.405  17.281  0.00  0.00    +0.000 A 
ATOM     13  C   UNL     1      48.478   6.019  18.216  0.00  0.00    +0.000 A 
ATOM     14  S   UNL     1      49.104   5.019  19.448  0.00  0.00    +0.000 S 
ATOM     15  C   UNL     1      50.658   5.040  18.752  0.00  0.00    +0.000 A 
ATOM     16  N   UNL     1      51.683   4.335  19.304  0.00  0.00    +0.000 NA
ATOM     17  C   UNL     1      52.793   4.406  18.648  0.00  0.00    +0.000 A 
ATOM     18  N   UNL     1      52.975   5.128  17.497  0.00  0.00    +0.000 N 
ATOM     19  C   UNL     1      51.993   5.914  16.947  0.00  0.00    +0.000 A 
ATOM     20  O   UNL     1      52.230   6.653  16.001  0.00  0.00    +0.000 OA
ATOM     21  C   UNL     1      50.708   5.825  17.618  0.00  0.00    +0.000 A 
ATOM     22  H   UNL     1      53.879   5.173  17.049  0.00  0.00    +0.000 HD
ENDBRANCH   9  12
ENDBRANCH   7  10
ENDBRANCH   1   7
BRANCH   4  23
ATOM     23  C   UNL     1      44.680   4.705  11.080  0.00  0.00    +0.000 C 
BRANCH  23  24
ATOM     24  C   UNL     1      44.977   3.204  10.887  0.00  0.00    +0.000 C 
BRANCH  24  25
ATOM     25  O   UNL     1      44.511   2.462  12.021  0.00  0.00    +0.000 OA
ATOM     26  H   UNL     1      44.043   3.086  12.607  0.00  0.00    +0.000 HD
ENDBRANCH  24  25
BRANCH  24  27
ATOM     27  C   UNL     1      44.400   2.621   9.589  0.00  0.00    +0.000 C 
BRANCH  27  28
ATOM     28  C   UNL     1      45.463   2.439   8.528  0.00  0.00    +0.000 A 
ATOM     29  C   UNL     1      45.790   3.493   7.675  0.00  0.00    +0.000 A 
ATOM     30  C   UNL     1      46.760   3.298   6.696  0.00  0.00    +0.000 A 
ATOM     31  C   UNL     1      47.373   2.058   6.590  0.00  0.00    +0.000 A 
ATOM     32  C   UNL     1      46.987   1.060   7.473  0.00  0.00    +0.000 A 
ATOM     33  N   UNL     1      46.054   1.222   8.439  0.00  0.00    +0.000 NA
ENDBRANCH  27  28
ENDBRANCH  24  27
ENDBRANCH  23  24
ENDBRANCH   4  23
TORSDOF 8
ENDMDL
MODEL 6
REMARK VINA RESULT:    -7.257      2.904      8.421
REMARK INTER + INTRA:         -11.596
REMARK INTER:                  -9.473
REMARK INTRA:                  -2.124
REMARK UNBOUND:                -1.157
REMARK  Name = 
REMARK  8 active torsions:
REMARK  status: ('A' for Active; 'I' for Inactive)
REMARK    1  A    between atoms: C_2  and  C_21
REMARK    2  A    between atoms: N_3  and  C_4
REMARK    3  A    between atoms: C_4  and  C_5
REMARK    4  A    between atoms: C_8  and  C_9
REMARK    5  A    between atoms: C_9  and  C_10
REMARK    6  A    between atoms: C_10  and  O_11
REMARK    7  A    between atoms: C_10  and  C_12
REMARK    8  A    between atoms: C_12  and  C_13
REMARK                            x       y       z     vdW  Elec       q    Type
REMARK                         _______ _______ _______ _____ _____    ______ ____
ROOT
ATOM      1  C   UNL     1      47.950   7.740  13.596  0.00  0.00    +0.000 A 
ATOM      2  C   UNL     1      48.550   6.609  14.149  0.00  0.00    +0.000 A 
ATOM      3  C   UNL     1      49.110   6.668  15.421  0.00  0.00    +0.000 A 
ATOM      4  C   UNL     1      49.038   7.859  16.133  0.00  0.00    +0.000 A 
ATOM      5  N   UNL     1      48.397   8.951  15.645  0.00  0.00    +0.000 NA
ATOM      6  C   UNL     1      47.881   8.874  14.394  0.00  0.00    +0.000 A 
ENDROOT
BRANCH   1   7
ATOM      7  C   UNL     1      47.391   7.720  12.203  0.00  0.00    +0.000 C 
BRANCH   7  10
ATOM      8  O   UNL     1      44.618   7.253  12.414  0.00  0.00    +0.000 OA
ATOM      9  C   UNL     1      45.347   6.356  11.999  0.00  0.00    +0.000 C 
ATOM     10  N   UNL     1      46.710   6.486  11.919  0.00  0.00    +0.000 N 
ATOM     11  H   UNL     1      47.241   5.788  11.411  0.00  0.00    +0.000 HD
BRANCH   9  12
ATOM     12  C   UNL     1      44.810   5.054  11.598  0.00  0.00    +0.000 A 
ATOM     13  C   UNL     1      44.055   4.303  12.490  0.00  0.00    +0.000 A 
ATOM     14  S   UNL     1      43.515   2.821  11.838  0.00  0.00    +0.000 S 
ATOM     15  C   UNL     1      44.241   3.154  10.335  0.00  0.00    +0.000 A 
ATOM     16  N   UNL     1      44.123   2.286   9.292  0.00  0.00    +0.000 NA
ATOM     17  C   UNL     1      44.686   2.685   8.200  0.00  0.00    +0.000 A 
ATOM     18  N   UNL     1      45.366   3.867   8.059  0.00  0.00    +0.000 N 
ATOM     19  C   UNL     1      45.574   4.736   9.101  0.00  0.00    +0.000 A 
ATOM     20  O   UNL     1      46.303   5.711   8.975  0.00  0.00    +0.000 OA
ATOM     21  C   UNL     1      44.914   4.358  10.338  0.00  0.00    +0.000 A 
ATOM     22  H   UNL     1      45.815   4.107   7.187  0.00  0.00    +0.000 HD
ENDBRANCH   9  12
ENDBRANCH   7  10
ENDBRANCH   1   7
BRANCH   4  23
ATOM     23  C   UNL     1      49.656   7.989  17.506  0.00  0.00    +0.000 C 
BRANCH  23  24
ATOM     24  C   UNL     1      48.657   7.857  18.674  0.00  0.00    +0.000 C 
BRANCH  24  25
ATOM     25  O   UNL     1      47.314   7.955  18.183  0.00  0.00    +0.000 OA
ATOM     26  H   UNL     1      47.315   8.600  17.451  0.00  0.00    +0.000 HD
ENDBRANCH  24  25
BRANCH  24  27
ATOM     27  C   UNL     1      48.836   6.575  19.498  0.00  0.00    +0.000 C 
BRANCH  27  28
ATOM     28  C   UNL     1      48.613   5.330  18.667  0.00  0.00    +0.000 A 
ATOM     29  C   UNL     1      49.672   4.458  18.414  0.00  0.00    +0.000 A 
ATOM     30  C   UNL     1      49.449   3.328  17.633  0.00  0.00    +0.000 A 
ATOM     31  C   UNL     1      48.179   3.100  17.123  0.00  0.00    +0.000 A 
ATOM     32  C   UNL     1      47.182   4.018  17.416  0.00  0.00    +0.000 A 
ATOM     33  N   UNL     1      47.367   5.121  18.178  0.00  0.00    +0.000 NA
ENDBRANCH  27  28
ENDBRANCH  24  27
ENDBRANCH  23  24
ENDBRANCH   4  23
TORSDOF 8
ENDMDL
MODEL 7
REMARK VINA RESULT:    -7.196      1.820      2.192
REMARK INTER + INTRA:         -11.509
REMARK INTER:                 -10.289
REMARK INTRA:                  -1.219
REMARK UNBOUND:                -1.157
REMARK  Name = 
REMARK  8 active torsions:
REMARK  status: ('A' for Active; 'I' for Inactive)
REMARK    1  A    between atoms: C_2  and  C_21
REMARK    2  A    between atoms: N_3  and  C_4
REMARK    3  A    between atoms: C_4  and  C_5
REMARK    4  A    between atoms: C_8  and  C_9
REMARK    5  A    between atoms: C_9  and  C_10
REMARK    6  A    between atoms: C_10  and  O_11
REMARK    7  A    between atoms: C_10  and  C_12
REMARK    8  A    between atoms: C_12  and  C_13
REMARK                            x       y       z     vdW  Elec       q    Type
REMARK                         _______ _______ _______ _____ _____    ______ ____
ROOT
ATOM      1  C   UNL     1      47.296   7.506  13.230  0.00  0.00    +0.000 A 
ATOM      2  C   UNL     1      47.637   6.170  13.020  0.00  0.00    +0.000 A 
ATOM      3  C   UNL     1      46.685   5.274  12.545  0.00  0.00    +0.000 A 
ATOM      4  C   UNL     1      45.406   5.738  12.263  0.00  0.00    +0.000 A 
ATOM      5  N   UNL     1      45.071   7.046  12.393  0.00  0.00    +0.000 NA
ATOM      6  C   UNL     1      46.010   7.894  12.879  0.00  0.00    +0.000 A 
ENDROOT
BRANCH   1   7
ATOM      7  C   UNL     1      48.287   8.480  13.797  0.00  0.00    +0.000 C 
BRANCH   7  10
ATOM      8  O   UNL     1      49.508   9.249  16.219  0.00  0.00    +0.000 OA
ATOM      9  C   UNL     1      49.884   8.224  15.657  0.00  0.00    +0.000 C 
ATOM     10  N   UNL     1      49.380   7.812  14.451  0.00  0.00    +0.000 N 
ATOM     11  H   UNL     1      49.597   6.880  14.120  0.00  0.00    +0.000 HD
BRANCH   9  12
ATOM     12  C   UNL     1      50.943   7.385  16.220  0.00  0.00    +0.000 A 
ATOM     13  C   UNL     1      52.239   7.873  16.335  0.00  0.00    +0.000 A 
ATOM     14  S   UNL     1      53.327   6.750  17.020  0.00  0.00    +0.000 S 
ATOM     15  C   UNL     1      52.095   5.592  17.217  0.00  0.00    +0.000 A 
ATOM     16  N   UNL     1      52.353   4.387  17.795  0.00  0.00    +0.000 NA
ATOM     17  C   UNL     1      51.318   3.624  17.920  0.00  0.00    +0.000 A 
ATOM     18  N   UNL     1      50.052   3.952  17.510  0.00  0.00    +0.000 N 
ATOM     19  C   UNL     1      49.760   5.123  16.855  0.00  0.00    +0.000 A 
ATOM     20  O   UNL     1      48.650   5.321  16.379  0.00  0.00    +0.000 OA
ATOM     21  C   UNL     1      50.880   6.039  16.738  0.00  0.00    +0.000 A 
ATOM     22  H   UNL     1      49.289   3.297  17.605  0.00  0.00    +0.000 HD
ENDBRANCH   9  12
ENDBRANCH   7  10
ENDBRANCH   1   7
BRANCH   4  23
ATOM     23  C   UNL     1      44.324   4.802  11.775  0.00  0.00    +0.000 C 
BRANCH  23  24
ATOM     24  C   UNL     1      44.820   3.392  11.394  0.00  0.00    +0.000 C 
BRANCH  24  25
ATOM     25  O   UNL     1      44.597   2.484  12.480  0.00  0.00    +0.000 OA
ATOM     26  H   UNL     1      45.422   1.982  12.617  0.00  0.00    +0.000 HD
ENDBRANCH  24  25
BRANCH  24  27
ATOM     27  C   UNL     1      44.198   2.846  10.101  0.00  0.00    +0.000 C 
BRANCH  27  28
ATOM     28  C   UNL     1      45.216   2.728   8.988  0.00  0.00    +0.000 A 
ATOM     29  C   UNL     1      45.540   3.843   8.214  0.00  0.00    +0.000 A 
ATOM     30  C   UNL     1      46.467   3.708   7.185  0.00  0.00    +0.000 A 
ATOM     31  C   UNL     1      47.043   2.467   6.953  0.00  0.00    +0.000 A 
ATOM     32  C   UNL     1      46.663   1.409   7.764  0.00  0.00    +0.000 A 
ATOM     33  N   UNL     1      45.771   1.510   8.776  0.00  0.00    +0.000 NA
ENDBRANCH  27  28
ENDBRANCH  24  27
ENDBRANCH  23  24
ENDBRANCH   4  23
TORSDOF 8
ENDMDL
MODEL 8
REMARK VINA RESULT:    -7.196      1.888      2.244
REMARK INTER + INTRA:         -11.508
REMARK INTER:                 -10.682
REMARK INTRA:                  -0.826
REMARK UNBOUND:                -1.157
REMARK  Name = 
REMARK  8 active torsions:
REMARK  status: ('A' for Active; 'I' for Inactive)
REMARK    1  A    between atoms: C_2  and  C_21
REMARK    2  A    between atoms: N_3  and  C_4
REMARK    3  A    between atoms: C_4  and  C_5
REMARK    4  A    between atoms: C_8  and  C_9
REMARK    5  A    between atoms: C_9  and  C_10
REMARK    6  A    between atoms: C_10  and  O_11
REMARK    7  A    between atoms: C_10  and  C_12
REMARK    8  A    between atoms: C_12  and  C_13
REMARK                            x       y       z     vdW  Elec       q    Type
REMARK                         _______ _______ _______ _____ _____    ______ ____
ROOT
ATOM      1  C   UNL     1      46.070   7.171  12.644  0.00  0.00    +0.000 A 
ATOM      2  C   UNL     1      45.982   6.865  11.287  0.00  0.00    +0.000 A 
ATOM      3  C   UNL     1      45.716   5.560  10.882  0.00  0.00    +0.000 A 
ATOM      4  C   UNL     1      45.517   4.584  11.849  0.00  0.00    +0.000 A 
ATOM      5  N   UNL     1      45.527   4.871  13.175  0.00  0.00    +0.000 NA
ATOM      6  C   UNL     1      45.811   6.145  13.543  0.00  0.00    +0.000 A 
ENDROOT
BRANCH   1   7
ATOM      7  C   UNL     1      46.413   8.557  13.107  0.00  0.00    +0.000 C 
BRANCH   7  10
ATOM      8  O   UNL     1      48.986   9.499  13.771  0.00  0.00    +0.000 OA
ATOM      9  C   UNL     1      48.254   9.076  14.662  0.00  0.00    +0.000 C 
ATOM     10  N   UNL     1      47.012   8.551  14.414  0.00  0.00    +0.000 N 
ATOM     11  H   UNL     1      46.387   8.380  15.192  0.00  0.00    +0.000 HD
BRANCH   9  12
ATOM     12  C   UNL     1      48.680   9.060  16.062  0.00  0.00    +0.000 A 
ATOM     13  C   UNL     1      48.850  10.251  16.757  0.00  0.00    +0.000 A 
ATOM     14  S   UNL     1      49.343  10.026  18.375  0.00  0.00    +0.000 S 
ATOM     15  C   UNL     1      49.309   8.332  18.209  0.00  0.00    +0.000 A 
ATOM     16  N   UNL     1      49.597   7.519  19.262  0.00  0.00    +0.000 NA
ATOM     17  C   UNL     1      49.490   6.257  19.006  0.00  0.00    +0.000 A 
ATOM     18  N   UNL     1      49.131   5.735  17.790  0.00  0.00    +0.000 N 
ATOM     19  C   UNL     1      48.906   6.513  16.682  0.00  0.00    +0.000 A 
ATOM     20  O   UNL     1      48.726   6.009  15.581  0.00  0.00    +0.000 OA
ATOM     21  C   UNL     1      48.961   7.942  16.932  0.00  0.00    +0.000 A 
ATOM     22  H   UNL     1      49.099   4.736  17.643  0.00  0.00    +0.000 HD
ENDBRANCH   9  12
ENDBRANCH   7  10
ENDBRANCH   1   7
BRANCH   4  23
ATOM     23  C   UNL     1      45.255   3.145  11.466  0.00  0.00    +0.000 C 
BRANCH  23  24
ATOM     24  C   UNL     1      44.049   2.941  10.528  0.00  0.00    +0.000 C 
BRANCH  24  25
ATOM     25  O   UNL     1      42.864   3.483  11.126  0.00  0.00    +0.000 OA
ATOM     26  H   UNL     1      42.825   3.158  12.045  0.00  0.00    +0.000 HD
ENDBRANCH  24  25
BRANCH  24  27
ATOM     27  C   UNL     1      44.254   3.522   9.122  0.00  0.00    +0.000 C 
BRANCH  27  28
ATOM     28  C   UNL     1      45.392   2.844   8.389  0.00  0.00    +0.000 A 
ATOM     29  C   UNL     1      46.239   3.589   7.569  0.00  0.00    +0.000 A 
ATOM     30  C   UNL     1      47.270   2.943   6.893  0.00  0.00    +0.000 A 
ATOM     31  C   UNL     1      47.425   1.573   7.048  0.00  0.00    +0.000 A 
ATOM     32  C   UNL     1      46.538   0.905   7.878  0.00  0.00    +0.000 A 
ATOM     33  N   UNL     1      45.531   1.506   8.554  0.00  0.00    +0.000 NA
ENDBRANCH  27  28
ENDBRANCH  24  27
ENDBRANCH  23  24
ENDBRANCH   4  23
TORSDOF 8
ENDMDL
MODEL 9
REMARK VINA RESULT:    -6.963      3.162      7.933
REMARK INTER + INTRA:         -11.174
REMARK INTER:                  -9.885
REMARK INTRA:                  -1.289
REMARK UNBOUND:                -1.157
REMARK  Name = 
REMARK  8 active torsions:
REMARK  status: ('A' for Active; 'I' for Inactive)
REMARK    1  A    between atoms: C_2  and  C_21
REMARK    2  A    between atoms: N_3  and  C_4
REMARK    3  A    between atoms: C_4  and  C_5
REMARK    4  A    between atoms: C_8  and  C_9
REMARK    5  A    between atoms: C_9  and  C_10
REMARK    6  A    between atoms: C_10  and  O_11
REMARK    7  A    between atoms: C_10  and  C_12
REMARK    8  A    between atoms: C_12  and  C_13
REMARK                            x       y       z     vdW  Elec       q    Type
REMARK                         _______ _______ _______ _____ _____    ______ ____
ROOT
ATOM      1  C   UNL     1      48.995   7.646  13.297  0.00  0.00    +0.000 A 
ATOM      2  C   UNL     1      50.038   8.411  13.816  0.00  0.00    +0.000 A 
ATOM      3  C   UNL     1      50.531   8.146  15.091  0.00  0.00    +0.000 A 
ATOM      4  C   UNL     1      49.982   7.098  15.818  0.00  0.00    +0.000 A 
ATOM      5  N   UNL     1      49.015   6.295  15.307  0.00  0.00    +0.000 NA
ATOM      6  C   UNL     1      48.538   6.589  14.073  0.00  0.00    +0.000 A 
ENDROOT
BRANCH   1   7
ATOM      7  C   UNL     1      48.406   7.947  11.950  0.00  0.00    +0.000 C 
BRANCH   7  10
ATOM      8  O   UNL     1      45.595   7.855  11.756  0.00  0.00    +0.000 OA
ATOM      9  C   UNL     1      46.256   6.906  11.344  0.00  0.00    +0.000 C 
ATOM     10  N   UNL     1      47.621   6.850  11.451  0.00  0.00    +0.000 N 
ATOM     11  H   UNL     1      48.125   6.133  10.944  0.00  0.00    +0.000 HD
BRANCH   9  12
ATOM     12  C   UNL     1      45.620   5.732  10.743  0.00  0.00    +0.000 A 
ATOM     13  C   UNL     1      45.789   5.458   9.391  0.00  0.00    +0.000 A 
ATOM     14  S   UNL     1      44.977   4.046   8.880  0.00  0.00    +0.000 S 
ATOM     15  C   UNL     1      44.406   3.738  10.453  0.00  0.00    +0.000 A 
ATOM     16  N   UNL     1      43.658   2.633  10.724  0.00  0.00    +0.000 NA
ATOM     17  C   UNL     1      43.330   2.502  11.966  0.00  0.00    +0.000 A 
ATOM     18  N   UNL     1      43.672   3.381  12.961  0.00  0.00    +0.000 N 
ATOM     19  C   UNL     1      44.358   4.546  12.723  0.00  0.00    +0.000 A 
ATOM     20  O   UNL     1      44.524   5.374  13.608  0.00  0.00    +0.000 OA
ATOM     21  C   UNL     1      44.798   4.712  11.349  0.00  0.00    +0.000 A 
ATOM     22  H   UNL     1      43.354   3.241  13.910  0.00  0.00    +0.000 HD
ENDBRANCH   9  12
ENDBRANCH   7  10
ENDBRANCH   1   7
BRANCH   4  23
ATOM     23  C   UNL     1      50.457   6.785  17.219  0.00  0.00    +0.000 C 
BRANCH  23  24
ATOM     24  C   UNL     1      49.383   6.955  18.313  0.00  0.00    +0.000 C 
BRANCH  24  25
ATOM     25  O   UNL     1      48.155   7.408  17.728  0.00  0.00    +0.000 OA
ATOM     26  H   UNL     1      48.321   8.291  17.346  0.00  0.00    +0.000 HD
ENDBRANCH  24  25
BRANCH  24  27
ATOM     27  C   UNL     1      49.146   5.690  19.148  0.00  0.00    +0.000 C 
BRANCH  27  28
ATOM     28  C   UNL     1      49.088   4.446  18.288  0.00  0.00    +0.000 A 
ATOM     29  C   UNL     1      47.883   4.051  17.708  0.00  0.00    +0.000 A 
ATOM     30  C   UNL     1      47.850   2.894  16.934  0.00  0.00    +0.000 A 
ATOM     31  C   UNL     1      49.016   2.162  16.763  0.00  0.00    +0.000 A 
ATOM     32  C   UNL     1      50.171   2.620  17.378  0.00  0.00    +0.000 A 
ATOM     33  N   UNL     1      50.236   3.744  18.129  0.00  0.00    +0.000 NA
ENDBRANCH  27  28
ENDBRANCH  24  27
ENDBRANCH  23  24
ENDBRANCH   4  23
TORSDOF 8
ENDMDL
