MODEL 1
REMARK VINA RESULT:    -7.378      0.000      0.000
REMARK INTER + INTRA:          -9.064
REMARK INTER:                  -8.888
REMARK INTRA:                  -0.177
REMARK UNBOUND:                -0.177
REMARK  Name = 
REMARK  4 active torsions:
REMARK  status: ('A' for Active; 'I' for Inactive)
REMARK    1  A    between atoms: N_1  and  C_2
REMARK    2  A    between atoms: C_2  and  C_3
REMARK    3  A    between atoms: C_6  and  C_7
REMARK    4  A    between atoms: C_7  and  N_8
REMARK                            x       y       z     vdW  Elec       q    Type
REMARK                         _______ _______ _______ _____ _____    ______ ____
ROOT
ATOM      1  C   UNL     1      46.583   2.742   6.873  0.00  0.00    +0.000 A 
ATOM      2  C   UNL     1      46.049   3.975   7.273  0.00  0.00    +0.000 A 
ATOM      3  C   UNL     1      45.267   4.075   8.427  0.00  0.00    +0.000 A 
ATOM      4  C   UNL     1      45.012   2.945   9.215  0.00  0.00    +0.000 A 
ATOM      5  C   UNL     1      45.543   1.711   8.815  0.00  0.00    +0.000 A 
ATOM      6  C   UNL     1      46.322   1.610   7.660  0.00  0.00    +0.000 A 
ENDROOT
BRANCH   1   7
ATOM      7  C   UNL     1      47.393   2.630   5.607  0.00  0.00    +0.000 C 
BRANCH   7   8
ATOM      8  N   UNL     1      48.526   1.726   5.761  0.00  0.00    +0.000 NA
ATOM      9  H   UNL     1      49.114   2.054   6.523  0.00  0.00    +0.000 HD
ATOM     10  H   UNL     1      49.095   1.772   4.917  0.00  0.00    +0.000 HD
ENDBRANCH   7   8
ENDBRANCH   1   7
BRANCH   4  11
ATOM     11  C   UNL     1      44.178   3.052  10.470  0.00  0.00    +0.000 C 
BRANCH  11  12
ATOM     12  N   UNL     1      45.019   2.851  11.645  0.00  0.00    +0.000 N 
ATOM     13  C   UNL     1      45.509   4.050  12.190  0.00  0.00    +0.000 A 
ATOM     14  C   UNL     1      46.317   3.984  13.322  0.00  0.00    +0.000 A 
ATOM     15  C   UNL     1      46.808   5.161  13.888  0.00  0.00    +0.000 A 
ATOM     16  C   UNL     1      46.480   6.378  13.309  0.00  0.00    +0.000 A 
ATOM     17  C   UNL     1      45.663   6.362  12.195  0.00  0.00    +0.000 A 
ATOM     18  N   UNL     1      45.174   5.234  11.635  0.00  0.00    +0.000 NA
ATOM     19  H   UNL     1      45.798   2.230  11.449  0.00  0.00    +0.000 HD
ENDBRANCH  11  12
ENDBRANCH   4  11
TORSDOF 4
ENDMDL
MODEL 2
REMARK VINA RESULT:    -7.136      1.823      6.209
REMARK INTER + INTRA:          -8.773
REMARK INTER:                  -8.535
REMARK INTRA:                  -0.238
REMARK UNBOUND:                -0.177
REMARK  Name = 
REMARK  4 active torsions:
REMARK  status: ('A' for Active; 'I' for Inactive)
REMARK    1  A    between atoms: N_1  and  C_2
REMARK    2  A    between atoms: C_2  and  C_3
REMARK    3  A    between atoms: C_6  and  C_7
REMARK    4  A    between atoms: C_7  and  N_8
REMARK                            x       y       z     vdW  Elec       q    Type
REMARK                         _______ _______ _______ _____ _____    ______ ____
ROOT
ATOM      1  C   UNL     1      46.448   4.915  13.182  0.00  0.00    +0.000 A 
ATOM      2  C   UNL     1      45.799   3.682  13.025  0.00  0.00    +0.000 A 
ATOM      3  C   UNL     1      45.049   3.411  11.878  0.00  0.00    +0.000 A 
ATOM      4  C   UNL     1      44.940   4.363  10.856  0.00  0.00    +0.000 A 
ATOM      5  C   UNL     1      45.585   5.597  11.014  0.00  0.00    +0.000 A 
ATOM      6  C   UNL     1      46.333   5.870  12.161  0.00  0.00    +0.000 A 
ENDROOT
BRANCH   1   7
ATOM      7  C   UNL     1      47.224   5.220  14.438  0.00  0.00    +0.000 C 
BRANCH   7   8
ATOM      8  N   UNL     1      46.822   4.366  15.549  0.00  0.00    +0.000 NA
ATOM      9  H   UNL     1      47.429   4.545  16.345  0.00  0.00    +0.000 HD
ATOM     10  H   UNL     1      46.974   3.394  15.283  0.00  0.00    +0.000 HD
ENDBRANCH   7   8
ENDBRANCH   1   7
BRANCH   4  11
ATOM     11  C   UNL     1      44.139   4.068   9.610  0.00  0.00    +0.000 C 
BRANCH  11  12
ATOM     12  N   UNL     1      44.916   4.418   8.425  0.00  0.00    +0.000 N 
ATOM     13  C   UNL     1      45.687   3.351   7.931  0.00  0.00    +0.000 A 
ATOM     14  C   UNL     1      46.464   3.563   6.795  0.00  0.00    +0.000 A 
ATOM     15  C   UNL     1      47.230   2.517   6.278  0.00  0.00    +0.000 A 
ATOM     16  C   UNL     1      47.201   1.282   6.909  0.00  0.00    +0.000 A 
ATOM     17  C   UNL     1      46.395   1.147   8.023  0.00  0.00    +0.000 A 
ATOM     18  N   UNL     1      45.643   2.145   8.536  0.00  0.00    +0.000 NA
ATOM     19  H   UNL     1      45.520   5.216   8.593  0.00  0.00    +0.000 HD
ENDBRANCH  11  12
ENDBRANCH   4  11
TORSDOF 4
ENDMDL
MODEL 3
REMARK VINA RESULT:    -7.020      1.743      6.012
REMARK INTER + INTRA:          -8.633
REMARK INTER:                  -8.395
REMARK INTRA:                  -0.239
REMARK UNBOUND:                -0.177
REMARK  Name = 
REMARK  4 active torsions:
REMARK  status: ('A' for Active; 'I' for Inactive)
REMARK    1  A    between atoms: N_1  and  C_2
REMARK    2  A    between atoms: C_2  and  C_3
REMARK    3  A    between atoms: C_6  and  C_7
REMARK    4  A    between atoms: C_7  and  N_8
REMARK                            x       y       z     vdW  Elec       q    Type
REMARK                         _______ _______ _______ _____ _____    ______ ____
ROOT
ATOM      1  C   UNL     1      46.443   5.758  12.729  0.00  0.00    +0.000 A 
ATOM      2  C   UNL     1      46.014   4.471  13.082  0.00  0.00    +0.000 A 
ATOM      3  C   UNL     1      45.272   3.694  12.188  0.00  0.00    +0.000 A 
ATOM      4  C   UNL     1      44.952   4.183  10.915  0.00  0.00    +0.000 A 
ATOM      5  C   UNL     1      45.378   5.471  10.562  0.00  0.00    +0.000 A 
ATOM      6  C   UNL     1      46.117   6.249  11.456  0.00  0.00    +0.000 A 
ENDROOT
BRANCH   1   7
ATOM      7  C   UNL     1      47.209   6.608  13.710  0.00  0.00    +0.000 C 
BRANCH   7   8
ATOM      8  N   UNL     1      47.865   5.805  14.734  0.00  0.00    +0.000 NA
ATOM      9  H   UNL     1      47.890   6.329  15.605  0.00  0.00    +0.000 HD
ATOM     10  H   UNL     1      48.834   5.655  14.459  0.00  0.00    +0.000 HD
ENDBRANCH   7   8
ENDBRANCH   1   7
BRANCH   4  11
ATOM     11  C   UNL     1      44.161   3.342   9.942  0.00  0.00    +0.000 C 
BRANCH  11  12
ATOM     12  N   UNL     1      44.900   2.125   9.620  0.00  0.00    +0.000 N 
ATOM     13  C   UNL     1      45.660   2.232   8.443  0.00  0.00    +0.000 A 
ATOM     14  C   UNL     1      46.417   1.135   8.039  0.00  0.00    +0.000 A 
ATOM     15  C   UNL     1      47.188   1.219   6.879  0.00  0.00    +0.000 A 
ATOM     16  C   UNL     1      47.184   2.398   6.148  0.00  0.00    +0.000 A 
ATOM     17  C   UNL     1      46.417   3.445   6.620  0.00  0.00    +0.000 A 
ATOM     18  N   UNL     1      45.668   3.386   7.743  0.00  0.00    +0.000 NA
ATOM     19  H   UNL     1      44.287   1.319   9.551  0.00  0.00    +0.000 HD
ENDBRANCH  11  12
ENDBRANCH   4  11
TORSDOF 4
ENDMDL
MODEL 4
REMARK VINA RESULT:    -6.376      2.204      6.494
REMARK INTER + INTRA:          -7.858
REMARK INTER:                  -7.558
REMARK INTRA:                  -0.300
REMARK UNBOUND:                -0.177
REMARK  Name = 
REMARK  4 active torsions:
REMARK  status: ('A' for Active; 'I' for Inactive)
REMARK    1  A    between atoms: N_1  and  C_2
REMARK    2  A    between atoms: C_2  and  C_3
REMARK    3  A    between atoms: C_6  and  C_7
REMARK    4  A    between atoms: C_7  and  N_8
REMARK                            x       y       z     vdW  Elec       q    Type
REMARK                         _______ _______ _______ _____ _____    ______ ____
ROOT
ATOM      1  C   UNL     1      45.451   7.342  12.174  0.00  0.00    +0.000 A 
ATOM      2  C   UNL     1      44.127   6.885  12.117  0.00  0.00    +0.000 A 
ATOM      3  C   UNL     1      43.767   5.842  11.259  0.00  0.00    +0.000 A 
ATOM      4  C   UNL     1      44.727   5.225  10.446  0.00  0.00    +0.000 A 
ATOM      5  C   UNL     1      46.051   5.684  10.500  0.00  0.00    +0.000 A 
ATOM      6  C   UNL     1      46.409   6.727  11.356  0.00  0.00    +0.000 A 
ENDROOT
BRANCH   1   7
ATOM      7  C   UNL     1      45.828   8.493  13.072  0.00  0.00    +0.000 C 
BRANCH   7   8
ATOM      8  N   UNL     1      44.871   9.589  12.986  0.00  0.00    +0.000 NA
ATOM      9  H   UNL     1      43.969   9.275  13.335  0.00  0.00    +0.000 HD
ATOM     10  H   UNL     1      44.734   9.824  12.003  0.00  0.00    +0.000 HD
ENDBRANCH   7   8
ENDBRANCH   1   7
BRANCH   4  11
ATOM     11  C   UNL     1      44.344   4.090   9.526  0.00  0.00    +0.000 C 
BRANCH  11  12
ATOM     12  N   UNL     1      44.937   4.296   8.209  0.00  0.00    +0.000 N 
ATOM     13  C   UNL     1      45.699   3.202   7.765  0.00  0.00    +0.000 A 
ATOM     14  C   UNL     1      46.307   3.278   6.514  0.00  0.00    +0.000 A 
ATOM     15  C   UNL     1      47.060   2.201   6.046  0.00  0.00    +0.000 A 
ATOM     16  C   UNL     1      47.188   1.070   6.839  0.00  0.00    +0.000 A 
ATOM     17  C   UNL     1      46.545   1.065   8.062  0.00  0.00    +0.000 A 
ATOM     18  N   UNL     1      45.808   2.095   8.530  0.00  0.00    +0.000 NA
ATOM     19  H   UNL     1      45.509   5.135   8.180  0.00  0.00    +0.000 HD
ENDBRANCH  11  12
ENDBRANCH   4  11
TORSDOF 4
ENDMDL
MODEL 5
REMARK VINA RESULT:    -6.018      3.285      4.972
REMARK INTER + INTRA:          -7.426
REMARK INTER:                  -7.178
REMARK INTRA:                  -0.249
REMARK UNBOUND:                -0.177
REMARK  Name = 
REMARK  4 active torsions:
REMARK  status: ('A' for Active; 'I' for Inactive)
REMARK    1  A    between atoms: N_1  and  C_2
REMARK    2  A    between atoms: C_2  and  C_3
REMARK    3  A    between atoms: C_6  and  C_7
REMARK    4  A    between atoms: C_7  and  N_8
REMARK                            x       y       z     vdW  Elec       q    Type
REMARK                         _______ _______ _______ _____ _____    ______ ____
ROOT
ATOM      1  C   UNL     1      44.973   4.469  10.572  0.00  0.00    +0.000 A 
ATOM      2  C   UNL     1      45.656   5.681  10.748  0.00  0.00    +0.000 A 
ATOM      3  C   UNL     1      46.311   5.964  11.950  0.00  0.00    +0.000 A 
ATOM      4  C   UNL     1      46.307   5.037  12.999  0.00  0.00    +0.000 A 
ATOM      5  C   UNL     1      45.622   3.826  12.826  0.00  0.00    +0.000 A 
ATOM      6  C   UNL     1      44.965   3.544  11.626  0.00  0.00    +0.000 A 
ENDROOT
BRANCH   1   7
ATOM      7  C   UNL     1      44.235   4.183   9.290  0.00  0.00    +0.000 C 
BRANCH   7   8
ATOM      8  N   UNL     1      45.073   4.401   8.117  0.00  0.00    +0.000 NA
ATOM      9  H   UNL     1      45.314   3.502   7.707  0.00  0.00    +0.000 HD
ATOM     10  H   UNL     1      45.949   4.826   8.418  0.00  0.00    +0.000 HD
ENDBRANCH   7   8
ENDBRANCH   1   7
BRANCH   4  11
ATOM     11  C   UNL     1      47.024   5.335  14.295  0.00  0.00    +0.000 C 
BRANCH  11  12
ATOM     12  N   UNL     1      46.690   4.323  15.292  0.00  0.00    +0.000 N 
ATOM     13  C   UNL     1      47.644   4.216  16.318  0.00  0.00    +0.000 A 
ATOM     14  C   UNL     1      47.427   3.289  17.335  0.00  0.00    +0.000 A 
ATOM     15  C   UNL     1      48.355   3.172  18.370  0.00  0.00    +0.000 A 
ATOM     16  C   UNL     1      49.479   3.984  18.366  0.00  0.00    +0.000 A 
ATOM     17  C   UNL     1      49.618   4.887  17.331  0.00  0.00    +0.000 A 
ATOM     18  N   UNL     1      48.729   5.020  16.322  0.00  0.00    +0.000 NA
ATOM     19  H   UNL     1      46.549   3.410  14.871  0.00  0.00    +0.000 HD
ENDBRANCH  11  12
ENDBRANCH   4  11
TORSDOF 4
ENDMDL
MODEL 6
REMARK VINA RESULT:    -5.693      4.129      8.349
REMARK INTER + INTRA:          -7.035
REMARK INTER:                  -6.805
REMARK INTRA:                  -0.230
REMARK UNBOUND:                -0.177
REMARK  Name = 
REMARK  4 active torsions:
REMARK  status: ('A' for Active; 'I' for Inactive)
REMARK    1  A    between atoms: N_1  and  C_2
REMARK    2  A    between atoms: C_2  and  C_3
REMARK    3  A    between atoms: C_6  and  C_7
REMARK    4  A    between atoms: C_7  and  N_8
REMARK                            x       y       z     vdW  Elec       q    Type
REMARK                         _______ _______ _______ _____ _____    ______ ____
ROOT
ATOM      1  C   UNL     1      48.586   4.560  18.509  0.00  0.00    +0.000 A 
ATOM      2  C   UNL     1      48.608   5.623  17.596  0.00  0.00    +0.000 A 
ATOM      3  C   UNL     1      48.123   5.459  16.295  0.00  0.00    +0.000 A 
ATOM      4  C   UNL     1      47.595   4.229  15.882  0.00  0.00    +0.000 A 
ATOM      5  C   UNL     1      47.575   3.164  16.794  0.00  0.00    +0.000 A 
ATOM      6  C   UNL     1      48.062   3.327  18.092  0.00  0.00    +0.000 A 
ENDROOT
BRANCH   1   7
ATOM      7  C   UNL     1      49.146   4.729  19.898  0.00  0.00    +0.000 C 
BRANCH   7   8
ATOM      8  N   UNL     1      48.407   3.949  20.884  0.00  0.00    +0.000 NA
ATOM      9  H   UNL     1      47.636   3.473  20.423  0.00  0.00    +0.000 HD
ATOM     10  H   UNL     1      47.990   4.589  21.558  0.00  0.00    +0.000 HD
ENDBRANCH   7   8
ENDBRANCH   1   7
BRANCH   4  11
ATOM     11  C   UNL     1      47.059   4.051  14.481  0.00  0.00    +0.000 C 
BRANCH  11  12
ATOM     12  N   UNL     1      46.192   5.172  14.134  0.00  0.00    +0.000 N 
ATOM     13  C   UNL     1      45.131   4.813  13.285  0.00  0.00    +0.000 A 
ATOM     14  C   UNL     1      44.230   5.800  12.893  0.00  0.00    +0.000 A 
ATOM     15  C   UNL     1      43.162   5.466  12.058  0.00  0.00    +0.000 A 
ATOM     16  C   UNL     1      43.020   4.154  11.634  0.00  0.00    +0.000 A 
ATOM     17  C   UNL     1      43.947   3.230  12.076  0.00  0.00    +0.000 A 
ATOM     18  N   UNL     1      44.984   3.532  12.887  0.00  0.00    +0.000 NA
ATOM     19  H   UNL     1      46.713   5.936  13.714  0.00  0.00    +0.000 HD
ENDBRANCH  11  12
ENDBRANCH   4  11
TORSDOF 4
ENDMDL
MODEL 7
REMARK VINA RESULT:    -5.616      4.706      8.207
REMARK INTER + INTRA:          -6.941
REMARK INTER:                  -6.648
REMARK INTRA:                  -0.294
REMARK UNBOUND:                -0.177
REMARK  Name = 
REMARK  4 active torsions:
REMARK  status: ('A' for Active; 'I' for Inactive)
REMARK    1  A    between atoms: N_1  and  C_2
REMARK    2  A    between atoms: C_2  and  C_3
REMARK    3  A    between atoms: C_6  and  C_7
REMARK    4  A    between atoms: C_7  and  N_8
REMARK                            x       y       z     vdW  Elec       q    Type
REMARK                         _______ _______ _______ _____ _____    ______ ____
ROOT
ATOM      1  C   UNL     1      51.090   2.436  17.463  0.00  0.00    +0.000 A 
ATOM      2  C   UNL     1      50.072   1.683  16.861  0.00  0.00    +0.000 A 
ATOM      3  C   UNL     1      48.850   2.272  16.527  0.00  0.00    +0.000 A 
ATOM      4  C   UNL     1      48.622   3.632  16.776  0.00  0.00    +0.000 A 
ATOM      5  C   UNL     1      49.638   4.385  17.381  0.00  0.00    +0.000 A 
ATOM      6  C   UNL     1      50.859   3.795  17.718  0.00  0.00    +0.000 A 
ENDROOT
BRANCH   1   7
ATOM      7  C   UNL     1      52.393   1.789  17.858  0.00  0.00    +0.000 C 
BRANCH   7   8
ATOM      8  N   UNL     1      52.225   0.377  18.181  0.00  0.00    +0.000 NA
ATOM      9  H   UNL     1      51.244   0.127  18.090  0.00  0.00    +0.000 HD
ATOM     10  H   UNL     1      52.470   0.236  19.160  0.00  0.00    +0.000 HD
ENDBRANCH   7   8
ENDBRANCH   1   7
BRANCH   4  11
ATOM     11  C   UNL     1      47.306   4.274  16.406  0.00  0.00    +0.000 C 
BRANCH  11  12
ATOM     12  N   UNL     1      47.535   5.370  15.469  0.00  0.00    +0.000 N 
ATOM     13  C   UNL     1      46.878   5.196  14.239  0.00  0.00    +0.000 A 
ATOM     14  C   UNL     1      47.014   6.185  13.267  0.00  0.00    +0.000 A 
ATOM     15  C   UNL     1      46.364   6.040  12.041  0.00  0.00    +0.000 A 
ATOM     16  C   UNL     1      45.592   4.911  11.814  0.00  0.00    +0.000 A 
ATOM     17  C   UNL     1      45.496   3.981  12.831  0.00  0.00    +0.000 A 
ATOM     18  N   UNL     1      46.113   4.105  14.026  0.00  0.00    +0.000 NA
ATOM     19  H   UNL     1      48.524   5.522  15.302  0.00  0.00    +0.000 HD
ENDBRANCH  11  12
ENDBRANCH   4  11
TORSDOF 4
ENDMDL
MODEL 8
REMARK VINA RESULT:    -5.602      2.365      6.641
REMARK INTER + INTRA:          -6.925
REMARK INTER:                  -6.617
REMARK INTRA:                  -0.308
REMARK UNBOUND:                -0.177
REMARK  Name = 
REMARK  4 active torsions:
REMARK  status: ('A' for Active; 'I' for Inactive)
REMARK    1  A    between atoms: N_1  and  C_2
REMARK    2  A    between atoms: C_2  and  C_3
REMARK    3  A    between atoms: C_6  and  C_7
REMARK    4  A    between atoms: C_7  and  N_8
REMARK                            x       y       z     vdW  Elec       q    Type
REMARK                         _______ _______ _______ _____ _____    ______ ____
ROOT
ATOM      1  C   UNL     1      48.168   7.666  13.899  0.00  0.00    +0.000 A 
ATOM      2  C   UNL     1      48.122   6.387  13.327  0.00  0.00    +0.000 A 
ATOM      3  C   UNL     1      47.053   6.008  12.511  0.00  0.00    +0.000 A 
ATOM      4  C   UNL     1      46.011   6.903  12.238  0.00  0.00    +0.000 A 
ATOM      5  C   UNL     1      46.054   8.182  12.813  0.00  0.00    +0.000 A 
ATOM      6  C   UNL     1      47.121   8.560  13.631  0.00  0.00    +0.000 A 
ENDROOT
BRANCH   1   7
ATOM      7  C   UNL     1      49.302   8.059  14.811  0.00  0.00    +0.000 C 
BRANCH   7   8
ATOM      8  N   UNL     1      50.349   7.046  14.848  0.00  0.00    +0.000 NA
ATOM      9  H   UNL     1      51.252   7.501  14.953  0.00  0.00    +0.000 HD
ATOM     10  H   UNL     1      50.370   6.567  13.949  0.00  0.00    +0.000 HD
ENDBRANCH   7   8
ENDBRANCH   1   7
BRANCH   4  11
ATOM     11  C   UNL     1      44.860   6.500  11.347  0.00  0.00    +0.000 C 
BRANCH  11  12
ATOM     12  N   UNL     1      45.364   6.084  10.042  0.00  0.00    +0.000 N 
ATOM     13  C   UNL     1      45.095   4.737   9.746  0.00  0.00    +0.000 A 
ATOM     14  C   UNL     1      45.519   4.228   8.521  0.00  0.00    +0.000 A 
ATOM     15  C   UNL     1      45.255   2.896   8.198  0.00  0.00    +0.000 A 
ATOM     16  C   UNL     1      44.571   2.103   9.108  0.00  0.00    +0.000 A 
ATOM     17  C   UNL     1      44.172   2.684  10.296  0.00  0.00    +0.000 A 
ATOM     18  N   UNL     1      44.413   3.972  10.625  0.00  0.00    +0.000 NA
ATOM     19  H   UNL     1      46.361   6.253   9.952  0.00  0.00    +0.000 HD
ENDBRANCH  11  12
ENDBRANCH   4  11
TORSDOF 4
ENDMDL
MODEL 9
REMARK VINA RESULT:    -5.063      3.381      5.568
REMARK INTER + INTRA:          -6.275
REMARK INTER:                  -6.009
REMARK INTRA:                  -0.266
REMARK UNBOUND:                -0.177
REMARK  Name = 
REMARK  4 active torsions:
REMARK  status: ('A' for Active; 'I' for Inactive)
REMARK    1  A    between atoms: N_1  and  C_2
REMARK    2  A    between atoms: C_2  and  C_3
REMARK    3  A    between atoms: C_6  and  C_7
REMARK    4  A    between atoms: C_7  and  N_8
REMARK                            x       y       z     vdW  Elec       q    Type
REMARK                         _______ _______ _______ _____ _____    ______ ____
ROOT
ATOM      1  C   UNL     1      44.894   4.314  11.301  0.00  0.00    +0.000 A 
ATOM      2  C   UNL     1      45.445   5.456  10.703  0.00  0.00    +0.000 A 
ATOM      3  C   UNL     1      46.280   6.310  11.428  0.00  0.00    +0.000 A 
ATOM      4  C   UNL     1      46.592   6.035  12.766  0.00  0.00    +0.000 A 
ATOM      5  C   UNL     1      46.039   4.895  13.366  0.00  0.00    +0.000 A 
ATOM      6  C   UNL     1      45.202   4.043  12.642  0.00  0.00    +0.000 A 
ENDROOT
BRANCH   1   7
ATOM      7  C   UNL     1      43.963   3.416  10.527  0.00  0.00    +0.000 C 
BRANCH   7   8
ATOM      8  N   UNL     1      43.393   2.368  11.366  0.00  0.00    +0.000 NA
ATOM      9  H   UNL     1      43.731   2.481  12.318  0.00  0.00    +0.000 HD
ATOM     10  H   UNL     1      43.740   1.467  11.040  0.00  0.00    +0.000 HD
ENDBRANCH   7   8
ENDBRANCH   1   7
BRANCH   4  11
ATOM     11  C   UNL     1      47.503   6.950  13.549  0.00  0.00    +0.000 C 
BRANCH  11  12
ATOM     12  N   UNL     1      47.778   6.374  14.861  0.00  0.00    +0.000 N 
ATOM     13  C   UNL     1      49.077   6.642  15.326  0.00  0.00    +0.000 A 
ATOM     14  C   UNL     1      49.451   6.151  16.574  0.00  0.00    +0.000 A 
ATOM     15  C   UNL     1      50.732   6.413  17.062  0.00  0.00    +0.000 A 
ATOM     16  C   UNL     1      51.610   7.160  16.291  0.00  0.00    +0.000 A 
ATOM     17  C   UNL     1      51.160   7.623  15.070  0.00  0.00    +0.000 A 
ATOM     18  N   UNL     1      49.924   7.385  14.582  0.00  0.00    +0.000 NA
ATOM     19  H   UNL     1      47.619   5.371  14.873  0.00  0.00    +0.000 HD
ENDBRANCH  11  12
ENDBRANCH   4  11
TORSDOF 4
ENDMDL
