MODEL 1
REMARK VINA RESULT:    -7.755      0.000      0.000
REMARK INTER + INTRA:         -10.831
REMARK INTER:                 -10.249
REMARK INTRA:                  -0.582
REMARK UNBOUND:                -0.582
REMARK  Name = 
REMARK  6 active torsions:
REMARK  status: ('A' for Active; 'I' for Inactive)
REMARK    1  A    between atoms: N_1  and  C_2
REMARK    2  A    between atoms: C_2  and  C_3
REMARK    3  A    between atoms: C_7  and  C_8
REMARK    4  A    between atoms: C_8  and  C_9
REMARK    5  A    between atoms: C_9  and  N_10
REMARK    6  A    between atoms: C_15  and  C_16
REMARK                            x       y       z     vdW  Elec       q    Type
REMARK                         _______ _______ _______ _____ _____    ______ ____
ROOT
ATOM      1  N   UNL     1      44.092   3.309  12.691  0.00  0.00    +0.000 N 
ATOM      2  C   UNL     1      44.977   4.363  12.887  0.00  0.00    +0.000 A 
ATOM      3  N   UNL     1      46.059   4.083  13.626  0.00  0.00    +0.000 NA
ATOM      4  C   UNL     1      46.937   5.083  13.848  0.00  0.00    +0.000 A 
ATOM      5  C   UNL     1      46.782   6.347  13.348  0.00  0.00    +0.000 A 
ATOM      6  C   UNL     1      45.647   6.527  12.599  0.00  0.00    +0.000 A 
ATOM      7  N   UNL     1      44.729   5.561  12.353  0.00  0.00    +0.000 NA
ATOM      8  H   UNL     1      44.618   2.463  12.891  0.00  0.00    +0.000 HD
ENDROOT
BRANCH   6   9
ATOM      9  C   UNL     1      45.368   7.868  11.998  0.00  0.00    +0.000 C 
ATOM     10  N   UNL     1      44.181   7.979  11.327  0.00  0.00    +0.000 N 
ATOM     11  O   UNL     1      46.148   8.806  12.094  0.00  0.00    +0.000 OA
ATOM     12  H   UNL     1      43.546   7.189  11.290  0.00  0.00    +0.000 HD
ATOM     13  H   UNL     1      43.918   8.867  10.924  0.00  0.00    +0.000 HD
ENDBRANCH   6   9
BRANCH   1  14
ATOM     14  C   UNL     1      43.397   3.339  11.414  0.00  0.00    +0.000 C 
BRANCH  14  15
ATOM     15  C   UNL     1      43.869   2.191  10.512  0.00  0.00    +0.000 C 
BRANCH  15  20
ATOM     16  C   UNL     1      46.463   2.223   7.704  0.00  0.00    +0.000 A 
ATOM     17  C   UNL     1      46.516   3.593   7.413  0.00  0.00    +0.000 A 
ATOM     18  C   UNL     1      45.756   4.506   8.144  0.00  0.00    +0.000 A 
ATOM     19  C   UNL     1      44.918   4.059   9.165  0.00  0.00    +0.000 A 
ATOM     20  C   UNL     1      44.845   2.696   9.474  0.00  0.00    +0.000 A 
ATOM     21  C   UNL     1      45.629   1.787   8.746  0.00  0.00    +0.000 A 
BRANCH  16  22
ATOM     22  C   UNL     1      47.236   1.229   6.873  0.00  0.00    +0.000 C 
BRANCH  22  23
ATOM     23  N   UNL     1      48.380   1.840   6.208  0.00  0.00    +0.000 NA
ATOM     24  H   UNL     1      48.344   2.848   6.345  0.00  0.00    +0.000 HD
ATOM     25  H   UNL     1      48.297   1.681   5.205  0.00  0.00    +0.000 HD
ENDBRANCH  22  23
ENDBRANCH  16  22
ENDBRANCH  15  20
ENDBRANCH  14  15
ENDBRANCH   1  14
TORSDOF 6
ENDMDL
MODEL 2
REMARK VINA RESULT:    -7.065      1.621      2.183
REMARK INTER + INTRA:          -9.919
REMARK INTER:                  -9.566
REMARK INTRA:                  -0.353
REMARK UNBOUND:                -0.582
REMARK  Name = 
REMARK  6 active torsions:
REMARK  status: ('A' for Active; 'I' for Inactive)
REMARK    1  A    between atoms: N_1  and  C_2
REMARK    2  A    between atoms: C_2  and  C_3
REMARK    3  A    between atoms: C_7  and  C_8
REMARK    4  A    between atoms: C_8  and  C_9
REMARK    5  A    between atoms: C_9  and  N_10
REMARK    6  A    between atoms: C_15  and  C_16
REMARK                            x       y       z     vdW  Elec       q    Type
REMARK                         _______ _______ _______ _____ _____    ______ ____
ROOT
ATOM      1  N   UNL     1      44.904   4.421  11.536  0.00  0.00    +0.000 N 
ATOM      2  C   UNL     1      45.787   4.855  12.517  0.00  0.00    +0.000 A 
ATOM      3  N   UNL     1      46.067   3.968  13.481  0.00  0.00    +0.000 NA
ATOM      4  C   UNL     1      46.913   4.356  14.457  0.00  0.00    +0.000 A 
ATOM      5  C   UNL     1      47.501   5.590  14.500  0.00  0.00    +0.000 A 
ATOM      6  C   UNL     1      47.156   6.420  13.462  0.00  0.00    +0.000 A 
ATOM      7  N   UNL     1      46.305   6.084  12.462  0.00  0.00    +0.000 NA
ATOM      8  H   UNL     1      44.902   3.406  11.592  0.00  0.00    +0.000 HD
ENDROOT
BRANCH   6   9
ATOM      9  C   UNL     1      47.737   7.797  13.399  0.00  0.00    +0.000 C 
ATOM     10  N   UNL     1      47.021   8.769  14.042  0.00  0.00    +0.000 N 
ATOM     11  O   UNL     1      48.781   8.043  12.810  0.00  0.00    +0.000 OA
ATOM     12  H   UNL     1      46.173   8.525  14.542  0.00  0.00    +0.000 HD
ATOM     13  H   UNL     1      47.374   9.715  14.062  0.00  0.00    +0.000 HD
ENDBRANCH   6   9
BRANCH   1  14
ATOM     14  C   UNL     1      45.146   4.985  10.217  0.00  0.00    +0.000 C 
BRANCH  14  15
ATOM     15  C   UNL     1      44.283   4.284   9.160  0.00  0.00    +0.000 C 
BRANCH  15  20
ATOM     16  C   UNL     1      46.621   2.590   6.655  0.00  0.00    +0.000 A 
ATOM     17  C   UNL     1      46.713   1.306   7.210  0.00  0.00    +0.000 A 
ATOM     18  C   UNL     1      45.993   0.974   8.358  0.00  0.00    +0.000 A 
ATOM     19  C   UNL     1      45.184   1.926   8.977  0.00  0.00    +0.000 A 
ATOM     20  C   UNL     1      45.078   3.217   8.444  0.00  0.00    +0.000 A 
ATOM     21  C   UNL     1      45.791   3.535   7.277  0.00  0.00    +0.000 A 
BRANCH  16  22
ATOM     22  C   UNL     1      47.449   2.969   5.453  0.00  0.00    +0.000 C 
BRANCH  22  23
ATOM     23  N   UNL     1      48.459   1.965   5.141  0.00  0.00    +0.000 NA
ATOM     24  H   UNL     1      48.897   2.200   4.253  0.00  0.00    +0.000 HD
ATOM     25  H   UNL     1      47.995   1.067   5.007  0.00  0.00    +0.000 HD
ENDBRANCH  22  23
ENDBRANCH  16  22
ENDBRANCH  15  20
ENDBRANCH  14  15
ENDBRANCH   1  14
TORSDOF 6
ENDMDL
MODEL 3
REMARK VINA RESULT:    -6.750      1.459      2.196
REMARK INTER + INTRA:          -9.502
REMARK INTER:                  -9.276
REMARK INTRA:                  -0.226
REMARK UNBOUND:                -0.582
REMARK  Name = 
REMARK  6 active torsions:
REMARK  status: ('A' for Active; 'I' for Inactive)
REMARK    1  A    between atoms: N_1  and  C_2
REMARK    2  A    between atoms: C_2  and  C_3
REMARK    3  A    between atoms: C_7  and  C_8
REMARK    4  A    between atoms: C_8  and  C_9
REMARK    5  A    between atoms: C_9  and  N_10
REMARK    6  A    between atoms: C_15  and  C_16
REMARK                            x       y       z     vdW  Elec       q    Type
REMARK                         _______ _______ _______ _____ _____    ______ ____
ROOT
ATOM      1  N   UNL     1      45.004   4.931  11.905  0.00  0.00    +0.000 N 
ATOM      2  C   UNL     1      45.402   6.237  12.162  0.00  0.00    +0.000 A 
ATOM      3  N   UNL     1      46.534   6.372  12.865  0.00  0.00    +0.000 NA
ATOM      4  C   UNL     1      46.949   7.625  13.145  0.00  0.00    +0.000 A 
ATOM      5  C   UNL     1      46.285   8.748  12.736  0.00  0.00    +0.000 A 
ATOM      6  C   UNL     1      45.143   8.502  12.016  0.00  0.00    +0.000 A 
ATOM      7  N   UNL     1      44.677   7.266  11.715  0.00  0.00    +0.000 NA
ATOM      8  H   UNL     1      45.830   4.357  12.039  0.00  0.00    +0.000 HD
ENDROOT
BRANCH   6   9
ATOM      9  C   UNL     1      44.329   9.652  11.513  0.00  0.00    +0.000 C 
ATOM     10  N   UNL     1      43.736   9.467  10.294  0.00  0.00    +0.000 N 
ATOM     11  O   UNL     1      44.202  10.693  12.144  0.00  0.00    +0.000 OA
ATOM     12  H   UNL     1      43.840   8.582   9.811  0.00  0.00    +0.000 HD
ATOM     13  H   UNL     1      43.148  10.193   9.911  0.00  0.00    +0.000 HD
ENDBRANCH   6   9
BRANCH   1  14
ATOM     14  C   UNL     1      44.304   4.755  10.641  0.00  0.00    +0.000 C 
BRANCH  14  15
ATOM     15  C   UNL     1      45.242   5.031   9.459  0.00  0.00    +0.000 C 
BRANCH  15  20
ATOM     16  C   UNL     1      46.645   2.621   6.845  0.00  0.00    +0.000 A 
ATOM     17  C   UNL     1      46.317   1.387   7.424  0.00  0.00    +0.000 A 
ATOM     18  C   UNL     1      45.610   1.331   8.625  0.00  0.00    +0.000 A 
ATOM     19  C   UNL     1      45.237   2.507   9.273  0.00  0.00    +0.000 A 
ATOM     20  C   UNL     1      45.556   3.752   8.717  0.00  0.00    +0.000 A 
ATOM     21  C   UNL     1      46.249   3.799   7.498  0.00  0.00    +0.000 A 
BRANCH  16  22
ATOM     22  C   UNL     1      47.464   2.683   5.580  0.00  0.00    +0.000 C 
BRANCH  22  23
ATOM     23  N   UNL     1      48.607   1.780   5.620  0.00  0.00    +0.000 NA
ATOM     24  H   UNL     1      48.635   1.242   4.756  0.00  0.00    +0.000 HD
ATOM     25  H   UNL     1      48.466   1.109   6.374  0.00  0.00    +0.000 HD
ENDBRANCH  22  23
ENDBRANCH  16  22
ENDBRANCH  15  20
ENDBRANCH  14  15
ENDBRANCH   1  14
TORSDOF 6
ENDMDL
MODEL 4
REMARK VINA RESULT:    -6.655      2.753      6.382
REMARK INTER + INTRA:          -9.376
REMARK INTER:                  -8.950
REMARK INTRA:                  -0.426
REMARK UNBOUND:                -0.582
REMARK  Name = 
REMARK  6 active torsions:
REMARK  status: ('A' for Active; 'I' for Inactive)
REMARK    1  A    between atoms: N_1  and  C_2
REMARK    2  A    between atoms: C_2  and  C_3
REMARK    3  A    between atoms: C_7  and  C_8
REMARK    4  A    between atoms: C_8  and  C_9
REMARK    5  A    between atoms: C_9  and  N_10
REMARK    6  A    between atoms: C_15  and  C_16
REMARK                            x       y       z     vdW  Elec       q    Type
REMARK                         _______ _______ _______ _____ _____    ______ ____
ROOT
ATOM      1  N   UNL     1      43.755   3.798  10.098  0.00  0.00    +0.000 N 
ATOM      2  C   UNL     1      44.801   3.677   9.191  0.00  0.00    +0.000 A 
ATOM      3  N   UNL     1      45.257   4.825   8.672  0.00  0.00    +0.000 NA
ATOM      4  C   UNL     1      46.265   4.748   7.779  0.00  0.00    +0.000 A 
ATOM      5  C   UNL     1      46.844   3.570   7.395  0.00  0.00    +0.000 A 
ATOM      6  C   UNL     1      46.311   2.454   7.990  0.00  0.00    +0.000 A 
ATOM      7  N   UNL     1      45.294   2.474   8.886  0.00  0.00    +0.000 NA
ATOM      8  H   UNL     1      43.770   4.765  10.411  0.00  0.00    +0.000 HD
ENDROOT
BRANCH   6   9
ATOM      9  C   UNL     1      46.863   1.106   7.651  0.00  0.00    +0.000 C 
ATOM     10  N   UNL     1      47.967   1.107   6.843  0.00  0.00    +0.000 N 
ATOM     11  O   UNL     1      46.364   0.068   8.066  0.00  0.00    +0.000 OA
ATOM     12  H   UNL     1      48.370   1.986   6.539  0.00  0.00    +0.000 HD
ATOM     13  H   UNL     1      48.407   0.231   6.600  0.00  0.00    +0.000 HD
ENDBRANCH   6   9
BRANCH   1  14
ATOM     14  C   UNL     1      43.750   2.789  11.146  0.00  0.00    +0.000 C 
BRANCH  14  15
ATOM     15  C   UNL     1      43.655   3.445  12.530  0.00  0.00    +0.000 C 
BRANCH  15  20
ATOM     16  C   UNL     1      45.742   6.620  12.950  0.00  0.00    +0.000 A 
ATOM     17  C   UNL     1      46.955   6.079  13.396  0.00  0.00    +0.000 A 
ATOM     18  C   UNL     1      47.116   4.698  13.520  0.00  0.00    +0.000 A 
ATOM     19  C   UNL     1      46.059   3.841  13.214  0.00  0.00    +0.000 A 
ATOM     20  C   UNL     1      44.836   4.358  12.770  0.00  0.00    +0.000 A 
ATOM     21  C   UNL     1      44.691   5.747  12.630  0.00  0.00    +0.000 A 
BRANCH  16  22
ATOM     22  C   UNL     1      45.547   8.114  12.879  0.00  0.00    +0.000 C 
BRANCH  22  23
ATOM     23  N   UNL     1      46.449   8.830  13.772  0.00  0.00    +0.000 NA
ATOM     24  H   UNL     1      45.898   9.376  14.431  0.00  0.00    +0.000 HD
ATOM     25  H   UNL     1      46.989   9.497  13.224  0.00  0.00    +0.000 HD
ENDBRANCH  22  23
ENDBRANCH  16  22
ENDBRANCH  15  20
ENDBRANCH  14  15
ENDBRANCH   1  14
TORSDOF 6
ENDMDL
MODEL 5
REMARK VINA RESULT:    -6.590      4.231      7.588
REMARK INTER + INTRA:          -9.290
REMARK INTER:                  -8.956
REMARK INTRA:                  -0.335
REMARK UNBOUND:                -0.582
REMARK  Name = 
REMARK  6 active torsions:
REMARK  status: ('A' for Active; 'I' for Inactive)
REMARK    1  A    between atoms: N_1  and  C_2
REMARK    2  A    between atoms: C_2  and  C_3
REMARK    3  A    between atoms: C_7  and  C_8
REMARK    4  A    between atoms: C_8  and  C_9
REMARK    5  A    between atoms: C_9  and  N_10
REMARK    6  A    between atoms: C_15  and  C_16
REMARK                            x       y       z     vdW  Elec       q    Type
REMARK                         _______ _______ _______ _____ _____    ______ ____
ROOT
ATOM      1  N   UNL     1      47.082   5.020  14.990  0.00  0.00    +0.000 N 
ATOM      2  C   UNL     1      46.488   5.099  13.736  0.00  0.00    +0.000 A 
ATOM      3  N   UNL     1      46.899   6.111  12.961  0.00  0.00    +0.000 NA
ATOM      4  C   UNL     1      46.339   6.229  11.740  0.00  0.00    +0.000 A 
ATOM      5  C   UNL     1      45.394   5.365  11.258  0.00  0.00    +0.000 A 
ATOM      6  C   UNL     1      45.049   4.359  12.125  0.00  0.00    +0.000 A 
ATOM      7  N   UNL     1      45.573   4.201  13.364  0.00  0.00    +0.000 NA
ATOM      8  H   UNL     1      47.935   5.568  14.929  0.00  0.00    +0.000 HD
ENDROOT
BRANCH   6   9
ATOM      9  C   UNL     1      44.025   3.350  11.710  0.00  0.00    +0.000 C 
ATOM     10  N   UNL     1      43.824   2.319  12.586  0.00  0.00    +0.000 N 
ATOM     11  O   UNL     1      43.407   3.436  10.657  0.00  0.00    +0.000 OA
ATOM     12  H   UNL     1      44.334   2.293  13.462  0.00  0.00    +0.000 HD
ATOM     13  H   UNL     1      43.125   1.620  12.379  0.00  0.00    +0.000 HD
ENDBRANCH   6   9
BRANCH   1  14
ATOM     14  C   UNL     1      47.232   3.665  15.499  0.00  0.00    +0.000 C 
BRANCH  14  15
ATOM     15  C   UNL     1      47.468   3.678  17.015  0.00  0.00    +0.000 C 
BRANCH  15  20
ATOM     16  C   UNL     1      51.114   2.634  17.494  0.00  0.00    +0.000 A 
ATOM     17  C   UNL     1      51.719   3.882  17.701  0.00  0.00    +0.000 A 
ATOM     18  C   UNL     1      50.952   5.048  17.730  0.00  0.00    +0.000 A 
ATOM     19  C   UNL     1      49.573   4.983  17.536  0.00  0.00    +0.000 A 
ATOM     20  C   UNL     1      48.946   3.749  17.323  0.00  0.00    +0.000 A 
ATOM     21  C   UNL     1      49.723   2.580  17.316  0.00  0.00    +0.000 A 
BRANCH  16  22
ATOM     22  C   UNL     1      51.949   1.382  17.398  0.00  0.00    +0.000 C 
BRANCH  22  23
ATOM     23  N   UNL     1      51.376   0.279  18.158  0.00  0.00    +0.000 NA
ATOM     24  H   UNL     1      50.371   0.419  18.239  0.00  0.00    +0.000 HD
ATOM     25  H   UNL     1      51.749   0.306  19.106  0.00  0.00    +0.000 HD
ENDBRANCH  22  23
ENDBRANCH  16  22
ENDBRANCH  15  20
ENDBRANCH  14  15
ENDBRANCH   1  14
TORSDOF 6
ENDMDL
MODEL 6
REMARK VINA RESULT:    -6.512      4.056      7.275
REMARK INTER + INTRA:          -9.188
REMARK INTER:                  -8.829
REMARK INTRA:                  -0.359
REMARK UNBOUND:                -0.582
REMARK  Name = 
REMARK  6 active torsions:
REMARK  status: ('A' for Active; 'I' for Inactive)
REMARK    1  A    between atoms: N_1  and  C_2
REMARK    2  A    between atoms: C_2  and  C_3
REMARK    3  A    between atoms: C_7  and  C_8
REMARK    4  A    between atoms: C_8  and  C_9
REMARK    5  A    between atoms: C_9  and  N_10
REMARK    6  A    between atoms: C_15  and  C_16
REMARK                            x       y       z     vdW  Elec       q    Type
REMARK                         _______ _______ _______ _____ _____    ______ ____
ROOT
ATOM      1  N   UNL     1      47.153   3.502  14.524  0.00  0.00    +0.000 N 
ATOM      2  C   UNL     1      46.314   4.014  13.541  0.00  0.00    +0.000 A 
ATOM      3  N   UNL     1      45.738   3.108  12.740  0.00  0.00    +0.000 NA
ATOM      4  C   UNL     1      44.925   3.566  11.766  0.00  0.00    +0.000 A 
ATOM      5  C   UNL     1      44.653   4.892  11.572  0.00  0.00    +0.000 A 
ATOM      6  C   UNL     1      45.285   5.736  12.450  0.00  0.00    +0.000 A 
ATOM      7  N   UNL     1      46.118   5.330  13.439  0.00  0.00    +0.000 NA
ATOM      8  H   UNL     1      46.902   2.522  14.622  0.00  0.00    +0.000 HD
ENDROOT
BRANCH   6   9
ATOM      9  C   UNL     1      45.065   7.212  12.339  0.00  0.00    +0.000 C 
ATOM     10  N   UNL     1      44.186   7.605  11.368  0.00  0.00    +0.000 N 
ATOM     11  O   UNL     1      45.633   8.017  13.064  0.00  0.00    +0.000 OA
ATOM     12  H   UNL     1      43.712   6.909  10.803  0.00  0.00    +0.000 HD
ATOM     13  H   UNL     1      43.970   8.586  11.260  0.00  0.00    +0.000 HD
ENDBRANCH   6   9
BRANCH   1  14
ATOM     14  C   UNL     1      47.179   4.278  15.754  0.00  0.00    +0.000 C 
BRANCH  14  15
ATOM     15  C   UNL     1      47.542   3.387  16.950  0.00  0.00    +0.000 C 
BRANCH  15  20
ATOM     16  C   UNL     1      51.213   2.472  17.493  0.00  0.00    +0.000 A 
ATOM     17  C   UNL     1      51.771   3.741  17.701  0.00  0.00    +0.000 A 
ATOM     18  C   UNL     1      50.965   4.880  17.709  0.00  0.00    +0.000 A 
ATOM     19  C   UNL     1      49.592   4.767  17.494  0.00  0.00    +0.000 A 
ATOM     20  C   UNL     1      49.011   3.511  17.281  0.00  0.00    +0.000 A 
ATOM     21  C   UNL     1      49.827   2.369  17.294  0.00  0.00    +0.000 A 
BRANCH  16  22
ATOM     22  C   UNL     1      52.092   1.248  17.419  0.00  0.00    +0.000 C 
BRANCH  22  23
ATOM     23  N   UNL     1      51.561   0.141  18.204  0.00  0.00    +0.000 NA
ATOM     24  H   UNL     1      52.282  -0.189  18.842  0.00  0.00    +0.000 HD
ATOM     25  H   UNL     1      51.353  -0.634  17.576  0.00  0.00    +0.000 HD
ENDBRANCH  22  23
ENDBRANCH  16  22
ENDBRANCH  15  20
ENDBRANCH  14  15
ENDBRANCH   1  14
TORSDOF 6
ENDMDL
MODEL 7
REMARK VINA RESULT:    -6.311      3.671      5.585
REMARK INTER + INTRA:          -8.921
REMARK INTER:                  -8.604
REMARK INTRA:                  -0.317
REMARK UNBOUND:                -0.582
REMARK  Name = 
REMARK  6 active torsions:
REMARK  status: ('A' for Active; 'I' for Inactive)
REMARK    1  A    between atoms: N_1  and  C_2
REMARK    2  A    between atoms: C_2  and  C_3
REMARK    3  A    between atoms: C_7  and  C_8
REMARK    4  A    between atoms: C_8  and  C_9
REMARK    5  A    between atoms: C_9  and  N_10
REMARK    6  A    between atoms: C_15  and  C_16
REMARK                            x       y       z     vdW  Elec       q    Type
REMARK                         _______ _______ _______ _____ _____    ______ ____
ROOT
ATOM      1  N   UNL     1      46.444   4.518  15.111  0.00  0.00    +0.000 N 
ATOM      2  C   UNL     1      47.285   4.139  16.151  0.00  0.00    +0.000 A 
ATOM      3  N   UNL     1      46.774   3.255  17.018  0.00  0.00    +0.000 NA
ATOM      4  C   UNL     1      47.556   2.869  18.047  0.00  0.00    +0.000 A 
ATOM      5  C   UNL     1      48.833   3.322  18.235  0.00  0.00    +0.000 A 
ATOM      6  C   UNL     1      49.264   4.216  17.288  0.00  0.00    +0.000 A 
ATOM      7  N   UNL     1      48.518   4.643  16.240  0.00  0.00    +0.000 NA
ATOM      8  H   UNL     1      45.727   3.800  15.057  0.00  0.00    +0.000 HD
ENDROOT
BRANCH   6   9
ATOM      9  C   UNL     1      50.645   4.782  17.385  0.00  0.00    +0.000 C 
ATOM     10  N   UNL     1      51.464   4.183  18.303  0.00  0.00    +0.000 N 
ATOM     11  O   UNL     1      51.023   5.718  16.693  0.00  0.00    +0.000 OA
ATOM     12  H   UNL     1      51.128   3.392  18.841  0.00  0.00    +0.000 HD
ATOM     13  H   UNL     1      52.419   4.497  18.398  0.00  0.00    +0.000 HD
ENDBRANCH   6   9
BRANCH   1  14
ATOM     14  C   UNL     1      47.130   4.828  13.867  0.00  0.00    +0.000 C 
BRANCH  14  15
ATOM     15  C   UNL     1      46.512   6.064  13.200  0.00  0.00    +0.000 C 
BRANCH  15  20
ATOM     16  C   UNL     1      44.326   4.711  10.371  0.00  0.00    +0.000 A 
ATOM     17  C   UNL     1      43.057   4.786  10.962  0.00  0.00    +0.000 A 
ATOM     18  C   UNL     1      42.900   5.309  12.246  0.00  0.00    +0.000 A 
ATOM     19  C   UNL     1      44.012   5.749  12.963  0.00  0.00    +0.000 A 
ATOM     20  C   UNL     1      45.290   5.681  12.396  0.00  0.00    +0.000 A 
ATOM     21  C   UNL     1      45.436   5.173  11.096  0.00  0.00    +0.000 A 
BRANCH  16  22
ATOM     22  C   UNL     1      44.504   4.088   9.009  0.00  0.00    +0.000 C 
BRANCH  22  23
ATOM     23  N   UNL     1      45.544   4.750   8.232  0.00  0.00    +0.000 NA
ATOM     24  H   UNL     1      46.005   5.443   8.818  0.00  0.00    +0.000 HD
ATOM     25  H   UNL     1      45.104   5.264   7.470  0.00  0.00    +0.000 HD
ENDBRANCH  22  23
ENDBRANCH  16  22
ENDBRANCH  15  20
ENDBRANCH  14  15
ENDBRANCH   1  14
TORSDOF 6
ENDMDL
MODEL 8
REMARK VINA RESULT:    -6.118      3.882      7.748
REMARK INTER + INTRA:          -8.666
REMARK INTER:                  -7.813
REMARK INTRA:                  -0.853
REMARK UNBOUND:                -0.582
REMARK  Name = 
REMARK  6 active torsions:
REMARK  status: ('A' for Active; 'I' for Inactive)
REMARK    1  A    between atoms: N_1  and  C_2
REMARK    2  A    between atoms: C_2  and  C_3
REMARK    3  A    between atoms: C_7  and  C_8
REMARK    4  A    between atoms: C_8  and  C_9
REMARK    5  A    between atoms: C_9  and  N_10
REMARK    6  A    between atoms: C_15  and  C_16
REMARK                            x       y       z     vdW  Elec       q    Type
REMARK                         _______ _______ _______ _____ _____    ______ ____
ROOT
ATOM      1  N   UNL     1      47.782   8.087  14.193  0.00  0.00    +0.000 N 
ATOM      2  C   UNL     1      47.055   7.155  13.462  0.00  0.00    +0.000 A 
ATOM      3  N   UNL     1      46.316   7.650  12.461  0.00  0.00    +0.000 NA
ATOM      4  C   UNL     1      45.588   6.778  11.733  0.00  0.00    +0.000 A 
ATOM      5  C   UNL     1      45.581   5.429  11.959  0.00  0.00    +0.000 A 
ATOM      6  C   UNL     1      46.377   5.023  13.000  0.00  0.00    +0.000 A 
ATOM      7  N   UNL     1      47.121   5.857  13.767  0.00  0.00    +0.000 NA
ATOM      8  H   UNL     1      47.839   8.915  13.609  0.00  0.00    +0.000 HD
ENDROOT
BRANCH   6   9
ATOM      9  C   UNL     1      46.453   3.569  13.343  0.00  0.00    +0.000 C 
ATOM     10  N   UNL     1      45.576   2.759  12.677  0.00  0.00    +0.000 N 
ATOM     11  O   UNL     1      47.246   3.129  14.166  0.00  0.00    +0.000 OA
ATOM     12  H   UNL     1      44.951   3.154  11.982  0.00  0.00    +0.000 HD
ATOM     13  H   UNL     1      45.596   1.763  12.840  0.00  0.00    +0.000 HD
ENDBRANCH   6   9
BRANCH   1  14
ATOM     14  C   UNL     1      49.044   7.587  14.716  0.00  0.00    +0.000 C 
BRANCH  14  15
ATOM     15  C   UNL     1      49.042   7.609  16.250  0.00  0.00    +0.000 C 
BRANCH  15  20
ATOM     16  C   UNL     1      48.992   4.009  17.533  0.00  0.00    +0.000 A 
ATOM     17  C   UNL     1      50.366   3.753  17.647  0.00  0.00    +0.000 A 
ATOM     18  C   UNL     1      51.301   4.746  17.355  0.00  0.00    +0.000 A 
ATOM     19  C   UNL     1      50.876   6.004  16.929  0.00  0.00    +0.000 A 
ATOM     20  C   UNL     1      49.510   6.283  16.804  0.00  0.00    +0.000 A 
ATOM     21  C   UNL     1      48.576   5.284  17.119  0.00  0.00    +0.000 A 
BRANCH  16  22
ATOM     22  C   UNL     1      47.983   2.917  17.786  0.00  0.00    +0.000 C 
BRANCH  22  23
ATOM     23  N   UNL     1      46.653   3.275  17.308  0.00  0.00    +0.000 NA
ATOM     24  H   UNL     1      46.140   2.424  17.090  0.00  0.00    +0.000 HD
ATOM     25  H   UNL     1      46.749   3.787  16.433  0.00  0.00    +0.000 HD
ENDBRANCH  22  23
ENDBRANCH  16  22
ENDBRANCH  15  20
ENDBRANCH  14  15
ENDBRANCH   1  14
TORSDOF 6
ENDMDL
MODEL 9
REMARK VINA RESULT:    -6.024      4.237      7.746
REMARK INTER + INTRA:          -8.542
REMARK INTER:                  -8.200
REMARK INTRA:                  -0.342
REMARK UNBOUND:                -0.582
REMARK  Name = 
REMARK  6 active torsions:
REMARK  status: ('A' for Active; 'I' for Inactive)
REMARK    1  A    between atoms: N_1  and  C_2
REMARK    2  A    between atoms: C_2  and  C_3
REMARK    3  A    between atoms: C_7  and  C_8
REMARK    4  A    between atoms: C_8  and  C_9
REMARK    5  A    between atoms: C_9  and  N_10
REMARK    6  A    between atoms: C_15  and  C_16
REMARK                            x       y       z     vdW  Elec       q    Type
REMARK                         _______ _______ _______ _____ _____    ______ ____
ROOT
ATOM      1  N   UNL     1      46.881   5.176  14.806  0.00  0.00    +0.000 N 
ATOM      2  C   UNL     1      46.300   5.164  13.544  0.00  0.00    +0.000 A 
ATOM      3  N   UNL     1      46.625   6.188  12.744  0.00  0.00    +0.000 NA
ATOM      4  C   UNL     1      46.073   6.218  11.513  0.00  0.00    +0.000 A 
ATOM      5  C   UNL     1      45.220   5.256  11.046  0.00  0.00    +0.000 A 
ATOM      6  C   UNL     1      44.958   4.247  11.938  0.00  0.00    +0.000 A 
ATOM      7  N   UNL     1      45.478   4.173  13.187  0.00  0.00    +0.000 NA
ATOM      8  H   UNL     1      47.679   5.801  14.738  0.00  0.00    +0.000 HD
ENDROOT
BRANCH   6   9
ATOM      9  C   UNL     1      44.040   3.135  11.541  0.00  0.00    +0.000 C 
ATOM     10  N   UNL     1      43.672   2.286  12.548  0.00  0.00    +0.000 N 
ATOM     11  O   UNL     1      43.642   2.989  10.393  0.00  0.00    +0.000 OA
ATOM     12  H   UNL     1      43.998   2.452  13.494  0.00  0.00    +0.000 HD
ATOM     13  H   UNL     1      43.029   1.532  12.354  0.00  0.00    +0.000 HD
ENDBRANCH   6   9
BRANCH   1  14
ATOM     14  C   UNL     1      47.150   3.856  15.355  0.00  0.00    +0.000 C 
BRANCH  14  15
ATOM     15  C   UNL     1      47.514   3.952  16.843  0.00  0.00    +0.000 C 
BRANCH  15  20
ATOM     16  C   UNL     1      51.215   4.223  17.760  0.00  0.00    +0.000 A 
ATOM     17  C   UNL     1      51.607   2.880  17.662  0.00  0.00    +0.000 A 
ATOM     18  C   UNL     1      50.698   1.901  17.262  0.00  0.00    +0.000 A 
ATOM     19  C   UNL     1      49.379   2.247  16.970  0.00  0.00    +0.000 A 
ATOM     20  C   UNL     1      48.962   3.581  17.063  0.00  0.00    +0.000 A 
ATOM     21  C   UNL     1      49.889   4.562  17.447  0.00  0.00    +0.000 A 
BRANCH  16  22
ATOM     22  C   UNL     1      52.179   5.271  18.254  0.00  0.00    +0.000 C 
BRANCH  22  23
ATOM     23  N   UNL     1      53.021   5.792  17.185  0.00  0.00    +0.000 NA
ATOM     24  H   UNL     1      52.851   5.255  16.337  0.00  0.00    +0.000 HD
ATOM     25  H   UNL     1      53.997   5.637  17.433  0.00  0.00    +0.000 HD
ENDBRANCH  22  23
ENDBRANCH  16  22
ENDBRANCH  15  20
ENDBRANCH  14  15
ENDBRANCH   1  14
TORSDOF 6
ENDMDL
