MODEL 1
REMARK VINA RESULT:    -7.282      0.000      0.000
REMARK INTER + INTRA:         -10.157
REMARK INTER:                  -9.623
REMARK INTRA:                  -0.535
REMARK UNBOUND:                -0.535
REMARK  Name = 
REMARK  6 active torsions:
REMARK  status: ('A' for Active; 'I' for Inactive)
REMARK    1  A    between atoms: N_1  and  C_2
REMARK    2  A    between atoms: C_2  and  C_3
REMARK    3  A    between atoms: C_3  and  C_4
REMARK    4  A    between atoms: C_4  and  C_5
REMARK    5  A    between atoms: C_4  and  C_15
REMARK    6  A    between atoms: C_5  and  C_6
REMARK                            x       y       z     vdW  Elec       q    Type
REMARK                         _______ _______ _______ _____ _____    ______ ____
ROOT
ATOM      1  C   UNL     1      44.779   5.280  11.027  0.00  0.00    +0.000 C 
ENDROOT
BRANCH   1   2
ATOM      2  C   UNL     1      45.972   5.600  11.931  0.00  0.00    +0.000 A 
ATOM      3  C   UNL     1      46.170   4.864  13.105  0.00  0.00    +0.000 A 
ATOM      4  C   UNL     1      47.262   5.159  13.910  0.00  0.00    +0.000 A 
ATOM      5  N   UNL     1      48.167   6.122  13.635  0.00  0.00    +0.000 NA
ATOM      6  C   UNL     1      47.968   6.820  12.498  0.00  0.00    +0.000 A 
ATOM      7  C   UNL     1      46.907   6.601  11.630  0.00  0.00    +0.000 A 
ENDBRANCH   1   2
BRANCH   1   8
ATOM      8  C   UNL     1      43.618   6.295  11.195  0.00  0.00    +0.000 C 
BRANCH   8   9
ATOM      9  C   UNL     1      42.355   5.769  11.876  0.00  0.00    +0.000 C 
BRANCH   9  10
ATOM     10  N   UNL     1      42.594   5.360  13.253  0.00  0.00    +0.000 NA
ATOM     11  H   UNL     1      42.191   6.055  13.883  0.00  0.00    +0.000 HD
ATOM     12  H   UNL     1      43.597   5.372  13.441  0.00  0.00    +0.000 HD
ENDBRANCH   9  10
ENDBRANCH   8   9
ENDBRANCH   1   8
BRANCH   1  13
ATOM     13  C   UNL     1      45.200   5.026   9.551  0.00  0.00    +0.000 C 
BRANCH  13  14
ATOM     14  C   UNL     1      45.274   3.581   9.160  0.00  0.00    +0.000 A 
ATOM     15  C   UNL     1      44.562   2.495   9.636  0.00  0.00    +0.000 A 
ATOM     16  N   UNL     1      45.010   1.320   9.102  0.00  0.00    +0.000 NA
ATOM     17  C   UNL     1      45.947   1.665   8.249  0.00  0.00    +0.000 A 
ATOM     18  C   UNL     1      46.781   0.871   7.413  0.00  0.00    +0.000 A 
ATOM     19  C   UNL     1      47.623   1.464   6.547  0.00  0.00    +0.000 A 
ATOM     20  C   UNL     1      47.690   2.912   6.432  0.00  0.00    +0.000 A 
ATOM     21  C   UNL     1      46.939   3.668   7.252  0.00  0.00    +0.000 A 
ATOM     22  N   UNL     1      46.095   3.051   8.178  0.00  0.00    +0.000 N 
ENDBRANCH  13  14
ENDBRANCH   1  13
TORSDOF 6
ENDMDL
MODEL 2
REMARK VINA RESULT:    -7.085      1.001      2.109
REMARK INTER + INTRA:          -9.898
REMARK INTER:                 -10.059
REMARK INTRA:                   0.161
REMARK UNBOUND:                -0.535
REMARK  Name = 
REMARK  6 active torsions:
REMARK  status: ('A' for Active; 'I' for Inactive)
REMARK    1  A    between atoms: N_1  and  C_2
REMARK    2  A    between atoms: C_2  and  C_3
REMARK    3  A    between atoms: C_3  and  C_4
REMARK    4  A    between atoms: C_4  and  C_5
REMARK    5  A    between atoms: C_4  and  C_15
REMARK    6  A    between atoms: C_5  and  C_6
REMARK                            x       y       z     vdW  Elec       q    Type
REMARK                         _______ _______ _______ _____ _____    ______ ____
ROOT
ATOM      1  C   UNL     1      44.055   3.905  11.367  0.00  0.00    +0.000 C 
ENDROOT
BRANCH   1   2
ATOM      2  C   UNL     1      45.319   4.219  12.171  0.00  0.00    +0.000 A 
ATOM      3  C   UNL     1      45.877   5.502  12.114  0.00  0.00    +0.000 A 
ATOM      4  C   UNL     1      47.017   5.776  12.857  0.00  0.00    +0.000 A 
ATOM      5  N   UNL     1      47.638   4.876  13.648  0.00  0.00    +0.000 NA
ATOM      6  C   UNL     1      47.087   3.646  13.699  0.00  0.00    +0.000 A 
ATOM      7  C   UNL     1      45.951   3.276  12.993  0.00  0.00    +0.000 A 
ENDBRANCH   1   2
BRANCH   1   8
ATOM      8  C   UNL     1      43.311   5.185  10.906  0.00  0.00    +0.000 C 
BRANCH   8   9
ATOM      9  C   UNL     1      42.223   5.709  11.843  0.00  0.00    +0.000 C 
BRANCH   9  10
ATOM     10  N   UNL     1      42.537   5.476  13.246  0.00  0.00    +0.000 NA
ATOM     11  H   UNL     1      41.694   5.617  13.805  0.00  0.00    +0.000 HD
ATOM     12  H   UNL     1      43.198   6.184  13.567  0.00  0.00    +0.000 HD
ENDBRANCH   9  10
ENDBRANCH   8   9
ENDBRANCH   1   8
BRANCH   1  13
ATOM     13  C   UNL     1      44.310   2.869  10.235  0.00  0.00    +0.000 C 
BRANCH  13  14
ATOM     14  C   UNL     1      45.229   3.341   9.149  0.00  0.00    +0.000 A 
ATOM     15  C   UNL     1      45.556   4.628   8.760  0.00  0.00    +0.000 A 
ATOM     16  N   UNL     1      46.344   4.637   7.643  0.00  0.00    +0.000 NA
ATOM     17  C   UNL     1      46.568   3.371   7.371  0.00  0.00    +0.000 A 
ATOM     18  C   UNL     1      47.305   2.764   6.316  0.00  0.00    +0.000 A 
ATOM     19  C   UNL     1      47.467   1.428   6.292  0.00  0.00    +0.000 A 
ATOM     20  C   UNL     1      46.915   0.584   7.338  0.00  0.00    +0.000 A 
ATOM     21  C   UNL     1      46.179   1.146   8.312  0.00  0.00    +0.000 A 
ATOM     22  N   UNL     1      45.978   2.528   8.314  0.00  0.00    +0.000 N 
ENDBRANCH  13  14
ENDBRANCH   1  13
TORSDOF 6
ENDMDL
MODEL 3
REMARK VINA RESULT:    -6.564      2.016      3.414
REMARK INTER + INTRA:          -9.210
REMARK INTER:                  -8.848
REMARK INTRA:                  -0.361
REMARK UNBOUND:                -0.535
REMARK  Name = 
REMARK  6 active torsions:
REMARK  status: ('A' for Active; 'I' for Inactive)
REMARK    1  A    between atoms: N_1  and  C_2
REMARK    2  A    between atoms: C_2  and  C_3
REMARK    3  A    between atoms: C_3  and  C_4
REMARK    4  A    between atoms: C_4  and  C_5
REMARK    5  A    between atoms: C_4  and  C_15
REMARK    6  A    between atoms: C_5  and  C_6
REMARK                            x       y       z     vdW  Elec       q    Type
REMARK                         _______ _______ _______ _____ _____    ______ ____
ROOT
ATOM      1  C   UNL     1      46.414   6.059  12.321  0.00  0.00    +0.000 C 
ENDROOT
BRANCH   1   2
ATOM      2  C   UNL     1      47.003   7.466  12.192  0.00  0.00    +0.000 A 
ATOM      3  C   UNL     1      48.349   7.625  11.842  0.00  0.00    +0.000 A 
ATOM      4  C   UNL     1      48.867   8.908  11.719  0.00  0.00    +0.000 A 
ATOM      5  N   UNL     1      48.151  10.035  11.914  0.00  0.00    +0.000 NA
ATOM      6  C   UNL     1      46.854   9.867  12.244  0.00  0.00    +0.000 A 
ATOM      7  C   UNL     1      46.246   8.628  12.393  0.00  0.00    +0.000 A 
ENDBRANCH   1   2
BRANCH   1   8
ATOM      8  C   UNL     1      46.823   5.363  13.644  0.00  0.00    +0.000 C 
BRANCH   8   9
ATOM      9  C   UNL     1      46.848   3.835  13.625  0.00  0.00    +0.000 C 
BRANCH   9  10
ATOM     10  N   UNL     1      47.593   3.277  14.745  0.00  0.00    +0.000 NA
ATOM     11  H   UNL     1      48.264   2.593  14.393  0.00  0.00    +0.000 HD
ATOM     12  H   UNL     1      46.959   2.750  15.346  0.00  0.00    +0.000 HD
ENDBRANCH   9  10
ENDBRANCH   8   9
ENDBRANCH   1   8
BRANCH   1  13
ATOM     13  C   UNL     1      44.887   6.021  12.022  0.00  0.00    +0.000 C 
BRANCH  13  14
ATOM     14  C   UNL     1      44.397   4.738  11.422  0.00  0.00    +0.000 A 
ATOM     15  C   UNL     1      43.476   3.826  11.906  0.00  0.00    +0.000 A 
ATOM     16  N   UNL     1      43.392   2.719  11.110  0.00  0.00    +0.000 NA
ATOM     17  C   UNL     1      44.198   2.957  10.102  0.00  0.00    +0.000 A 
ATOM     18  C   UNL     1      44.535   2.160   8.972  0.00  0.00    +0.000 A 
ATOM     19  C   UNL     1      45.334   2.660   8.012  0.00  0.00    +0.000 A 
ATOM     20  C   UNL     1      45.854   4.015   8.093  0.00  0.00    +0.000 A 
ATOM     21  C   UNL     1      45.577   4.757   9.180  0.00  0.00    +0.000 A 
ATOM     22  N   UNL     1      44.780   4.222  10.195  0.00  0.00    +0.000 N 
ENDBRANCH  13  14
ENDBRANCH   1  13
TORSDOF 6
ENDMDL
MODEL 4
REMARK VINA RESULT:    -6.499      1.305      5.788
REMARK INTER + INTRA:          -9.124
REMARK INTER:                  -9.118
REMARK INTRA:                  -0.006
REMARK UNBOUND:                -0.535
REMARK  Name = 
REMARK  6 active torsions:
REMARK  status: ('A' for Active; 'I' for Inactive)
REMARK    1  A    between atoms: N_1  and  C_2
REMARK    2  A    between atoms: C_2  and  C_3
REMARK    3  A    between atoms: C_3  and  C_4
REMARK    4  A    between atoms: C_4  and  C_5
REMARK    5  A    between atoms: C_4  and  C_15
REMARK    6  A    between atoms: C_5  and  C_6
REMARK                            x       y       z     vdW  Elec       q    Type
REMARK                         _______ _______ _______ _____ _____    ______ ____
ROOT
ATOM      1  C   UNL     1      44.525   5.035  10.297  0.00  0.00    +0.000 C 
ENDROOT
BRANCH   1   2
ATOM      2  C   UNL     1      45.147   4.005   9.351  0.00  0.00    +0.000 A 
ATOM      3  C   UNL     1      45.916   4.437   8.263  0.00  0.00    +0.000 A 
ATOM      4  C   UNL     1      46.482   3.492   7.419  0.00  0.00    +0.000 A 
ATOM      5  N   UNL     1      46.345   2.158   7.577  0.00  0.00    +0.000 NA
ATOM      6  C   UNL     1      45.608   1.755   8.632  0.00  0.00    +0.000 A 
ATOM      7  C   UNL     1      45.000   2.622   9.529  0.00  0.00    +0.000 A 
ENDBRANCH   1   2
BRANCH   1   8
ATOM      8  C   UNL     1      43.392   4.432  11.168  0.00  0.00    +0.000 C 
BRANCH   8   9
ATOM      9  C   UNL     1      42.461   5.433  11.853  0.00  0.00    +0.000 C 
BRANCH   9  10
ATOM     10  N   UNL     1      42.612   5.431  13.301  0.00  0.00    +0.000 NA
ATOM     11  H   UNL     1      43.137   4.602  13.582  0.00  0.00    +0.000 HD
ATOM     12  H   UNL     1      41.694   5.331  13.737  0.00  0.00    +0.000 HD
ENDBRANCH   9  10
ENDBRANCH   8   9
ENDBRANCH   1   8
BRANCH   1  13
ATOM     13  C   UNL     1      45.594   5.832  11.099  0.00  0.00    +0.000 C 
BRANCH  13  14
ATOM     14  C   UNL     1      46.087   5.148  12.338  0.00  0.00    +0.000 A 
ATOM     15  C   UNL     1      45.834   3.871  12.808  0.00  0.00    +0.000 A 
ATOM     16  N   UNL     1      46.379   3.667  14.044  0.00  0.00    +0.000 NA
ATOM     17  C   UNL     1      47.026   4.776  14.322  0.00  0.00    +0.000 A 
ATOM     18  C   UNL     1      47.770   5.154  15.475  0.00  0.00    +0.000 A 
ATOM     19  C   UNL     1      48.424   6.330  15.495  0.00  0.00    +0.000 A 
ATOM     20  C   UNL     1      48.403   7.225  14.350  0.00  0.00    +0.000 A 
ATOM     21  C   UNL     1      47.664   6.895  13.276  0.00  0.00    +0.000 A 
ATOM     22  N   UNL     1      46.953   5.692  13.272  0.00  0.00    +0.000 N 
ENDBRANCH  13  14
ENDBRANCH   1  13
TORSDOF 6
ENDMDL
MODEL 5
REMARK VINA RESULT:    -6.414      1.492      6.295
REMARK INTER + INTRA:          -9.011
REMARK INTER:                  -8.443
REMARK INTRA:                  -0.568
REMARK UNBOUND:                -0.535
REMARK  Name = 
REMARK  6 active torsions:
REMARK  status: ('A' for Active; 'I' for Inactive)
REMARK    1  A    between atoms: N_1  and  C_2
REMARK    2  A    between atoms: C_2  and  C_3
REMARK    3  A    between atoms: C_3  and  C_4
REMARK    4  A    between atoms: C_4  and  C_5
REMARK    5  A    between atoms: C_4  and  C_15
REMARK    6  A    between atoms: C_5  and  C_6
REMARK                            x       y       z     vdW  Elec       q    Type
REMARK                         _______ _______ _______ _____ _____    ______ ____
ROOT
ATOM      1  C   UNL     1      44.614   4.514  11.232  0.00  0.00    +0.000 C 
ENDROOT
BRANCH   1   2
ATOM      2  C   UNL     1      45.107   3.849   9.944  0.00  0.00    +0.000 A 
ATOM      3  C   UNL     1      45.645   4.635   8.918  0.00  0.00    +0.000 A 
ATOM      4  C   UNL     1      46.097   4.016   7.761  0.00  0.00    +0.000 A 
ATOM      5  N   UNL     1      46.057   2.684   7.550  0.00  0.00    +0.000 NA
ATOM      6  C   UNL     1      45.542   1.938   8.548  0.00  0.00    +0.000 A 
ATOM      7  C   UNL     1      45.063   2.462   9.741  0.00  0.00    +0.000 A 
ENDBRANCH   1   2
BRANCH   1   8
ATOM      8  C   UNL     1      43.094   4.312  11.460  0.00  0.00    +0.000 C 
BRANCH   8   9
ATOM      9  C   UNL     1      42.291   5.564  11.815  0.00  0.00    +0.000 C 
BRANCH   9  10
ATOM     10  N   UNL     1      42.779   6.751  11.125  0.00  0.00    +0.000 NA
ATOM     11  H   UNL     1      42.089   7.042  10.431  0.00  0.00    +0.000 HD
ATOM     12  H   UNL     1      43.616   6.514  10.593  0.00  0.00    +0.000 HD
ENDBRANCH   9  10
ENDBRANCH   8   9
ENDBRANCH   1   8
BRANCH   1  13
ATOM     13  C   UNL     1      45.499   4.162  12.462  0.00  0.00    +0.000 C 
BRANCH  13  14
ATOM     14  C   UNL     1      46.401   5.268  12.923  0.00  0.00    +0.000 A 
ATOM     15  C   UNL     1      46.754   6.446  12.290  0.00  0.00    +0.000 A 
ATOM     16  N   UNL     1      47.698   7.138  12.996  0.00  0.00    +0.000 NA
ATOM     17  C   UNL     1      47.889   6.440  14.092  0.00  0.00    +0.000 A 
ATOM     18  C   UNL     1      48.766   6.656  15.191  0.00  0.00    +0.000 A 
ATOM     19  C   UNL     1      48.723   5.835  16.257  0.00  0.00    +0.000 A 
ATOM     20  C   UNL     1      47.779   4.731  16.319  0.00  0.00    +0.000 A 
ATOM     21  C   UNL     1      46.980   4.493  15.265  0.00  0.00    +0.000 A 
ATOM     22  N   UNL     1      47.055   5.322  14.143  0.00  0.00    +0.000 N 
ENDBRANCH  13  14
ENDBRANCH   1  13
TORSDOF 6
ENDMDL
MODEL 6
REMARK VINA RESULT:    -6.407      1.654      6.006
REMARK INTER + INTRA:          -9.001
REMARK INTER:                  -8.523
REMARK INTRA:                  -0.478
REMARK UNBOUND:                -0.535
REMARK  Name = 
REMARK  6 active torsions:
REMARK  status: ('A' for Active; 'I' for Inactive)
REMARK    1  A    between atoms: N_1  and  C_2
REMARK    2  A    between atoms: C_2  and  C_3
REMARK    3  A    between atoms: C_3  and  C_4
REMARK    4  A    between atoms: C_4  and  C_5
REMARK    5  A    between atoms: C_4  and  C_15
REMARK    6  A    between atoms: C_5  and  C_6
REMARK                            x       y       z     vdW  Elec       q    Type
REMARK                         _______ _______ _______ _____ _____    ______ ____
ROOT
ATOM      1  C   UNL     1      44.583   4.911  10.596  0.00  0.00    +0.000 C 
ENDROOT
BRANCH   1   2
ATOM      2  C   UNL     1      45.159   3.984   9.523  0.00  0.00    +0.000 A 
ATOM      3  C   UNL     1      45.825   4.529   8.419  0.00  0.00    +0.000 A 
ATOM      4  C   UNL     1      46.351   3.675   7.459  0.00  0.00    +0.000 A 
ATOM      5  N   UNL     1      46.268   2.329   7.516  0.00  0.00    +0.000 NA
ATOM      6  C   UNL     1      45.629   1.817   8.588  0.00  0.00    +0.000 A 
ATOM      7  C   UNL     1      45.069   2.587   9.598  0.00  0.00    +0.000 A 
ENDBRANCH   1   2
BRANCH   1   8
ATOM      8  C   UNL     1      43.202   4.434  11.113  0.00  0.00    +0.000 C 
BRANCH   8   9
ATOM      9  C   UNL     1      42.370   5.468  11.872  0.00  0.00    +0.000 C 
BRANCH   9  10
ATOM     10  N   UNL     1      42.596   5.418  13.310  0.00  0.00    +0.000 NA
ATOM     11  H   UNL     1      42.148   4.583  13.690  0.00  0.00    +0.000 HD
ATOM     12  H   UNL     1      42.125   6.206  13.755  0.00  0.00    +0.000 HD
ENDBRANCH   9  10
ENDBRANCH   8   9
ENDBRANCH   1   8
BRANCH   1  13
ATOM     13  C   UNL     1      45.611   5.236  11.718  0.00  0.00    +0.000 C 
BRANCH  13  14
ATOM     14  C   UNL     1      45.904   6.695  11.896  0.00  0.00    +0.000 A 
ATOM     15  C   UNL     1      45.057   7.786  11.825  0.00  0.00    +0.000 A 
ATOM     16  N   UNL     1      45.737   8.966  11.931  0.00  0.00    +0.000 NA
ATOM     17  C   UNL     1      46.989   8.624  12.135  0.00  0.00    +0.000 A 
ATOM     18  C   UNL     1      48.155   9.423  12.301  0.00  0.00    +0.000 A 
ATOM     19  C   UNL     1      49.334   8.838  12.586  0.00  0.00    +0.000 A 
ATOM     20  C   UNL     1      49.441   7.397  12.746  0.00  0.00    +0.000 A 
ATOM     21  C   UNL     1      48.353   6.634  12.544  0.00  0.00    +0.000 A 
ATOM     22  N   UNL     1      47.140   7.239  12.209  0.00  0.00    +0.000 N 
ENDBRANCH  13  14
ENDBRANCH   1  13
TORSDOF 6
ENDMDL
MODEL 7
REMARK VINA RESULT:    -5.865      1.792      2.047
REMARK INTER + INTRA:          -8.285
REMARK INTER:                  -7.837
REMARK INTRA:                  -0.449
REMARK UNBOUND:                -0.535
REMARK  Name = 
REMARK  6 active torsions:
REMARK  status: ('A' for Active; 'I' for Inactive)
REMARK    1  A    between atoms: N_1  and  C_2
REMARK    2  A    between atoms: C_2  and  C_3
REMARK    3  A    between atoms: C_3  and  C_4
REMARK    4  A    between atoms: C_4  and  C_5
REMARK    5  A    between atoms: C_4  and  C_15
REMARK    6  A    between atoms: C_5  and  C_6
REMARK                            x       y       z     vdW  Elec       q    Type
REMARK                         _______ _______ _______ _____ _____    ______ ____
ROOT
ATOM      1  C   UNL     1      45.062   6.722  11.684  0.00  0.00    +0.000 C 
ENDROOT
BRANCH   1   2
ATOM      2  C   UNL     1      46.097   6.301  12.731  0.00  0.00    +0.000 A 
ATOM      3  C   UNL     1      45.893   5.134  13.478  0.00  0.00    +0.000 A 
ATOM      4  C   UNL     1      46.845   4.759  14.416  0.00  0.00    +0.000 A 
ATOM      5  N   UNL     1      47.977   5.451  14.663  0.00  0.00    +0.000 NA
ATOM      6  C   UNL     1      48.164   6.569  13.932  0.00  0.00    +0.000 A 
ATOM      7  C   UNL     1      47.272   7.026  12.973  0.00  0.00    +0.000 A 
ENDBRANCH   1   2
BRANCH   1   8
ATOM      8  C   UNL     1      44.768   8.244  11.720  0.00  0.00    +0.000 C 
BRANCH   8   9
ATOM      9  C   UNL     1      43.494   8.703  11.010  0.00  0.00    +0.000 C 
BRANCH   9  10
ATOM     10  N   UNL     1      43.754   9.728  10.008  0.00  0.00    +0.000 NA
ATOM     11  H   UNL     1      44.247   9.306   9.219  0.00  0.00    +0.000 HD
ATOM     12  H   UNL     1      44.398  10.421  10.391  0.00  0.00    +0.000 HD
ENDBRANCH   9  10
ENDBRANCH   8   9
ENDBRANCH   1   8
BRANCH   1  13
ATOM     13  C   UNL     1      45.385   6.164  10.268  0.00  0.00    +0.000 C 
BRANCH  13  14
ATOM     14  C   UNL     1      44.965   4.743  10.043  0.00  0.00    +0.000 A 
ATOM     15  C   UNL     1      43.995   3.992  10.684  0.00  0.00    +0.000 A 
ATOM     16  N   UNL     1      44.000   2.692  10.264  0.00  0.00    +0.000 NA
ATOM     17  C   UNL     1      44.915   2.637   9.323  0.00  0.00    +0.000 A 
ATOM     18  C   UNL     1      45.376   1.544   8.537  0.00  0.00    +0.000 A 
ATOM     19  C   UNL     1      46.278   1.753   7.560  0.00  0.00    +0.000 A 
ATOM     20  C   UNL     1      46.785   3.086   7.275  0.00  0.00    +0.000 A 
ATOM     21  C   UNL     1      46.389   4.114   8.044  0.00  0.00    +0.000 A 
ATOM     22  N   UNL     1      45.484   3.889   9.083  0.00  0.00    +0.000 N 
ENDBRANCH  13  14
ENDBRANCH   1  13
TORSDOF 6
ENDMDL
MODEL 8
REMARK VINA RESULT:    -5.736      2.192      3.303
REMARK INTER + INTRA:          -8.115
REMARK INTER:                  -7.611
REMARK INTRA:                  -0.504
REMARK UNBOUND:                -0.535
REMARK  Name = 
REMARK  6 active torsions:
REMARK  status: ('A' for Active; 'I' for Inactive)
REMARK    1  A    between atoms: N_1  and  C_2
REMARK    2  A    between atoms: C_2  and  C_3
REMARK    3  A    between atoms: C_3  and  C_4
REMARK    4  A    between atoms: C_4  and  C_5
REMARK    5  A    between atoms: C_4  and  C_15
REMARK    6  A    between atoms: C_5  and  C_6
REMARK                            x       y       z     vdW  Elec       q    Type
REMARK                         _______ _______ _______ _____ _____    ______ ____
ROOT
ATOM      1  C   UNL     1      46.213   7.233  12.529  0.00  0.00    +0.000 C 
ENDROOT
BRANCH   1   2
ATOM      2  C   UNL     1      47.720   7.424  12.717  0.00  0.00    +0.000 A 
ATOM      3  C   UNL     1      48.513   7.797  11.625  0.00  0.00    +0.000 A 
ATOM      4  C   UNL     1      49.877   7.977  11.813  0.00  0.00    +0.000 A 
ATOM      5  N   UNL     1      50.505   7.817  12.996  0.00  0.00    +0.000 NA
ATOM      6  C   UNL     1      49.728   7.464  14.041  0.00  0.00    +0.000 A 
ATOM      7  C   UNL     1      48.359   7.260  13.954  0.00  0.00    +0.000 A 
ENDBRANCH   1   2
BRANCH   1   8
ATOM      8  C   UNL     1      45.397   8.475  12.973  0.00  0.00    +0.000 C 
BRANCH   8   9
ATOM      9  C   UNL     1      45.006   9.457  11.868  0.00  0.00    +0.000 C 
BRANCH   9  10
ATOM     10  N   UNL     1      43.835  10.249  12.217  0.00  0.00    +0.000 NA
ATOM     11  H   UNL     1      44.001  10.717  13.109  0.00  0.00    +0.000 HD
ATOM     12  H   UNL     1      43.042   9.627  12.379  0.00  0.00    +0.000 HD
ENDBRANCH   9  10
ENDBRANCH   8   9
ENDBRANCH   1   8
BRANCH   1  13
ATOM     13  C   UNL     1      45.850   6.701  11.113  0.00  0.00    +0.000 C 
BRANCH  13  14
ATOM     14  C   UNL     1      45.181   5.360  11.099  0.00  0.00    +0.000 A 
ATOM     15  C   UNL     1      44.449   4.723  12.086  0.00  0.00    +0.000 A 
ATOM     16  N   UNL     1      44.104   3.452  11.723  0.00  0.00    +0.000 NA
ATOM     17  C   UNL     1      44.554   3.311  10.496  0.00  0.00    +0.000 A 
ATOM     18  C   UNL     1      44.507   2.197   9.612  0.00  0.00    +0.000 A 
ATOM     19  C   UNL     1      44.968   2.320   8.353  0.00  0.00    +0.000 A 
ATOM     20  C   UNL     1      45.503   3.581   7.866  0.00  0.00    +0.000 A 
ATOM     21  C   UNL     1      45.592   4.623   8.710  0.00  0.00    +0.000 A 
ATOM     22  N   UNL     1      45.151   4.482  10.028  0.00  0.00    +0.000 N 
ENDBRANCH  13  14
ENDBRANCH   1  13
TORSDOF 6
ENDMDL
MODEL 9
REMARK VINA RESULT:    -5.735      2.933      6.487
REMARK INTER + INTRA:          -8.113
REMARK INTER:                  -7.739
REMARK INTRA:                  -0.375
REMARK UNBOUND:                -0.535
REMARK  Name = 
REMARK  6 active torsions:
REMARK  status: ('A' for Active; 'I' for Inactive)
REMARK    1  A    between atoms: N_1  and  C_2
REMARK    2  A    between atoms: C_2  and  C_3
REMARK    3  A    between atoms: C_3  and  C_4
REMARK    4  A    between atoms: C_4  and  C_5
REMARK    5  A    between atoms: C_4  and  C_15
REMARK    6  A    between atoms: C_5  and  C_6
REMARK                            x       y       z     vdW  Elec       q    Type
REMARK                         _______ _______ _______ _____ _____    ______ ____
ROOT
ATOM      1  C   UNL     1      45.980   6.879  11.821  0.00  0.00    +0.000 C 
ENDROOT
BRANCH   1   2
ATOM      2  C   UNL     1      44.915   5.799  11.608  0.00  0.00    +0.000 A 
ATOM      3  C   UNL     1      45.052   4.889  10.553  0.00  0.00    +0.000 A 
ATOM      4  C   UNL     1      44.085   3.909  10.377  0.00  0.00    +0.000 A 
ATOM      5  N   UNL     1      43.001   3.766  11.169  0.00  0.00    +0.000 NA
ATOM      6  C   UNL     1      42.884   4.646  12.185  0.00  0.00    +0.000 A 
ATOM      7  C   UNL     1      43.797   5.659  12.441  0.00  0.00    +0.000 A 
ENDBRANCH   1   2
BRANCH   1   8
ATOM      8  C   UNL     1      45.487   8.023  12.744  0.00  0.00    +0.000 C 
BRANCH   8   9
ATOM      9  C   UNL     1      45.386   9.409  12.108  0.00  0.00    +0.000 C 
BRANCH   9  10
ATOM     10  N   UNL     1      44.210  10.143  12.556  0.00  0.00    +0.000 NA
ATOM     11  H   UNL     1      43.854  10.708  11.783  0.00  0.00    +0.000 HD
ATOM     12  H   UNL     1      44.483  10.811  13.278  0.00  0.00    +0.000 HD
ENDBRANCH   9  10
ENDBRANCH   8   9
ENDBRANCH   1   8
BRANCH   1  13
ATOM     13  C   UNL     1      47.361   6.284  12.219  0.00  0.00    +0.000 C 
BRANCH  13  14
ATOM     14  C   UNL     1      47.348   5.442  13.460  0.00  0.00    +0.000 A 
ATOM     15  C   UNL     1      46.846   4.168  13.662  0.00  0.00    +0.000 A 
ATOM     16  N   UNL     1      46.923   3.795  14.975  0.00  0.00    +0.000 NA
ATOM     17  C   UNL     1      47.526   4.792  15.581  0.00  0.00    +0.000 A 
ATOM     18  C   UNL     1      47.865   4.979  16.951  0.00  0.00    +0.000 A 
ATOM     19  C   UNL     1      48.568   6.063  17.326  0.00  0.00    +0.000 A 
ATOM     20  C   UNL     1      49.009   7.050  16.354  0.00  0.00    +0.000 A 
ATOM     21  C   UNL     1      48.653   6.903  15.066  0.00  0.00    +0.000 A 
ATOM     22  N   UNL     1      47.889   5.798  14.684  0.00  0.00    +0.000 N 
ENDBRANCH  13  14
ENDBRANCH   1  13
TORSDOF 6
ENDMDL
