MODEL 1
REMARK VINA RESULT:    -7.803      0.000      0.000
REMARK INTER + INTRA:         -11.101
REMARK INTER:                 -10.084
REMARK INTRA:                  -1.017
REMARK UNBOUND:                -1.017
REMARK  Name = 
REMARK  5 active torsions:
REMARK  status: ('A' for Active; 'I' for Inactive)
REMARK    1  A    between atoms: C_2  and  C_5
REMARK    2  A    between atoms: C_7  and  C_8
REMARK    3  A    between atoms: C_8  and  N_9
REMARK    4  A    between atoms: N_9  and  C_10
REMARK    5  A    between atoms: C_14  and  C_15
REMARK                            x       y       z     vdW  Elec       q    Type
REMARK                         _______ _______ _______ _____ _____    ______ ____
ROOT
ATOM      1  N   UNL     1      44.754   5.978  10.269  0.00  0.00    +0.000 N 
ATOM      2  H   UNL     1      45.331   6.216   9.467  0.00  0.00    +0.000 HD
ENDROOT
BRANCH   1   3
ATOM      3  C   UNL     1      45.519   5.874  11.441  0.00  0.00    +0.000 A 
ATOM      4  C   UNL     1      45.089   5.032  12.471  0.00  0.00    +0.000 A 
ATOM      5  C   UNL     1      45.850   4.873  13.629  0.00  0.00    +0.000 A 
ATOM      6  C   UNL     1      47.090   5.502  13.751  0.00  0.00    +0.000 A 
ATOM      7  C   UNL     1      47.607   6.264  12.699  0.00  0.00    +0.000 A 
ATOM      8  C   UNL     1      46.786   6.459  11.571  0.00  0.00    +0.000 A 
BRANCH   7   9
ATOM      9  C   UNL     1      49.002   6.888  12.693  0.00  0.00    +0.000 C 
ATOM     10  C   UNL     1      49.441   7.342  14.103  0.00  0.00    +0.000 C 
ATOM     11  C   UNL     1      48.752   8.641  14.520  0.00  0.00    +0.000 C 
ATOM     12  N   UNL     1      49.036   9.724  13.577  0.00  0.00    +0.000 NA
ATOM     13  C   UNL     1      48.604   9.373  12.225  0.00  0.00    +0.000 C 
ATOM     14  C   UNL     1      49.229   8.065  11.727  0.00  0.00    +0.000 C 
ATOM     15  H   UNL     1      50.039   9.908  13.573  0.00  0.00    +0.000 HD
ENDBRANCH   7   9
ENDBRANCH   1   3
BRANCH   1  16
ATOM     16  C   UNL     1      43.833   4.889   9.966  0.00  0.00    +0.000 C 
BRANCH  16  19
ATOM     17  C   UNL     1      46.118   2.864   7.650  0.00  0.00    +0.000 A 
ATOM     18  C   UNL     1      45.450   3.934   8.275  0.00  0.00    +0.000 A 
ATOM     19  C   UNL     1      44.591   3.727   9.367  0.00  0.00    +0.000 A 
ATOM     20  C   UNL     1      44.400   2.426   9.842  0.00  0.00    +0.000 A 
ATOM     21  C   UNL     1      45.060   1.357   9.236  0.00  0.00    +0.000 A 
ATOM     22  C   UNL     1      45.912   1.575   8.146  0.00  0.00    +0.000 A 
ATOM     23 CL   UNL     1      46.676   0.191   7.450  0.00  0.00    +0.000 Cl
BRANCH  17  25
ATOM     24  F   UNL     1      47.019   4.433   6.078  0.00  0.00    +0.000 F 
ATOM     25  C   UNL     1      47.008   3.124   6.464  0.00  0.00    +0.000 C 
ATOM     26  F   UNL     1      46.629   2.428   5.355  0.00  0.00    +0.000 F 
ATOM     27  F   UNL     1      48.311   2.806   6.692  0.00  0.00    +0.000 F 
ENDBRANCH  17  25
ENDBRANCH  16  19
ENDBRANCH   1  16
TORSDOF 5
ENDMDL
MODEL 2
REMARK VINA RESULT:    -7.603      1.601      2.334
REMARK INTER + INTRA:         -10.843
REMARK INTER:                 -10.296
REMARK INTRA:                  -0.547
REMARK UNBOUND:                -1.017
REMARK  Name = 
REMARK  5 active torsions:
REMARK  status: ('A' for Active; 'I' for Inactive)
REMARK    1  A    between atoms: C_2  and  C_5
REMARK    2  A    between atoms: C_7  and  C_8
REMARK    3  A    between atoms: C_8  and  N_9
REMARK    4  A    between atoms: N_9  and  C_10
REMARK    5  A    between atoms: C_14  and  C_15
REMARK                            x       y       z     vdW  Elec       q    Type
REMARK                         _______ _______ _______ _____ _____    ______ ____
ROOT
ATOM      1  N   UNL     1      43.722   3.995  11.645  0.00  0.00    +0.000 N 
ATOM      2  H   UNL     1      43.305   4.720  11.066  0.00  0.00    +0.000 HD
ENDROOT
BRANCH   1   3
ATOM      3  C   UNL     1      44.866   4.463  12.311  0.00  0.00    +0.000 A 
ATOM      4  C   UNL     1      45.666   3.561  13.019  0.00  0.00    +0.000 A 
ATOM      5  C   UNL     1      46.832   3.988  13.654  0.00  0.00    +0.000 A 
ATOM      6  C   UNL     1      47.256   5.312  13.537  0.00  0.00    +0.000 A 
ATOM      7  C   UNL     1      46.544   6.219  12.748  0.00  0.00    +0.000 A 
ATOM      8  C   UNL     1      45.336   5.775  12.175  0.00  0.00    +0.000 A 
BRANCH   7   9
ATOM      9  C   UNL     1      46.995   7.651  12.464  0.00  0.00    +0.000 C 
ATOM     10  C   UNL     1      48.355   7.698  11.730  0.00  0.00    +0.000 C 
ATOM     11  C   UNL     1      49.520   7.411  12.678  0.00  0.00    +0.000 C 
ATOM     12  N   UNL     1      49.558   8.371  13.782  0.00  0.00    +0.000 NA
ATOM     13  C   UNL     1      48.312   8.348  14.546  0.00  0.00    +0.000 C 
ATOM     14  C   UNL     1      47.080   8.603  13.672  0.00  0.00    +0.000 C 
ATOM     15  H   UNL     1      49.705   9.307  13.405  0.00  0.00    +0.000 HD
ENDBRANCH   7   9
ENDBRANCH   1   3
BRANCH   1  16
ATOM     16  C   UNL     1      43.829   2.730  10.929  0.00  0.00    +0.000 C 
BRANCH  16  19
ATOM     17  C   UNL     1      46.106   2.041   7.925  0.00  0.00    +0.000 A 
ATOM     18  C   UNL     1      45.330   1.870   9.087  0.00  0.00    +0.000 A 
ATOM     19  C   UNL     1      44.592   2.930   9.640  0.00  0.00    +0.000 A 
ATOM     20  C   UNL     1      44.632   4.181   9.017  0.00  0.00    +0.000 A 
ATOM     21  C   UNL     1      45.392   4.363   7.863  0.00  0.00    +0.000 A 
ATOM     22  C   UNL     1      46.126   3.300   7.321  0.00  0.00    +0.000 A 
ATOM     23 CL   UNL     1      47.049   3.621   5.897  0.00  0.00    +0.000 Cl
BRANCH  17  25
ATOM     24  F   UNL     1      46.690   0.670   6.048  0.00  0.00    +0.000 F 
ATOM     25  C   UNL     1      46.905   0.888   7.378  0.00  0.00    +0.000 C 
ATOM     26  F   UNL     1      46.609  -0.296   7.985  0.00  0.00    +0.000 F 
ATOM     27  F   UNL     1      48.249   1.060   7.502  0.00  0.00    +0.000 F 
ENDBRANCH  17  25
ENDBRANCH  16  19
ENDBRANCH   1  16
TORSDOF 5
ENDMDL
MODEL 3
REMARK VINA RESULT:    -6.805      5.927      8.689
REMARK INTER + INTRA:          -9.812
REMARK INTER:                  -9.399
REMARK INTRA:                  -0.413
REMARK UNBOUND:                -1.017
REMARK  Name = 
REMARK  5 active torsions:
REMARK  status: ('A' for Active; 'I' for Inactive)
REMARK    1  A    between atoms: C_2  and  C_5
REMARK    2  A    between atoms: C_7  and  C_8
REMARK    3  A    between atoms: C_8  and  N_9
REMARK    4  A    between atoms: N_9  and  C_10
REMARK    5  A    between atoms: C_14  and  C_15
REMARK                            x       y       z     vdW  Elec       q    Type
REMARK                         _______ _______ _______ _____ _____    ______ ____
ROOT
ATOM      1  N   UNL     1      46.753   4.039  15.143  0.00  0.00    +0.000 N 
ATOM      2  H   UNL     1      47.197   3.158  14.895  0.00  0.00    +0.000 HD
ENDROOT
BRANCH   1   3
ATOM      3  C   UNL     1      46.583   4.864  14.020  0.00  0.00    +0.000 A 
ATOM      4  C   UNL     1      47.582   5.783  13.686  0.00  0.00    +0.000 A 
ATOM      5  C   UNL     1      47.464   6.586  12.551  0.00  0.00    +0.000 A 
ATOM      6  C   UNL     1      46.374   6.438  11.692  0.00  0.00    +0.000 A 
ATOM      7  C   UNL     1      45.408   5.456  11.931  0.00  0.00    +0.000 A 
ATOM      8  C   UNL     1      45.522   4.707  13.120  0.00  0.00    +0.000 A 
BRANCH   7   9
ATOM      9  C   UNL     1      44.250   5.140  10.986  0.00  0.00    +0.000 C 
ATOM     10  C   UNL     1      43.119   4.360  11.694  0.00  0.00    +0.000 C 
ATOM     11  C   UNL     1      43.486   2.891  11.899  0.00  0.00    +0.000 C 
ATOM     12  N   UNL     1      43.775   2.230  10.625  0.00  0.00    +0.000 NA
ATOM     13  C   UNL     1      44.869   2.896   9.920  0.00  0.00    +0.000 C 
ATOM     14  C   UNL     1      44.600   4.387   9.689  0.00  0.00    +0.000 C 
ATOM     15  H   UNL     1      42.938   2.248  10.042  0.00  0.00    +0.000 HD
ENDBRANCH   7   9
ENDBRANCH   1   3
BRANCH   1  16
ATOM     16  C   UNL     1      47.357   4.631  16.330  0.00  0.00    +0.000 C 
BRANCH  16  19
ATOM     17  C   UNL     1      50.826   3.772  17.713  0.00  0.00    +0.000 A 
ATOM     18  C   UNL     1      49.651   4.471  17.378  0.00  0.00    +0.000 A 
ATOM     19  C   UNL     1      48.572   3.833  16.741  0.00  0.00    +0.000 A 
ATOM     20  C   UNL     1      48.673   2.472  16.440  0.00  0.00    +0.000 A 
ATOM     21  C   UNL     1      49.828   1.766  16.771  0.00  0.00    +0.000 A 
ATOM     22  C   UNL     1      50.898   2.412  17.403  0.00  0.00    +0.000 A 
ATOM     23 CL   UNL     1      52.295   1.462  17.764  0.00  0.00    +0.000 Cl
BRANCH  17  25
ATOM     24  F   UNL     1      51.725   5.826  18.558  0.00  0.00    +0.000 F 
ATOM     25  C   UNL     1      51.970   4.497  18.369  0.00  0.00    +0.000 C 
ATOM     26  F   UNL     1      53.118   4.447  17.635  0.00  0.00    +0.000 F 
ATOM     27  F   UNL     1      52.279   4.010  19.602  0.00  0.00    +0.000 F 
ENDBRANCH  17  25
ENDBRANCH  16  19
ENDBRANCH   1  16
TORSDOF 5
ENDMDL
MODEL 4
REMARK VINA RESULT:    -6.763      3.157      4.953
REMARK INTER + INTRA:          -9.757
REMARK INTER:                  -8.767
REMARK INTRA:                  -0.990
REMARK UNBOUND:                -1.017
REMARK  Name = 
REMARK  5 active torsions:
REMARK  status: ('A' for Active; 'I' for Inactive)
REMARK    1  A    between atoms: C_2  and  C_5
REMARK    2  A    between atoms: C_7  and  C_8
REMARK    3  A    between atoms: C_8  and  N_9
REMARK    4  A    between atoms: N_9  and  C_10
REMARK    5  A    between atoms: C_14  and  C_15
REMARK                            x       y       z     vdW  Elec       q    Type
REMARK                         _______ _______ _______ _____ _____    ______ ____
ROOT
ATOM      1  N   UNL     1      48.292   7.387  12.714  0.00  0.00    +0.000 N 
ATOM      2  H   UNL     1      48.552   6.429  12.496  0.00  0.00    +0.000 HD
ENDROOT
BRANCH   1   3
ATOM      3  C   UNL     1      48.487   7.676  14.074  0.00  0.00    +0.000 A 
ATOM      4  C   UNL     1      48.185   8.953  14.556  0.00  0.00    +0.000 A 
ATOM      5  C   UNL     1      48.326   9.258  15.910  0.00  0.00    +0.000 A 
ATOM      6  C   UNL     1      48.709   8.271  16.819  0.00  0.00    +0.000 A 
ATOM      7  C   UNL     1      48.914   6.955  16.396  0.00  0.00    +0.000 A 
ATOM      8  C   UNL     1      48.829   6.695  15.014  0.00  0.00    +0.000 A 
BRANCH   7   9
ATOM      9  C   UNL     1      49.216   5.786  17.333  0.00  0.00    +0.000 C 
ATOM     10  C   UNL     1      48.754   4.435  16.744  0.00  0.00    +0.000 C 
ATOM     11  C   UNL     1      47.240   4.259  16.848  0.00  0.00    +0.000 C 
ATOM     12  N   UNL     1      46.787   4.335  18.237  0.00  0.00    +0.000 NA
ATOM     13  C   UNL     1      47.157   5.612  18.844  0.00  0.00    +0.000 C 
ATOM     14  C   UNL     1      48.662   5.888  18.767  0.00  0.00    +0.000 C 
ATOM     15  H   UNL     1      47.211   3.574  18.768  0.00  0.00    +0.000 HD
ENDBRANCH   7   9
ENDBRANCH   1   3
BRANCH   1  16
ATOM     16  C   UNL     1      47.006   7.743  12.127  0.00  0.00    +0.000 C 
BRANCH  16  19
ATOM     17  C   UNL     1      45.177   4.770  10.547  0.00  0.00    +0.000 A 
ATOM     18  C   UNL     1      46.023   5.880  10.732  0.00  0.00    +0.000 A 
ATOM     19  C   UNL     1      46.147   6.509  11.982  0.00  0.00    +0.000 A 
ATOM     20  C   UNL     1      45.414   6.015  13.065  0.00  0.00    +0.000 A 
ATOM     21  C   UNL     1      44.577   4.912  12.897  0.00  0.00    +0.000 A 
ATOM     22  C   UNL     1      44.459   4.294  11.646  0.00  0.00    +0.000 A 
ATOM     23 CL   UNL     1      43.389   2.943  11.529  0.00  0.00    +0.000 Cl
BRANCH  17  25
ATOM     24  F   UNL     1      45.939   4.641   8.278  0.00  0.00    +0.000 F 
ATOM     25  C   UNL     1      45.050   4.141   9.186  0.00  0.00    +0.000 C 
ATOM     26  F   UNL     1      43.823   4.335   8.626  0.00  0.00    +0.000 F 
ATOM     27  F   UNL     1      45.263   2.797   9.193  0.00  0.00    +0.000 F 
ENDBRANCH  17  25
ENDBRANCH  16  19
ENDBRANCH   1  16
TORSDOF 5
ENDMDL
MODEL 5
REMARK VINA RESULT:    -6.534      4.168      6.240
REMARK INTER + INTRA:          -9.461
REMARK INTER:                  -8.357
REMARK INTRA:                  -1.104
REMARK UNBOUND:                -1.017
REMARK  Name = 
REMARK  5 active torsions:
REMARK  status: ('A' for Active; 'I' for Inactive)
REMARK    1  A    between atoms: C_2  and  C_5
REMARK    2  A    between atoms: C_7  and  C_8
REMARK    3  A    between atoms: C_8  and  N_9
REMARK    4  A    between atoms: N_9  and  C_10
REMARK    5  A    between atoms: C_14  and  C_15
REMARK                            x       y       z     vdW  Elec       q    Type
REMARK                         _______ _______ _______ _____ _____    ______ ____
ROOT
ATOM      1  N   UNL     1      47.950   7.911  14.682  0.00  0.00    +0.000 N 
ATOM      2  H   UNL     1      47.967   8.920  14.812  0.00  0.00    +0.000 HD
ENDROOT
BRANCH   1   3
ATOM      3  C   UNL     1      48.771   7.259  15.616  0.00  0.00    +0.000 A 
ATOM      4  C   UNL     1      49.910   7.908  16.100  0.00  0.00    +0.000 A 
ATOM      5  C   UNL     1      50.722   7.304  17.062  0.00  0.00    +0.000 A 
ATOM      6  C   UNL     1      50.371   6.068  17.606  0.00  0.00    +0.000 A 
ATOM      7  C   UNL     1      49.183   5.437  17.229  0.00  0.00    +0.000 A 
ATOM      8  C   UNL     1      48.420   6.040  16.209  0.00  0.00    +0.000 A 
BRANCH   7   9
ATOM      9  C   UNL     1      48.658   4.146  17.857  0.00  0.00    +0.000 C 
ATOM     10  C   UNL     1      49.795   3.151  18.177  0.00  0.00    +0.000 C 
ATOM     11  C   UNL     1      50.307   2.450  16.918  0.00  0.00    +0.000 C 
ATOM     12  N   UNL     1      49.234   1.722  16.239  0.00  0.00    +0.000 NA
ATOM     13  C   UNL     1      48.139   2.617  15.869  0.00  0.00    +0.000 C 
ATOM     14  C   UNL     1      47.574   3.385  17.069  0.00  0.00    +0.000 C 
ATOM     15  H   UNL     1      48.880   0.995  16.860  0.00  0.00    +0.000 HD
ENDBRANCH   7   9
ENDBRANCH   1   3
BRANCH   1  16
ATOM     16  C   UNL     1      48.103   7.546  13.279  0.00  0.00    +0.000 C 
BRANCH  16  19
ATOM     17  C   UNL     1      45.437   4.997  12.241  0.00  0.00    +0.000 A 
ATOM     18  C   UNL     1      46.599   5.577  12.783  0.00  0.00    +0.000 A 
ATOM     19  C   UNL     1      46.811   6.966  12.754  0.00  0.00    +0.000 A 
ATOM     20  C   UNL     1      45.839   7.786  12.175  0.00  0.00    +0.000 A 
ATOM     21  C   UNL     1      44.680   7.227  11.639  0.00  0.00    +0.000 A 
ATOM     22  C   UNL     1      44.481   5.841  11.671  0.00  0.00    +0.000 A 
ATOM     23 CL   UNL     1      43.023   5.234  10.972  0.00  0.00    +0.000 Cl
BRANCH  17  25
ATOM     24  F   UNL     1      46.246   2.858  12.956  0.00  0.00    +0.000 F 
ATOM     25  C   UNL     1      45.260   3.503  12.266  0.00  0.00    +0.000 C 
ATOM     26  F   UNL     1      45.274   2.947  11.022  0.00  0.00    +0.000 F 
ATOM     27  F   UNL     1      44.096   3.109  12.852  0.00  0.00    +0.000 F 
ENDBRANCH  17  25
ENDBRANCH  16  19
ENDBRANCH   1  16
TORSDOF 5
ENDMDL
MODEL 6
REMARK VINA RESULT:    -6.483      4.916      8.039
REMARK INTER + INTRA:          -9.395
REMARK INTER:                  -8.385
REMARK INTRA:                  -1.010
REMARK UNBOUND:                -1.017
REMARK  Name = 
REMARK  5 active torsions:
REMARK  status: ('A' for Active; 'I' for Inactive)
REMARK    1  A    between atoms: C_2  and  C_5
REMARK    2  A    between atoms: C_7  and  C_8
REMARK    3  A    between atoms: C_8  and  N_9
REMARK    4  A    between atoms: N_9  and  C_10
REMARK    5  A    between atoms: C_14  and  C_15
REMARK                            x       y       z     vdW  Elec       q    Type
REMARK                         _______ _______ _______ _____ _____    ______ ____
ROOT
ATOM      1  N   UNL     1      48.660   7.117  13.546  0.00  0.00    +0.000 N 
ATOM      2  H   UNL     1      49.371   7.193  12.823  0.00  0.00    +0.000 HD
ENDROOT
BRANCH   1   3
ATOM      3  C   UNL     1      47.377   7.367  13.036  0.00  0.00    +0.000 A 
ATOM      4  C   UNL     1      46.887   8.675  13.019  0.00  0.00    +0.000 A 
ATOM      5  C   UNL     1      45.633   8.962  12.478  0.00  0.00    +0.000 A 
ATOM      6  C   UNL     1      44.875   7.954  11.881  0.00  0.00    +0.000 A 
ATOM      7  C   UNL     1      45.375   6.654  11.779  0.00  0.00    +0.000 A 
ATOM      8  C   UNL     1      46.614   6.382  12.394  0.00  0.00    +0.000 A 
BRANCH   7   9
ATOM      9  C   UNL     1      44.672   5.516  11.039  0.00  0.00    +0.000 C 
ATOM     10  C   UNL     1      43.180   5.407  11.425  0.00  0.00    +0.000 C 
ATOM     11  C   UNL     1      42.995   4.763  12.799  0.00  0.00    +0.000 C 
ATOM     12  N   UNL     1      43.582   3.424  12.845  0.00  0.00    +0.000 NA
ATOM     13  C   UNL     1      45.010   3.461  12.529  0.00  0.00    +0.000 C 
ATOM     14  C   UNL     1      45.296   4.114  11.172  0.00  0.00    +0.000 C 
ATOM     15  H   UNL     1      43.104   2.826  12.170  0.00  0.00    +0.000 HD
ENDBRANCH   7   9
ENDBRANCH   1   3
BRANCH   1  16
ATOM     16  C   UNL     1      49.051   7.820  14.762  0.00  0.00    +0.000 C 
BRANCH  16  19
ATOM     17  C   UNL     1      48.435   4.672  16.857  0.00  0.00    +0.000 A 
ATOM     18  C   UNL     1      48.559   5.556  15.768  0.00  0.00    +0.000 A 
ATOM     19  C   UNL     1      49.000   6.878  15.942  0.00  0.00    +0.000 A 
ATOM     20  C   UNL     1      49.325   7.321  17.228  0.00  0.00    +0.000 A 
ATOM     21  C   UNL     1      49.212   6.455  18.314  0.00  0.00    +0.000 A 
ATOM     22  C   UNL     1      48.769   5.139  18.130  0.00  0.00    +0.000 A 
ATOM     23 CL   UNL     1      48.647   4.141  19.535  0.00  0.00    +0.000 Cl
BRANCH  17  25
ATOM     24  F   UNL     1      47.572   3.030  15.339  0.00  0.00    +0.000 F 
ATOM     25  C   UNL     1      47.932   3.271  16.634  0.00  0.00    +0.000 C 
ATOM     26  F   UNL     1      46.823   2.983  17.372  0.00  0.00    +0.000 F 
ATOM     27  F   UNL     1      48.854   2.316  16.934  0.00  0.00    +0.000 F 
ENDBRANCH  17  25
ENDBRANCH  16  19
ENDBRANCH   1  16
TORSDOF 5
ENDMDL
MODEL 7
REMARK VINA RESULT:    -6.233      4.451      6.425
REMARK INTER + INTRA:          -9.073
REMARK INTER:                  -8.114
REMARK INTRA:                  -0.959
REMARK UNBOUND:                -1.017
REMARK  Name = 
REMARK  5 active torsions:
REMARK  status: ('A' for Active; 'I' for Inactive)
REMARK    1  A    between atoms: C_2  and  C_5
REMARK    2  A    between atoms: C_7  and  C_8
REMARK    3  A    between atoms: C_8  and  N_9
REMARK    4  A    between atoms: N_9  and  C_10
REMARK    5  A    between atoms: C_14  and  C_15
REMARK                            x       y       z     vdW  Elec       q    Type
REMARK                         _______ _______ _______ _____ _____    ______ ____
ROOT
ATOM      1  N   UNL     1      48.887   7.015  14.072  0.00  0.00    +0.000 N 
ATOM      2  H   UNL     1      49.089   6.070  13.754  0.00  0.00    +0.000 HD
ENDROOT
BRANCH   1   3
ATOM      3  C   UNL     1      49.082   7.144  15.456  0.00  0.00    +0.000 A 
ATOM      4  C   UNL     1      48.515   8.228  16.132  0.00  0.00    +0.000 A 
ATOM      5  C   UNL     1      48.654   8.361  17.514  0.00  0.00    +0.000 A 
ATOM      6  C   UNL     1      49.308   7.376  18.255  0.00  0.00    +0.000 A 
ATOM      7  C   UNL     1      49.794   6.223  17.633  0.00  0.00    +0.000 A 
ATOM      8  C   UNL     1      49.697   6.150  16.229  0.00  0.00    +0.000 A 
BRANCH   7   9
ATOM      9  C   UNL     1      50.414   5.040  18.376  0.00  0.00    +0.000 C 
ATOM     10  C   UNL     1      49.971   3.684  17.782  0.00  0.00    +0.000 C 
ATOM     11  C   UNL     1      48.543   3.325  18.193  0.00  0.00    +0.000 C 
ATOM     12  N   UNL     1      48.407   3.258  19.649  0.00  0.00    +0.000 NA
ATOM     13  C   UNL     1      48.772   4.528  20.273  0.00  0.00    +0.000 C 
ATOM     14  C   UNL     1      50.187   4.984  19.899  0.00  0.00    +0.000 C 
ATOM     15  H   UNL     1      49.013   2.520  20.007  0.00  0.00    +0.000 HD
ENDBRANCH   7   9
ENDBRANCH   1   3
BRANCH   1  16
ATOM     16  C   UNL     1      47.633   7.511  13.519  0.00  0.00    +0.000 C 
BRANCH  16  19
ATOM     17  C   UNL     1      44.614   5.536  12.229  0.00  0.00    +0.000 A 
ATOM     18  C   UNL     1      45.512   6.584  12.507  0.00  0.00    +0.000 A 
ATOM     19  C   UNL     1      46.728   6.353  13.172  0.00  0.00    +0.000 A 
ATOM     20  C   UNL     1      47.050   5.049  13.561  0.00  0.00    +0.000 A 
ATOM     21  C   UNL     1      46.173   4.001  13.287  0.00  0.00    +0.000 A 
ATOM     22  C   UNL     1      44.962   4.242  12.626  0.00  0.00    +0.000 A 
ATOM     23 CL   UNL     1      43.932   2.886  12.341  0.00  0.00    +0.000 Cl
BRANCH  17  25
ATOM     24  F   UNL     1      43.149   5.132  10.376  0.00  0.00    +0.000 F 
ATOM     25  C   UNL     1      43.308   5.828  11.540  0.00  0.00    +0.000 C 
ATOM     26  F   UNL     1      43.175   7.139  11.193  0.00  0.00    +0.000 F 
ATOM     27  F   UNL     1      42.221   5.516  12.296  0.00  0.00    +0.000 F 
ENDBRANCH  17  25
ENDBRANCH  16  19
ENDBRANCH   1  16
TORSDOF 5
ENDMDL
MODEL 8
REMARK VINA RESULT:    -6.207      5.310      8.547
REMARK INTER + INTRA:          -9.039
REMARK INTER:                  -8.125
REMARK INTRA:                  -0.914
REMARK UNBOUND:                -1.017
REMARK  Name = 
REMARK  5 active torsions:
REMARK  status: ('A' for Active; 'I' for Inactive)
REMARK    1  A    between atoms: C_2  and  C_5
REMARK    2  A    between atoms: C_7  and  C_8
REMARK    3  A    between atoms: C_8  and  N_9
REMARK    4  A    between atoms: N_9  and  C_10
REMARK    5  A    between atoms: C_14  and  C_15
REMARK                            x       y       z     vdW  Elec       q    Type
REMARK                         _______ _______ _______ _____ _____    ______ ____
ROOT
ATOM      1  N   UNL     1      49.066   7.061  13.235  0.00  0.00    +0.000 N 
ATOM      2  H   UNL     1      49.595   7.257  12.389  0.00  0.00    +0.000 HD
ENDROOT
BRANCH   1   3
ATOM      3  C   UNL     1      47.684   7.057  12.989  0.00  0.00    +0.000 A 
ATOM      4  C   UNL     1      47.105   8.130  12.306  0.00  0.00    +0.000 A 
ATOM      5  C   UNL     1      45.742   8.135  12.007  0.00  0.00    +0.000 A 
ATOM      6  C   UNL     1      44.945   7.035  12.328  0.00  0.00    +0.000 A 
ATOM      7  C   UNL     1      45.506   5.897  12.913  0.00  0.00    +0.000 A 
ATOM      8  C   UNL     1      46.870   5.950  13.262  0.00  0.00    +0.000 A 
BRANCH   7   9
ATOM      9  C   UNL     1      44.740   4.604  13.189  0.00  0.00    +0.000 C 
ATOM     10  C   UNL     1      45.310   3.409  12.392  0.00  0.00    +0.000 C 
ATOM     11  C   UNL     1      44.897   3.460  10.921  0.00  0.00    +0.000 C 
ATOM     12  N   UNL     1      43.441   3.458  10.775  0.00  0.00    +0.000 NA
ATOM     13  C   UNL     1      42.839   4.593  11.474  0.00  0.00    +0.000 C 
ATOM     14  C   UNL     1      43.217   4.639  12.958  0.00  0.00    +0.000 C 
ATOM     15  H   UNL     1      43.068   2.590  11.158  0.00  0.00    +0.000 HD
ENDBRANCH   7   9
ENDBRANCH   1   3
BRANCH   1  16
ATOM     16  C   UNL     1      49.547   7.847  14.365  0.00  0.00    +0.000 C 
BRANCH  16  19
ATOM     17  C   UNL     1      49.261   5.362  17.268  0.00  0.00    +0.000 A 
ATOM     18  C   UNL     1      48.948   6.173  16.161  0.00  0.00    +0.000 A 
ATOM     19  C   UNL     1      49.932   6.931  15.503  0.00  0.00    +0.000 A 
ATOM     20  C   UNL     1      51.251   6.872  15.961  0.00  0.00    +0.000 A 
ATOM     21  C   UNL     1      51.576   6.068  17.053  0.00  0.00    +0.000 A 
ATOM     22  C   UNL     1      50.588   5.319  17.703  0.00  0.00    +0.000 A 
ATOM     23 CL   UNL     1      51.079   4.363  19.055  0.00  0.00    +0.000 Cl
BRANCH  17  25
ATOM     24  F   UNL     1      48.404   3.242  17.984  0.00  0.00    +0.000 F 
ATOM     25  C   UNL     1      48.174   4.588  17.963  0.00  0.00    +0.000 C 
ATOM     26  F   UNL     1      46.957   4.732  17.367  0.00  0.00    +0.000 F 
ATOM     27  F   UNL     1      48.011   4.944  19.267  0.00  0.00    +0.000 F 
ENDBRANCH  17  25
ENDBRANCH  16  19
ENDBRANCH   1  16
TORSDOF 5
ENDMDL
MODEL 9
REMARK VINA RESULT:    -6.064      4.866      6.492
REMARK INTER + INTRA:          -8.854
REMARK INTER:                  -7.983
REMARK INTRA:                  -0.871
REMARK UNBOUND:                -1.017
REMARK  Name = 
REMARK  5 active torsions:
REMARK  status: ('A' for Active; 'I' for Inactive)
REMARK    1  A    between atoms: C_2  and  C_5
REMARK    2  A    between atoms: C_7  and  C_8
REMARK    3  A    between atoms: C_8  and  N_9
REMARK    4  A    between atoms: N_9  and  C_10
REMARK    5  A    between atoms: C_14  and  C_15
REMARK                            x       y       z     vdW  Elec       q    Type
REMARK                         _______ _______ _______ _____ _____    ______ ____
ROOT
ATOM      1  N   UNL     1      46.691   3.693  15.784  0.00  0.00    +0.000 N 
ATOM      2  H   UNL     1      45.845   4.240  15.924  0.00  0.00    +0.000 HD
ENDROOT
BRANCH   1   3
ATOM      3  C   UNL     1      47.593   3.860  16.846  0.00  0.00    +0.000 A 
ATOM      4  C   UNL     1      48.804   3.164  16.836  0.00  0.00    +0.000 A 
ATOM      5  C   UNL     1      49.741   3.342  17.854  0.00  0.00    +0.000 A 
ATOM      6  C   UNL     1      49.511   4.273  18.868  0.00  0.00    +0.000 A 
ATOM      7  C   UNL     1      48.363   5.069  18.857  0.00  0.00    +0.000 A 
ATOM      8  C   UNL     1      47.407   4.817  17.853  0.00  0.00    +0.000 A 
BRANCH   7   9
ATOM      9  C   UNL     1      48.085   6.193  19.853  0.00  0.00    +0.000 C 
ATOM     10  C   UNL     1      47.423   7.416  19.179  0.00  0.00    +0.000 C 
ATOM     11  C   UNL     1      48.433   8.238  18.379  0.00  0.00    +0.000 C 
ATOM     12  N   UNL     1      49.526   8.715  19.228  0.00  0.00    +0.000 NA
ATOM     13  C   UNL     1      50.224   7.599  19.866  0.00  0.00    +0.000 C 
ATOM     14  C   UNL     1      49.284   6.701  20.676  0.00  0.00    +0.000 C 
ATOM     15  H   UNL     1      49.146   9.330  19.947  0.00  0.00    +0.000 HD
ENDBRANCH   7   9
ENDBRANCH   1   3
BRANCH   1  16
ATOM     16  C   UNL     1      47.209   3.839  14.430  0.00  0.00    +0.000 C 
BRANCH  16  19
ATOM     17  C   UNL     1      44.414   5.300  12.253  0.00  0.00    +0.000 A 
ATOM     18  C   UNL     1      45.184   4.416  13.032  0.00  0.00    +0.000 A 
ATOM     19  C   UNL     1      46.369   4.833  13.662  0.00  0.00    +0.000 A 
ATOM     20  C   UNL     1      46.786   6.159  13.510  0.00  0.00    +0.000 A 
ATOM     21  C   UNL     1      46.031   7.046  12.746  0.00  0.00    +0.000 A 
ATOM     22  C   UNL     1      44.853   6.620  12.120  0.00  0.00    +0.000 A 
ATOM     23 CL   UNL     1      43.988   7.784  11.182  0.00  0.00    +0.000 Cl
BRANCH  17  25
ATOM     24  F   UNL     1      42.046   5.494  11.943  0.00  0.00    +0.000 F 
ATOM     25  C   UNL     1      43.166   4.808  11.571  0.00  0.00    +0.000 C 
ATOM     26  F   UNL     1      42.892   3.502  11.846  0.00  0.00    +0.000 F 
ATOM     27  F   UNL     1      43.218   4.914  10.215  0.00  0.00    +0.000 F 
ENDBRANCH  17  25
ENDBRANCH  16  19
ENDBRANCH   1  16
TORSDOF 5
ENDMDL
