MODEL 1
REMARK VINA RESULT:    -7.839      0.000      0.000
REMARK INTER + INTRA:         -10.917
REMARK INTER:                 -10.359
REMARK INTRA:                  -0.558
REMARK UNBOUND:                -0.558
REMARK  Name = 
REMARK  6 active torsions:
REMARK  status: ('A' for Active; 'I' for Inactive)
REMARK    1  A    between atoms: N_1  and  C_2
REMARK    2  A    between atoms: C_2  and  C_3
REMARK    3  A    between atoms: C_3  and  C_4
REMARK    4  A    between atoms: C_7  and  C_8
REMARK    5  A    between atoms: C_8  and  N_9
REMARK    6  A    between atoms: C_14  and  C_15
REMARK                            x       y       z     vdW  Elec       q    Type
REMARK                         _______ _______ _______ _____ _____    ______ ____
ROOT
ATOM      1  N   UNL     1      43.490   4.508  11.959  0.00  0.00    +0.000 N 
ATOM      2  C   UNL     1      42.452   5.392  11.795  0.00  0.00    +0.000 A 
ATOM      3  N   UNL     1      42.851   6.637  11.875  0.00  0.00    +0.000 NA
ATOM      4  C   UNL     1      44.190   6.568  12.146  0.00  0.00    +0.000 A 
ATOM      5  C   UNL     1      45.130   7.608  12.198  0.00  0.00    +0.000 A 
ATOM      6  C   UNL     1      46.477   7.308  12.454  0.00  0.00    +0.000 A 
ATOM      7  C   UNL     1      46.840   6.002  12.792  0.00  0.00    +0.000 A 
ATOM      8  C   UNL     1      45.906   4.955  12.756  0.00  0.00    +0.000 A 
ATOM      9 CL   UNL     1      46.413   3.383  13.229  0.00  0.00    +0.000 Cl
ATOM     10  C   UNL     1      44.597   5.250  12.342  0.00  0.00    +0.000 A 
ENDROOT
BRANCH   6  11
ATOM     11  C   UNL     1      47.462   8.414  12.276  0.00  0.00    +0.000 C 
ATOM     12  N   UNL     1      48.715   8.123  11.820  0.00  0.00    +0.000 N 
ATOM     13  O   UNL     1      47.153   9.581  12.486  0.00  0.00    +0.000 OA
ATOM     14  H   UNL     1      49.074   7.207  11.605  0.00  0.00    +0.000 HD
ATOM     15  H   UNL     1      49.322   8.917  11.649  0.00  0.00    +0.000 HD
ENDBRANCH   6  11
BRANCH   1  16
ATOM     16  C   UNL     1      43.534   3.188  11.327  0.00  0.00    +0.000 C 
BRANCH  16  20
ATOM     17  C   UNL     1      45.846   2.979   7.663  0.00  0.00    +0.000 A 
ATOM     18  C   UNL     1      45.279   4.188   8.077  0.00  0.00    +0.000 A 
ATOM     19  C   UNL     1      44.521   4.253   9.252  0.00  0.00    +0.000 A 
ATOM     20  C   UNL     1      44.314   3.109  10.037  0.00  0.00    +0.000 A 
ATOM     21  C   UNL     1      44.894   1.901   9.628  0.00  0.00    +0.000 A 
ATOM     22  C   UNL     1      45.660   1.841   8.459  0.00  0.00    +0.000 A 
BRANCH  17  23
ATOM     23  C   UNL     1      46.624   2.895   6.370  0.00  0.00    +0.000 C 
BRANCH  23  24
ATOM     24  C   UNL     1      48.092   2.501   6.565  0.00  0.00    +0.000 C 
BRANCH  24  25
ATOM     25  N   UNL     1      48.571   1.706   5.432  0.00  0.00    +0.000 NA
ATOM     26  H   UNL     1      48.316   2.169   4.560  0.00  0.00    +0.000 HD
ATOM     27  H   UNL     1      48.100   0.802   5.421  0.00  0.00    +0.000 HD
ENDBRANCH  24  25
ENDBRANCH  23  24
ENDBRANCH  17  23
ENDBRANCH  16  20
ENDBRANCH   1  16
TORSDOF 6
ENDMDL
MODEL 2
REMARK VINA RESULT:    -7.627      1.199      1.700
REMARK INTER + INTRA:         -10.638
REMARK INTER:                 -10.157
REMARK INTRA:                  -0.480
REMARK UNBOUND:                -0.558
REMARK  Name = 
REMARK  6 active torsions:
REMARK  status: ('A' for Active; 'I' for Inactive)
REMARK    1  A    between atoms: N_1  and  C_2
REMARK    2  A    between atoms: C_2  and  C_3
REMARK    3  A    between atoms: C_3  and  C_4
REMARK    4  A    between atoms: C_7  and  C_8
REMARK    5  A    between atoms: C_8  and  N_9
REMARK    6  A    between atoms: C_14  and  C_15
REMARK                            x       y       z     vdW  Elec       q    Type
REMARK                         _______ _______ _______ _____ _____    ______ ____
ROOT
ATOM      1  N   UNL     1      44.367   5.782  11.981  0.00  0.00    +0.000 N 
ATOM      2  C   UNL     1      43.724   6.927  11.582  0.00  0.00    +0.000 A 
ATOM      3  N   UNL     1      44.537   7.952  11.525  0.00  0.00    +0.000 NA
ATOM      4  C   UNL     1      45.747   7.473  11.944  0.00  0.00    +0.000 A 
ATOM      5  C   UNL     1      46.993   8.118  11.945  0.00  0.00    +0.000 A 
ATOM      6  C   UNL     1      48.130   7.420  12.384  0.00  0.00    +0.000 A 
ATOM      7  C   UNL     1      47.985   6.148  12.944  0.00  0.00    +0.000 A 
ATOM      8  C   UNL     1      46.741   5.498  12.959  0.00  0.00    +0.000 A 
ATOM      9 CL   UNL     1      46.628   3.955  13.705  0.00  0.00    +0.000 Cl
ATOM     10  C   UNL     1      45.646   6.150  12.370  0.00  0.00    +0.000 A 
ENDROOT
BRANCH   6  11
ATOM     11  C   UNL     1      49.452   8.070  12.155  0.00  0.00    +0.000 C 
ATOM     12  N   UNL     1      50.546   7.289  11.916  0.00  0.00    +0.000 N 
ATOM     13  O   UNL     1      49.566   9.290  12.131  0.00  0.00    +0.000 OA
ATOM     14  H   UNL     1      50.569   6.283  11.902  0.00  0.00    +0.000 HD
ATOM     15  H   UNL     1      51.405   7.781  11.696  0.00  0.00    +0.000 HD
ENDBRANCH   6  11
BRANCH   1  16
ATOM     16  C   UNL     1      43.967   4.440  11.554  0.00  0.00    +0.000 C 
BRANCH  16  20
ATOM     17  C   UNL     1      45.799   2.985   7.902  0.00  0.00    +0.000 A 
ATOM     18  C   UNL     1      45.177   2.099   8.787  0.00  0.00    +0.000 A 
ATOM     19  C   UNL     1      44.598   2.566   9.972  0.00  0.00    +0.000 A 
ATOM     20  C   UNL     1      44.630   3.931  10.298  0.00  0.00    +0.000 A 
ATOM     21  C   UNL     1      45.241   4.819   9.403  0.00  0.00    +0.000 A 
ATOM     22  C   UNL     1      45.810   4.352   8.214  0.00  0.00    +0.000 A 
BRANCH  17  23
ATOM     23  C   UNL     1      46.467   2.478   6.645  0.00  0.00    +0.000 C 
BRANCH  23  24
ATOM     24  C   UNL     1      47.988   2.337   6.776  0.00  0.00    +0.000 C 
BRANCH  24  25
ATOM     25  N   UNL     1      48.569   1.814   5.538  0.00  0.00    +0.000 NA
ATOM     26  H   UNL     1      48.109   0.939   5.289  0.00  0.00    +0.000 HD
ATOM     27  H   UNL     1      49.551   1.585   5.687  0.00  0.00    +0.000 HD
ENDBRANCH  24  25
ENDBRANCH  23  24
ENDBRANCH  17  23
ENDBRANCH  16  20
ENDBRANCH   1  16
TORSDOF 6
ENDMDL
MODEL 3
REMARK VINA RESULT:    -6.281      2.620      3.211
REMARK INTER + INTRA:          -8.858
REMARK INTER:                  -8.301
REMARK INTRA:                  -0.557
REMARK UNBOUND:                -0.558
REMARK  Name = 
REMARK  6 active torsions:
REMARK  status: ('A' for Active; 'I' for Inactive)
REMARK    1  A    between atoms: N_1  and  C_2
REMARK    2  A    between atoms: C_2  and  C_3
REMARK    3  A    between atoms: C_3  and  C_4
REMARK    4  A    between atoms: C_7  and  C_8
REMARK    5  A    between atoms: C_8  and  N_9
REMARK    6  A    between atoms: C_14  and  C_15
REMARK                            x       y       z     vdW  Elec       q    Type
REMARK                         _______ _______ _______ _____ _____    ______ ____
ROOT
ATOM      1  N   UNL     1      46.228   4.682  12.482  0.00  0.00    +0.000 N 
ATOM      2  C   UNL     1      46.044   3.608  13.318  0.00  0.00    +0.000 A 
ATOM      3  N   UNL     1      46.612   3.791  14.483  0.00  0.00    +0.000 NA
ATOM      4  C   UNL     1      47.228   5.009  14.395  0.00  0.00    +0.000 A 
ATOM      5  C   UNL     1      47.866   5.745  15.405  0.00  0.00    +0.000 A 
ATOM      6  C   UNL     1      48.401   7.008  15.105  0.00  0.00    +0.000 A 
ATOM      7  C   UNL     1      48.417   7.453  13.780  0.00  0.00    +0.000 A 
ATOM      8  C   UNL     1      47.793   6.719  12.759  0.00  0.00    +0.000 A 
ATOM      9 CL   UNL     1      47.892   7.303  11.147  0.00  0.00    +0.000 Cl
ATOM     10  C   UNL     1      47.125   5.535  13.109  0.00  0.00    +0.000 A 
ENDROOT
BRANCH   6  11
ATOM     11  C   UNL     1      48.863   7.837  16.254  0.00  0.00    +0.000 C 
ATOM     12  N   UNL     1      48.054   8.828  16.730  0.00  0.00    +0.000 N 
ATOM     13  O   UNL     1      49.934   7.616  16.808  0.00  0.00    +0.000 OA
ATOM     14  H   UNL     1      47.154   9.091  16.362  0.00  0.00    +0.000 HD
ATOM     15  H   UNL     1      48.384   9.314  17.556  0.00  0.00    +0.000 HD
ENDBRANCH   6  11
BRANCH   1  16
ATOM     16  C   UNL     1      45.266   5.077  11.451  0.00  0.00    +0.000 C 
BRANCH  16  20
ATOM     17  C   UNL     1      45.880   3.181   7.599  0.00  0.00    +0.000 A 
ATOM     18  C   UNL     1      46.292   4.499   7.816  0.00  0.00    +0.000 A 
ATOM     19  C   UNL     1      46.082   5.116   9.053  0.00  0.00    +0.000 A 
ATOM     20  C   UNL     1      45.453   4.427  10.102  0.00  0.00    +0.000 A 
ATOM     21  C   UNL     1      45.054   3.101   9.888  0.00  0.00    +0.000 A 
ATOM     22  C   UNL     1      45.275   2.483   8.653  0.00  0.00    +0.000 A 
BRANCH  17  23
ATOM     23  C   UNL     1      46.062   2.527   6.249  0.00  0.00    +0.000 C 
BRANCH  23  24
ATOM     24  C   UNL     1      47.389   2.886   5.570  0.00  0.00    +0.000 C 
BRANCH  24  25
ATOM     25  N   UNL     1      48.361   1.801   5.724  0.00  0.00    +0.000 NA
ATOM     26  H   UNL     1      48.553   1.655   6.715  0.00  0.00    +0.000 HD
ATOM     27  H   UNL     1      49.247   2.069   5.300  0.00  0.00    +0.000 HD
ENDBRANCH  24  25
ENDBRANCH  23  24
ENDBRANCH  17  23
ENDBRANCH  16  20
ENDBRANCH   1  16
TORSDOF 6
ENDMDL
MODEL 4
REMARK VINA RESULT:    -6.268      2.196      3.302
REMARK INTER + INTRA:          -8.841
REMARK INTER:                  -8.404
REMARK INTRA:                  -0.438
REMARK UNBOUND:                -0.558
REMARK  Name = 
REMARK  6 active torsions:
REMARK  status: ('A' for Active; 'I' for Inactive)
REMARK    1  A    between atoms: N_1  and  C_2
REMARK    2  A    between atoms: C_2  and  C_3
REMARK    3  A    between atoms: C_3  and  C_4
REMARK    4  A    between atoms: C_7  and  C_8
REMARK    5  A    between atoms: C_8  and  N_9
REMARK    6  A    between atoms: C_14  and  C_15
REMARK                            x       y       z     vdW  Elec       q    Type
REMARK                         _______ _______ _______ _____ _____    ______ ____
ROOT
ATOM      1  N   UNL     1      45.571   7.657  12.880  0.00  0.00    +0.000 N 
ATOM      2  C   UNL     1      45.188   8.869  12.362  0.00  0.00    +0.000 A 
ATOM      3  N   UNL     1      46.214   9.584  11.973  0.00  0.00    +0.000 NA
ATOM      4  C   UNL     1      47.313   8.832  12.287  0.00  0.00    +0.000 A 
ATOM      5  C   UNL     1      48.658   9.067  11.965  0.00  0.00    +0.000 A 
ATOM      6  C   UNL     1      49.633   8.135  12.353  0.00  0.00    +0.000 A 
ATOM      7  C   UNL     1      49.274   7.063  13.174  0.00  0.00    +0.000 A 
ATOM      8  C   UNL     1      47.933   6.825  13.513  0.00  0.00    +0.000 A 
ATOM      9 CL   UNL     1      47.570   5.515  14.564  0.00  0.00    +0.000 Cl
ATOM     10  C   UNL     1      46.954   7.679  12.983  0.00  0.00    +0.000 A 
ENDROOT
BRANCH   6  11
ATOM     11  C   UNL     1      51.004   8.318  11.795  0.00  0.00    +0.000 C 
ATOM     12  N   UNL     1      52.079   7.872  12.508  0.00  0.00    +0.000 N 
ATOM     13  O   UNL     1      51.180   8.816  10.689  0.00  0.00    +0.000 OA
ATOM     14  H   UNL     1      52.054   7.441  13.418  0.00  0.00    +0.000 HD
ATOM     15  H   UNL     1      52.981   7.956  12.053  0.00  0.00    +0.000 HD
ENDBRANCH   6  11
BRANCH   1  16
ATOM     16  C   UNL     1      44.749   6.448  12.800  0.00  0.00    +0.000 C 
BRANCH  16  20
ATOM     17  C   UNL     1      44.958   4.261   9.060  0.00  0.00    +0.000 A 
ATOM     18  C   UNL     1      45.896   5.255   9.356  0.00  0.00    +0.000 A 
ATOM     19  C   UNL     1      45.821   5.970  10.556  0.00  0.00    +0.000 A 
ATOM     20  C   UNL     1      44.804   5.708  11.487  0.00  0.00    +0.000 A 
ATOM     21  C   UNL     1      43.873   4.702  11.195  0.00  0.00    +0.000 A 
ATOM     22  C   UNL     1      43.956   3.980  10.000  0.00  0.00    +0.000 A 
BRANCH  17  23
ATOM     23  C   UNL     1      45.007   3.520   7.744  0.00  0.00    +0.000 C 
BRANCH  23  24
ATOM     24  C   UNL     1      46.428   3.154   7.303  0.00  0.00    +0.000 C 
BRANCH  24  25
ATOM     25  N   UNL     1      46.888   4.049   6.239  0.00  0.00    +0.000 NA
ATOM     26  H   UNL     1      46.645   5.011   6.475  0.00  0.00    +0.000 HD
ATOM     27  H   UNL     1      46.396   3.837   5.372  0.00  0.00    +0.000 HD
ENDBRANCH  24  25
ENDBRANCH  23  24
ENDBRANCH  17  23
ENDBRANCH  16  20
ENDBRANCH   1  16
TORSDOF 6
ENDMDL
MODEL 5
REMARK VINA RESULT:    -6.075      3.284      4.122
REMARK INTER + INTRA:          -8.586
REMARK INTER:                  -8.066
REMARK INTRA:                  -0.520
REMARK UNBOUND:                -0.558
REMARK  Name = 
REMARK  6 active torsions:
REMARK  status: ('A' for Active; 'I' for Inactive)
REMARK    1  A    between atoms: N_1  and  C_2
REMARK    2  A    between atoms: C_2  and  C_3
REMARK    3  A    between atoms: C_3  and  C_4
REMARK    4  A    between atoms: C_7  and  C_8
REMARK    5  A    between atoms: C_8  and  N_9
REMARK    6  A    between atoms: C_14  and  C_15
REMARK                            x       y       z     vdW  Elec       q    Type
REMARK                         _______ _______ _______ _____ _____    ______ ____
ROOT
ATOM      1  N   UNL     1      46.735   5.216  13.878  0.00  0.00    +0.000 N 
ATOM      2  C   UNL     1      46.992   4.101  14.635  0.00  0.00    +0.000 A 
ATOM      3  N   UNL     1      47.857   4.343  15.588  0.00  0.00    +0.000 NA
ATOM      4  C   UNL     1      48.215   5.653  15.422  0.00  0.00    +0.000 A 
ATOM      5  C   UNL     1      49.010   6.457  16.252  0.00  0.00    +0.000 A 
ATOM      6  C   UNL     1      49.219   7.803  15.914  0.00  0.00    +0.000 A 
ATOM      7  C   UNL     1      48.753   8.286  14.688  0.00  0.00    +0.000 A 
ATOM      8  C   UNL     1      47.966   7.487  13.844  0.00  0.00    +0.000 A 
ATOM      9 CL   UNL     1      47.467   8.131  12.331  0.00  0.00    +0.000 Cl
ATOM     10  C   UNL     1      47.636   6.193  14.276  0.00  0.00    +0.000 A 
ENDROOT
BRANCH   6  11
ATOM     11  C   UNL     1      49.879   8.664  16.938  0.00  0.00    +0.000 C 
ATOM     12  N   UNL     1      50.501   9.813  16.542  0.00  0.00    +0.000 N 
ATOM     13  O   UNL     1      49.833   8.383  18.130  0.00  0.00    +0.000 OA
ATOM     14  H   UNL     1      50.591  10.146  15.596  0.00  0.00    +0.000 HD
ATOM     15  H   UNL     1      50.870  10.396  17.283  0.00  0.00    +0.000 HD
ENDBRANCH   6  11
BRANCH   1  16
ATOM     16  C   UNL     1      45.451   5.469  13.220  0.00  0.00    +0.000 C 
BRANCH  16  20
ATOM     17  C   UNL     1      45.161   3.902   9.186  0.00  0.00    +0.000 A 
ATOM     18  C   UNL     1      45.607   5.208   9.411  0.00  0.00    +0.000 A 
ATOM     19  C   UNL     1      45.688   5.719  10.711  0.00  0.00    +0.000 A 
ATOM     20  C   UNL     1      45.322   4.934  11.815  0.00  0.00    +0.000 A 
ATOM     21  C   UNL     1      44.888   3.621  11.589  0.00  0.00    +0.000 A 
ATOM     22  C   UNL     1      44.819   3.109  10.289  0.00  0.00    +0.000 A 
BRANCH  17  23
ATOM     23  C   UNL     1      45.026   3.364   7.780  0.00  0.00    +0.000 C 
BRANCH  23  24
ATOM     24  C   UNL     1      46.364   2.963   7.150  0.00  0.00    +0.000 C 
BRANCH  24  25
ATOM     25  N   UNL     1      46.925   4.071   6.373  0.00  0.00    +0.000 NA
ATOM     26  H   UNL     1      47.508   3.700   5.623  0.00  0.00    +0.000 HD
ATOM     27  H   UNL     1      47.541   4.629   6.962  0.00  0.00    +0.000 HD
ENDBRANCH  24  25
ENDBRANCH  23  24
ENDBRANCH  17  23
ENDBRANCH  16  20
ENDBRANCH   1  16
TORSDOF 6
ENDMDL
MODEL 6
REMARK VINA RESULT:    -5.913      3.761      6.561
REMARK INTER + INTRA:          -8.371
REMARK INTER:                  -7.754
REMARK INTRA:                  -0.617
REMARK UNBOUND:                -0.558
REMARK  Name = 
REMARK  6 active torsions:
REMARK  status: ('A' for Active; 'I' for Inactive)
REMARK    1  A    between atoms: N_1  and  C_2
REMARK    2  A    between atoms: C_2  and  C_3
REMARK    3  A    between atoms: C_3  and  C_4
REMARK    4  A    between atoms: C_7  and  C_8
REMARK    5  A    between atoms: C_8  and  N_9
REMARK    6  A    between atoms: C_14  and  C_15
REMARK                            x       y       z     vdW  Elec       q    Type
REMARK                         _______ _______ _______ _____ _____    ______ ____
ROOT
ATOM      1  N   UNL     1      47.406   7.341  13.642  0.00  0.00    +0.000 N 
ATOM      2  C   UNL     1      47.965   6.259  14.275  0.00  0.00    +0.000 A 
ATOM      3  N   UNL     1      47.383   5.137  13.934  0.00  0.00    +0.000 NA
ATOM      4  C   UNL     1      46.377   5.499  13.082  0.00  0.00    +0.000 A 
ATOM      5  C   UNL     1      45.532   4.676  12.321  0.00  0.00    +0.000 A 
ATOM      6  C   UNL     1      44.584   5.263  11.468  0.00  0.00    +0.000 A 
ATOM      7  C   UNL     1      44.396   6.648  11.494  0.00  0.00    +0.000 A 
ATOM      8  C   UNL     1      45.227   7.479  12.260  0.00  0.00    +0.000 A 
ATOM      9 CL   UNL     1      44.909   9.167  12.279  0.00  0.00    +0.000 Cl
ATOM     10  C   UNL     1      46.273   6.885  12.984  0.00  0.00    +0.000 A 
ENDROOT
BRANCH   6  11
ATOM     11  C   UNL     1      43.872   4.356  10.522  0.00  0.00    +0.000 C 
ATOM     12  N   UNL     1      43.962   4.589   9.180  0.00  0.00    +0.000 N 
ATOM     13  O   UNL     1      43.248   3.380  10.924  0.00  0.00    +0.000 OA
ATOM     14  H   UNL     1      44.452   5.350   8.739  0.00  0.00    +0.000 HD
ATOM     15  H   UNL     1      43.519   3.904   8.579  0.00  0.00    +0.000 HD
ENDBRANCH   6  11
BRANCH   1  16
ATOM     16  C   UNL     1      48.154   8.551  13.296  0.00  0.00    +0.000 C 
BRANCH  16  20
ATOM     17  C   UNL     1      52.017   7.975  11.410  0.00  0.00    +0.000 A 
ATOM     18  C   UNL     1      50.844   7.562  10.770  0.00  0.00    +0.000 A 
ATOM     19  C   UNL     1      49.599   7.735  11.383  0.00  0.00    +0.000 A 
ATOM     20  C   UNL     1      49.500   8.324  12.654  0.00  0.00    +0.000 A 
ATOM     21  C   UNL     1      50.674   8.750  13.288  0.00  0.00    +0.000 A 
ATOM     22  C   UNL     1      51.917   8.586  12.668  0.00  0.00    +0.000 A 
BRANCH  17  23
ATOM     23  C   UNL     1      53.367   7.746  10.771  0.00  0.00    +0.000 C 
BRANCH  23  24
ATOM     24  C   UNL     1      53.374   6.601   9.753  0.00  0.00    +0.000 C 
BRANCH  24  25
ATOM     25  N   UNL     1      53.634   5.320  10.414  0.00  0.00    +0.000 NA
ATOM     26  H   UNL     1      54.638   5.207  10.554  0.00  0.00    +0.000 HD
ATOM     27  H   UNL     1      53.344   4.553   9.808  0.00  0.00    +0.000 HD
ENDBRANCH  24  25
ENDBRANCH  23  24
ENDBRANCH  17  23
ENDBRANCH  16  20
ENDBRANCH   1  16
TORSDOF 6
ENDMDL
MODEL 7
REMARK VINA RESULT:    -5.570      3.288      6.408
REMARK INTER + INTRA:          -7.918
REMARK INTER:                  -7.283
REMARK INTRA:                  -0.635
REMARK UNBOUND:                -0.558
REMARK  Name = 
REMARK  6 active torsions:
REMARK  status: ('A' for Active; 'I' for Inactive)
REMARK    1  A    between atoms: N_1  and  C_2
REMARK    2  A    between atoms: C_2  and  C_3
REMARK    3  A    between atoms: C_3  and  C_4
REMARK    4  A    between atoms: C_7  and  C_8
REMARK    5  A    between atoms: C_8  and  N_9
REMARK    6  A    between atoms: C_14  and  C_15
REMARK                            x       y       z     vdW  Elec       q    Type
REMARK                         _______ _______ _______ _____ _____    ______ ____
ROOT
ATOM      1  N   UNL     1      45.618   5.968  13.258  0.00  0.00    +0.000 N 
ATOM      2  C   UNL     1      46.275   5.012  13.993  0.00  0.00    +0.000 A 
ATOM      3  N   UNL     1      46.236   3.837  13.417  0.00  0.00    +0.000 NA
ATOM      4  C   UNL     1      45.490   4.017  12.285  0.00  0.00    +0.000 A 
ATOM      5  C   UNL     1      45.250   3.114  11.239  0.00  0.00    +0.000 A 
ATOM      6  C   UNL     1      44.481   3.523  10.138  0.00  0.00    +0.000 A 
ATOM      7  C   UNL     1      43.848   4.769  10.163  0.00  0.00    +0.000 A 
ATOM      8  C   UNL     1      44.070   5.676  11.211  0.00  0.00    +0.000 A 
ATOM      9 CL   UNL     1      43.222   7.170  11.200  0.00  0.00    +0.000 Cl
ATOM     10  C   UNL     1      44.969   5.309  12.225  0.00  0.00    +0.000 A 
ENDROOT
BRANCH   6  11
ATOM     11  C   UNL     1      44.446   2.609   8.960  0.00  0.00    +0.000 C 
ATOM     12  N   UNL     1      44.435   3.141   7.703  0.00  0.00    +0.000 N 
ATOM     13  O   UNL     1      44.474   1.391   9.099  0.00  0.00    +0.000 OA
ATOM     14  H   UNL     1      44.420   4.120   7.471  0.00  0.00    +0.000 HD
ATOM     15  H   UNL     1      44.483   2.477   6.939  0.00  0.00    +0.000 HD
ENDBRANCH   6  11
BRANCH   1  16
ATOM     16  C   UNL     1      45.992   7.383  13.254  0.00  0.00    +0.000 C 
BRANCH  16  20
ATOM     17  C   UNL     1      50.183   8.139  12.432  0.00  0.00    +0.000 A 
ATOM     18  C   UNL     1      49.647   8.406  13.696  0.00  0.00    +0.000 A 
ATOM     19  C   UNL     1      48.293   8.175  13.957  0.00  0.00    +0.000 A 
ATOM     20  C   UNL     1      47.443   7.674  12.959  0.00  0.00    +0.000 A 
ATOM     21  C   UNL     1      47.984   7.394  11.697  0.00  0.00    +0.000 A 
ATOM     22  C   UNL     1      49.342   7.615  11.441  0.00  0.00    +0.000 A 
BRANCH  17  23
ATOM     23  C   UNL     1      51.635   8.432  12.131  0.00  0.00    +0.000 C 
BRANCH  23  24
ATOM     24  C   UNL     1      51.884   8.861  10.681  0.00  0.00    +0.000 C 
BRANCH  24  25
ATOM     25  N   UNL     1      52.627   7.828   9.955  0.00  0.00    +0.000 NA
ATOM     26  H   UNL     1      52.191   6.920  10.115  0.00  0.00    +0.000 HD
ATOM     27  H   UNL     1      53.573   7.758  10.326  0.00  0.00    +0.000 HD
ENDBRANCH  24  25
ENDBRANCH  23  24
ENDBRANCH  17  23
ENDBRANCH  16  20
ENDBRANCH   1  16
TORSDOF 6
ENDMDL
MODEL 8
REMARK VINA RESULT:    -5.516      4.422      8.647
REMARK INTER + INTRA:          -7.847
REMARK INTER:                  -7.325
REMARK INTRA:                  -0.523
REMARK UNBOUND:                -0.558
REMARK  Name = 
REMARK  6 active torsions:
REMARK  status: ('A' for Active; 'I' for Inactive)
REMARK    1  A    between atoms: N_1  and  C_2
REMARK    2  A    between atoms: C_2  and  C_3
REMARK    3  A    between atoms: C_3  and  C_4
REMARK    4  A    between atoms: C_7  and  C_8
REMARK    5  A    between atoms: C_8  and  N_9
REMARK    6  A    between atoms: C_14  and  C_15
REMARK                            x       y       z     vdW  Elec       q    Type
REMARK                         _______ _______ _______ _____ _____    ______ ____
ROOT
ATOM      1  N   UNL     1      47.315   5.741  14.103  0.00  0.00    +0.000 N 
ATOM      2  C   UNL     1      47.333   4.573  14.824  0.00  0.00    +0.000 A 
ATOM      3  N   UNL     1      46.594   3.644  14.271  0.00  0.00    +0.000 NA
ATOM      4  C   UNL     1      46.036   4.236  13.172  0.00  0.00    +0.000 A 
ATOM      5  C   UNL     1      45.269   3.650  12.154  0.00  0.00    +0.000 A 
ATOM      6  C   UNL     1      44.825   4.441  11.083  0.00  0.00    +0.000 A 
ATOM      7  C   UNL     1      45.030   5.824  11.115  0.00  0.00    +0.000 A 
ATOM      8  C   UNL     1      45.786   6.422  12.135  0.00  0.00    +0.000 A 
ATOM      9 CL   UNL     1      45.958   8.132  12.136  0.00  0.00    +0.000 Cl
ATOM     10  C   UNL     1      46.355   5.591  13.112  0.00  0.00    +0.000 A 
ENDROOT
BRANCH   6  11
ATOM     11  C   UNL     1      44.212   3.730   9.925  0.00  0.00    +0.000 C 
ATOM     12  N   UNL     1      44.125   4.367   8.721  0.00  0.00    +0.000 N 
ATOM     13  O   UNL     1      43.829   2.569  10.021  0.00  0.00    +0.000 OA
ATOM     14  H   UNL     1      44.415   5.311   8.524  0.00  0.00    +0.000 HD
ATOM     15  H   UNL     1      43.766   3.816   7.950  0.00  0.00    +0.000 HD
ENDBRANCH   6  11
BRANCH   1  16
ATOM     16  C   UNL     1      48.437   6.680  14.057  0.00  0.00    +0.000 C 
BRANCH  16  20
ATOM     17  C   UNL     1      49.008   9.212  17.532  0.00  0.00    +0.000 A 
ATOM     18  C   UNL     1      49.549   7.923  17.494  0.00  0.00    +0.000 A 
ATOM     19  C   UNL     1      49.354   7.101  16.380  0.00  0.00    +0.000 A 
ATOM     20  C   UNL     1      48.610   7.550  15.277  0.00  0.00    +0.000 A 
ATOM     21  C   UNL     1      48.080   8.847  15.310  0.00  0.00    +0.000 A 
ATOM     22  C   UNL     1      48.286   9.671  16.421  0.00  0.00    +0.000 A 
BRANCH  17  23
ATOM     23  C   UNL     1      49.176  10.085  18.754  0.00  0.00    +0.000 C 
BRANCH  23  24
ATOM     24  C   UNL     1      47.983  11.012  19.011  0.00  0.00    +0.000 C 
BRANCH  24  25
ATOM     25  N   UNL     1      47.120  10.468  20.062  0.00  0.00    +0.000 NA
ATOM     26  H   UNL     1      47.693  10.174  20.853  0.00  0.00    +0.000 HD
ATOM     27  H   UNL     1      46.651   9.630  19.724  0.00  0.00    +0.000 HD
ENDBRANCH  24  25
ENDBRANCH  23  24
ENDBRANCH  17  23
ENDBRANCH  16  20
ENDBRANCH   1  16
TORSDOF 6
ENDMDL
MODEL 9
REMARK VINA RESULT:    -5.017      4.915      7.960
REMARK INTER + INTRA:          -7.188
REMARK INTER:                  -6.321
REMARK INTRA:                  -0.867
REMARK UNBOUND:                -0.558
REMARK  Name = 
REMARK  6 active torsions:
REMARK  status: ('A' for Active; 'I' for Inactive)
REMARK    1  A    between atoms: N_1  and  C_2
REMARK    2  A    between atoms: C_2  and  C_3
REMARK    3  A    between atoms: C_3  and  C_4
REMARK    4  A    between atoms: C_7  and  C_8
REMARK    5  A    between atoms: C_8  and  N_9
REMARK    6  A    between atoms: C_14  and  C_15
REMARK                            x       y       z     vdW  Elec       q    Type
REMARK                         _______ _______ _______ _____ _____    ______ ____
ROOT
ATOM      1  N   UNL     1      50.551   8.265  15.628  0.00  0.00    +0.000 N 
ATOM      2  C   UNL     1      51.799   7.756  15.369  0.00  0.00    +0.000 A 
ATOM      3  N   UNL     1      52.010   6.629  16.002  0.00  0.00    +0.000 NA
ATOM      4  C   UNL     1      50.878   6.413  16.737  0.00  0.00    +0.000 A 
ATOM      5  C   UNL     1      50.522   5.285  17.491  0.00  0.00    +0.000 A 
ATOM      6  C   UNL     1      49.279   5.254  18.142  0.00  0.00    +0.000 A 
ATOM      7  C   UNL     1      48.475   6.397  18.148  0.00  0.00    +0.000 A 
ATOM      8  C   UNL     1      48.826   7.536  17.408  0.00  0.00    +0.000 A 
ATOM      9 CL   UNL     1      47.814   8.921  17.499  0.00  0.00    +0.000 Cl
ATOM     10  C   UNL     1      49.997   7.489  16.635  0.00  0.00    +0.000 A 
ENDROOT
BRANCH   6  11
ATOM     11  C   UNL     1      48.859   3.952  18.737  0.00  0.00    +0.000 C 
ATOM     12  N   UNL     1      48.505   3.905  20.055  0.00  0.00    +0.000 N 
ATOM     13  O   UNL     1      48.781   2.936  18.056  0.00  0.00    +0.000 OA
ATOM     14  H   UNL     1      48.520   4.675  20.704  0.00  0.00    +0.000 HD
ATOM     15  H   UNL     1      48.160   3.014  20.391  0.00  0.00    +0.000 HD
ENDBRANCH   6  11
BRANCH   1  16
ATOM     16  C   UNL     1      49.793   9.073  14.671  0.00  0.00    +0.000 C 
BRANCH  16  20
ATOM     17  C   UNL     1      46.648   6.935  12.584  0.00  0.00    +0.000 A 
ATOM     18  C   UNL     1      47.950   6.425  12.623  0.00  0.00    +0.000 A 
ATOM     19  C   UNL     1      48.967   7.121  13.284  0.00  0.00    +0.000 A 
ATOM     20  C   UNL     1      48.706   8.345  13.920  0.00  0.00    +0.000 A 
ATOM     21  C   UNL     1      47.398   8.848  13.892  0.00  0.00    +0.000 A 
ATOM     22  C   UNL     1      46.380   8.145  13.240  0.00  0.00    +0.000 A 
BRANCH  17  23
ATOM     23  C   UNL     1      45.558   6.211  11.830  0.00  0.00    +0.000 C 
BRANCH  23  24
ATOM     24  C   UNL     1      44.755   5.238  12.701  0.00  0.00    +0.000 C 
BRANCH  24  25
ATOM     25  N   UNL     1      43.539   5.878  13.209  0.00  0.00    +0.000 NA
ATOM     26  H   UNL     1      43.631   6.034  14.212  0.00  0.00    +0.000 HD
ATOM     27  H   UNL     1      42.744   5.252  13.090  0.00  0.00    +0.000 HD
ENDBRANCH  24  25
ENDBRANCH  23  24
ENDBRANCH  17  23
ENDBRANCH  16  20
ENDBRANCH   1  16
TORSDOF 6
ENDMDL
