MODEL 1
REMARK VINA RESULT:    -8.154      0.000      0.000
REMARK INTER + INTRA:         -11.035
REMARK INTER:                 -10.538
REMARK INTRA:                  -0.497
REMARK UNBOUND:                -0.497
REMARK  Name = 
REMARK  5 active torsions:
REMARK  status: ('A' for Active; 'I' for Inactive)
REMARK    1  A    between atoms: C_2  and  C_3
REMARK    2  A    between atoms: C_5  and  C_6
REMARK    3  A    between atoms: N_11  and  C_12
REMARK    4  A    between atoms: C_12  and  C_13
REMARK    5  A    between atoms: C_18  and  C_19
REMARK                            x       y       z     vdW  Elec       q    Type
REMARK                         _______ _______ _______ _____ _____    ______ ____
ROOT
ATOM      1  C   UNL     1      48.650   8.097  12.720  0.00  0.00    +0.000 C 
ATOM      2  C   UNL     1      49.765   7.397  11.952  0.00  0.00    +0.000 C 
ATOM      3  C   UNL     1      49.532   8.857  11.747  0.00  0.00    +0.000 C 
ENDROOT
BRANCH   1   9
ATOM      4  C   UNL     1      48.738   6.383  17.221  0.00  0.00    +0.000 A 
ATOM      5  C   UNL     1      48.247   5.153  16.894  0.00  0.00    +0.000 A 
ATOM      6  C   UNL     1      48.000   4.985  15.557  0.00  0.00    +0.000 A 
ATOM      7  N   UNL     1      48.179   5.948  14.616  0.00  0.00    +0.000 NA
ATOM      8  C   UNL     1      48.664   7.114  15.042  0.00  0.00    +0.000 A 
ATOM      9  N   UNL     1      48.849   8.176  14.166  0.00  0.00    +0.000 N 
ATOM     10  N   UNL     1      48.971   7.361  16.321  0.00  0.00    +0.000 NA
ATOM     11  H   UNL     1      49.502   8.840  14.563  0.00  0.00    +0.000 HD
BRANCH   6  12
ATOM     12  C   UNL     1      47.507   3.666  15.062  0.00  0.00    +0.000 C 
ATOM     13  N   UNL     1      46.579   3.717  14.059  0.00  0.00    +0.000 N 
ATOM     14  O   UNL     1      47.915   2.610  15.522  0.00  0.00    +0.000 OA
ATOM     15  H   UNL     1      46.226   4.610  13.736  0.00  0.00    +0.000 HD
ATOM     16  H   UNL     1      46.191   2.855  13.702  0.00  0.00    +0.000 HD
ENDBRANCH   6  12
BRANCH   4  18
ATOM     17  N   UNL     1      49.263   7.014  19.688  0.00  0.00    +0.000 NA
ATOM     18  C   UNL     1      49.016   6.719  18.590  0.00  0.00    +0.000 C 
ENDBRANCH   4  18
ENDBRANCH   1   9
BRANCH   1  19
ATOM     19  C   UNL     1      47.209   7.845  12.295  0.00  0.00    +0.000 A 
ATOM     20  C   UNL     1      46.198   8.776  12.580  0.00  0.00    +0.000 A 
ATOM     21  C   UNL     1      44.891   8.569  12.152  0.00  0.00    +0.000 A 
ATOM     22  C   UNL     1      44.569   7.412  11.451  0.00  0.00    +0.000 A 
ATOM     23  F   UNL     1      43.297   7.279  11.044  0.00  0.00    +0.000 F 
ATOM     24  C   UNL     1      45.521   6.416  11.176  0.00  0.00    +0.000 A 
ATOM     25  C   UNL     1      46.840   6.672  11.606  0.00  0.00    +0.000 A 
BRANCH  24  26
ATOM     26  C   UNL     1      45.169   5.135  10.516  0.00  0.00    +0.000 A 
ATOM     27  C   UNL     1      44.470   4.125  11.213  0.00  0.00    +0.000 A 
ATOM     28  C   UNL     1      44.179   2.890  10.626  0.00  0.00    +0.000 A 
ATOM     29  C   UNL     1      44.608   2.631   9.334  0.00  0.00    +0.000 A 
ATOM     30  F   UNL     1      44.362   1.434   8.785  0.00  0.00    +0.000 F 
ATOM     31  C   UNL     1      45.292   3.604   8.622  0.00  0.00    +0.000 A 
ATOM     32  F   UNL     1      45.718   3.353   7.376  0.00  0.00    +0.000 F 
ATOM     33  C   UNL     1      45.559   4.847   9.195  0.00  0.00    +0.000 A 
ENDBRANCH  24  26
ENDBRANCH   1  19
TORSDOF 5
ENDMDL
MODEL 2
REMARK VINA RESULT:    -8.039      2.025      2.593
REMARK INTER + INTRA:         -10.886
REMARK INTER:                  -9.847
REMARK INTRA:                  -1.039
REMARK UNBOUND:                -0.497
REMARK  Name = 
REMARK  5 active torsions:
REMARK  status: ('A' for Active; 'I' for Inactive)
REMARK    1  A    between atoms: C_2  and  C_3
REMARK    2  A    between atoms: C_5  and  C_6
REMARK    3  A    between atoms: N_11  and  C_12
REMARK    4  A    between atoms: C_12  and  C_13
REMARK    5  A    between atoms: C_18  and  C_19
REMARK                            x       y       z     vdW  Elec       q    Type
REMARK                         _______ _______ _______ _____ _____    ______ ____
ROOT
ATOM      1  C   UNL     1      49.031   8.027  12.860  0.00  0.00    +0.000 C 
ATOM      2  C   UNL     1      50.026   8.442  11.782  0.00  0.00    +0.000 C 
ATOM      3  C   UNL     1      49.591   9.437  12.807  0.00  0.00    +0.000 C 
ENDROOT
BRANCH   1   9
ATOM      4  C   UNL     1      49.683   6.111  17.231  0.00  0.00    +0.000 A 
ATOM      5  C   UNL     1      49.098   7.142  17.906  0.00  0.00    +0.000 A 
ATOM      6  C   UNL     1      48.621   8.141  17.099  0.00  0.00    +0.000 A 
ATOM      7  N   UNL     1      48.737   8.158  15.746  0.00  0.00    +0.000 NA
ATOM      8  C   UNL     1      49.326   7.100  15.186  0.00  0.00    +0.000 A 
ATOM      9  N   UNL     1      49.527   7.037  13.813  0.00  0.00    +0.000 N 
ATOM     10  N   UNL     1      49.789   6.059  15.886  0.00  0.00    +0.000 NA
ATOM     11  H   UNL     1      49.673   6.075  13.531  0.00  0.00    +0.000 HD
BRANCH   6  12
ATOM     12  C   UNL     1      47.914   9.304  17.712  0.00  0.00    +0.000 C 
ATOM     13  N   UNL     1      47.876  10.442  16.955  0.00  0.00    +0.000 N 
ATOM     14  O   UNL     1      47.397   9.236  18.817  0.00  0.00    +0.000 OA
ATOM     15  H   UNL     1      48.359  10.479  16.066  0.00  0.00    +0.000 HD
ATOM     16  H   UNL     1      47.432  11.269  17.331  0.00  0.00    +0.000 HD
ENDBRANCH   6  12
BRANCH   4  18
ATOM     17  N   UNL     1      50.695   4.102  18.534  0.00  0.00    +0.000 NA
ATOM     18  C   UNL     1      50.258   5.003  17.943  0.00  0.00    +0.000 C 
ENDBRANCH   4  18
ENDBRANCH   1   9
BRANCH   1  19
ATOM     19  C   UNL     1      47.571   7.849  12.467  0.00  0.00    +0.000 A 
ATOM     20  C   UNL     1      46.604   8.801  12.822  0.00  0.00    +0.000 A 
ATOM     21  C   UNL     1      45.279   8.663  12.425  0.00  0.00    +0.000 A 
ATOM     22  C   UNL     1      44.893   7.552  11.683  0.00  0.00    +0.000 A 
ATOM     23  F   UNL     1      43.606   7.484  11.307  0.00  0.00    +0.000 F 
ATOM     24  C   UNL     1      45.799   6.535  11.335  0.00  0.00    +0.000 A 
ATOM     25  C   UNL     1      47.138   6.723  11.737  0.00  0.00    +0.000 A 
BRANCH  24  26
ATOM     26  C   UNL     1      45.381   5.299  10.629  0.00  0.00    +0.000 A 
ATOM     27  C   UNL     1      44.785   4.227  11.329  0.00  0.00    +0.000 A 
ATOM     28  C   UNL     1      44.437   3.033  10.691  0.00  0.00    +0.000 A 
ATOM     29  C   UNL     1      44.701   2.879   9.340  0.00  0.00    +0.000 A 
ATOM     30  F   UNL     1      44.402   1.721   8.737  0.00  0.00    +0.000 F 
ATOM     31  C   UNL     1      45.280   3.915   8.624  0.00  0.00    +0.000 A 
ATOM     32  F   UNL     1      45.549   3.766   7.319  0.00  0.00    +0.000 F 
ATOM     33  C   UNL     1      45.604   5.118   9.251  0.00  0.00    +0.000 A 
ENDBRANCH  24  26
ENDBRANCH   1  19
TORSDOF 5
ENDMDL
MODEL 3
REMARK VINA RESULT:    -7.511      2.762      4.148
REMARK INTER + INTRA:         -10.204
REMARK INTER:                  -9.156
REMARK INTRA:                  -1.048
REMARK UNBOUND:                -0.497
REMARK  Name = 
REMARK  5 active torsions:
REMARK  status: ('A' for Active; 'I' for Inactive)
REMARK    1  A    between atoms: C_2  and  C_3
REMARK    2  A    between atoms: C_5  and  C_6
REMARK    3  A    between atoms: N_11  and  C_12
REMARK    4  A    between atoms: C_12  and  C_13
REMARK    5  A    between atoms: C_18  and  C_19
REMARK                            x       y       z     vdW  Elec       q    Type
REMARK                         _______ _______ _______ _____ _____    ______ ____
ROOT
ATOM      1  C   UNL     1      49.847   7.857  16.386  0.00  0.00    +0.000 C 
ATOM      2  C   UNL     1      50.007   9.240  17.006  0.00  0.00    +0.000 C 
ATOM      3  C   UNL     1      48.766   8.452  17.269  0.00  0.00    +0.000 C 
ENDROOT
BRANCH   1   9
ATOM      4  C   UNL     1      51.205   3.406  17.633  0.00  0.00    +0.000 A 
ATOM      5  C   UNL     1      49.979   2.843  17.433  0.00  0.00    +0.000 A 
ATOM      6  C   UNL     1      49.024   3.721  16.990  0.00  0.00    +0.000 A 
ATOM      7  N   UNL     1      49.232   5.048  16.794  0.00  0.00    +0.000 NA
ATOM      8  C   UNL     1      50.468   5.496  17.018  0.00  0.00    +0.000 A 
ATOM      9  N   UNL     1      50.777   6.844  16.882  0.00  0.00    +0.000 N 
ATOM     10  N   UNL     1      51.476   4.711  17.415  0.00  0.00    +0.000 NA
ATOM     11  H   UNL     1      51.776   6.958  16.768  0.00  0.00    +0.000 HD
BRANCH   6  12
ATOM     12  C   UNL     1      47.652   3.219  16.686  0.00  0.00    +0.000 C 
ATOM     13  N   UNL     1      46.952   2.722  17.750  0.00  0.00    +0.000 N 
ATOM     14  O   UNL     1      47.184   3.258  15.558  0.00  0.00    +0.000 OA
ATOM     15  H   UNL     1      47.388   2.658  18.662  0.00  0.00    +0.000 HD
ATOM     16  H   UNL     1      46.026   2.345  17.599  0.00  0.00    +0.000 HD
ENDBRANCH   6  12
BRANCH   4  18
ATOM     17  N   UNL     1      53.189   1.967  18.497  0.00  0.00    +0.000 NA
ATOM     18  C   UNL     1      52.300   2.618  18.127  0.00  0.00    +0.000 C 
ENDBRANCH   4  18
ENDBRANCH   1   9
BRANCH   1  19
ATOM     19  C   UNL     1      49.548   7.762  14.896  0.00  0.00    +0.000 A 
ATOM     20  C   UNL     1      50.484   8.186  13.941  0.00  0.00    +0.000 A 
ATOM     21  C   UNL     1      50.231   8.058  12.580  0.00  0.00    +0.000 A 
ATOM     22  C   UNL     1      49.021   7.522  12.150  0.00  0.00    +0.000 A 
ATOM     23  F   UNL     1      48.843   7.400  10.826  0.00  0.00    +0.000 F 
ATOM     24  C   UNL     1      48.019   7.123  13.051  0.00  0.00    +0.000 A 
ATOM     25  C   UNL     1      48.323   7.248  14.423  0.00  0.00    +0.000 A 
BRANCH  24  26
ATOM     26  C   UNL     1      46.689   6.642  12.605  0.00  0.00    +0.000 A 
ATOM     27  C   UNL     1      45.796   7.498  11.924  0.00  0.00    +0.000 A 
ATOM     28  C   UNL     1      44.516   7.080  11.546  0.00  0.00    +0.000 A 
ATOM     29  C   UNL     1      44.095   5.800  11.867  0.00  0.00    +0.000 A 
ATOM     30  F   UNL     1      42.856   5.412  11.538  0.00  0.00    +0.000 F 
ATOM     31  C   UNL     1      44.950   4.934  12.530  0.00  0.00    +0.000 A 
ATOM     32  F   UNL     1      44.542   3.698  12.852  0.00  0.00    +0.000 F 
ATOM     33  C   UNL     1      46.237   5.338  12.884  0.00  0.00    +0.000 A 
ENDBRANCH  24  26
ENDBRANCH   1  19
TORSDOF 5
ENDMDL
MODEL 4
REMARK VINA RESULT:    -7.042      4.077      7.474
REMARK INTER + INTRA:          -9.598
REMARK INTER:                 -10.110
REMARK INTRA:                   0.513
REMARK UNBOUND:                -0.497
REMARK  Name = 
REMARK  5 active torsions:
REMARK  status: ('A' for Active; 'I' for Inactive)
REMARK    1  A    between atoms: C_2  and  C_3
REMARK    2  A    between atoms: C_5  and  C_6
REMARK    3  A    between atoms: N_11  and  C_12
REMARK    4  A    between atoms: C_12  and  C_13
REMARK    5  A    between atoms: C_18  and  C_19
REMARK                            x       y       z     vdW  Elec       q    Type
REMARK                         _______ _______ _______ _____ _____    ______ ____
ROOT
ATOM      1  C   UNL     1      46.212   7.363  11.867  0.00  0.00    +0.000 C 
ATOM      2  C   UNL     1      44.829   7.276  12.502  0.00  0.00    +0.000 C 
ATOM      3  C   UNL     1      45.336   8.593  12.015  0.00  0.00    +0.000 C 
ENDROOT
BRANCH   1   9
ATOM      4  C   UNL     1      45.371   3.835   8.697  0.00  0.00    +0.000 A 
ATOM      5  C   UNL     1      44.616   3.083   9.548  0.00  0.00    +0.000 A 
ATOM      6  C   UNL     1      44.445   3.639  10.788  0.00  0.00    +0.000 A 
ATOM      7  N   UNL     1      44.997   4.816  11.184  0.00  0.00    +0.000 NA
ATOM      8  C   UNL     1      45.717   5.472  10.274  0.00  0.00    +0.000 A 
ATOM      9  N   UNL     1      46.353   6.666  10.590  0.00  0.00    +0.000 N 
ATOM     10  N   UNL     1      45.909   5.029   9.027  0.00  0.00    +0.000 NA
ATOM     11  H   UNL     1      46.567   7.177   9.742  0.00  0.00    +0.000 HD
BRANCH   6  12
ATOM     12  C   UNL     1      43.598   2.938  11.796  0.00  0.00    +0.000 C 
ATOM     13  N   UNL     1      43.631   3.454  13.062  0.00  0.00    +0.000 N 
ATOM     14  O   UNL     1      42.913   1.970  11.503  0.00  0.00    +0.000 OA
ATOM     15  H   UNL     1      44.248   4.226  13.282  0.00  0.00    +0.000 HD
ATOM     16  H   UNL     1      43.095   3.004  13.792  0.00  0.00    +0.000 HD
ENDBRANCH   6  12
BRANCH   4  18
ATOM     17  N   UNL     1      45.932   3.000   6.300  0.00  0.00    +0.000 NA
ATOM     18  C   UNL     1      45.664   3.367   7.370  0.00  0.00    +0.000 C 
ENDBRANCH   4  18
ENDBRANCH   1   9
BRANCH   1  19
ATOM     19  C   UNL     1      47.432   7.270  12.773  0.00  0.00    +0.000 A 
ATOM     20  C   UNL     1      48.656   7.846  12.400  0.00  0.00    +0.000 A 
ATOM     21  C   UNL     1      49.759   7.802  13.247  0.00  0.00    +0.000 A 
ATOM     22  C   UNL     1      49.660   7.158  14.475  0.00  0.00    +0.000 A 
ATOM     23  F   UNL     1      50.749   7.169  15.260  0.00  0.00    +0.000 F 
ATOM     24  C   UNL     1      48.480   6.518  14.890  0.00  0.00    +0.000 A 
ATOM     25  C   UNL     1      47.378   6.604  14.014  0.00  0.00    +0.000 A 
BRANCH  24  26
ATOM     26  C   UNL     1      48.392   5.745  16.153  0.00  0.00    +0.000 A 
ATOM     27  C   UNL     1      48.984   6.224  17.343  0.00  0.00    +0.000 A 
ATOM     28  C   UNL     1      48.961   5.483  18.528  0.00  0.00    +0.000 A 
ATOM     29  C   UNL     1      48.364   4.233  18.540  0.00  0.00    +0.000 A 
ATOM     30  F   UNL     1      48.374   3.508  19.666  0.00  0.00    +0.000 F 
ATOM     31  C   UNL     1      47.769   3.738  17.391  0.00  0.00    +0.000 A 
ATOM     32  F   UNL     1      47.201   2.524  17.395  0.00  0.00    +0.000 F 
ATOM     33  C   UNL     1      47.766   4.485  16.213  0.00  0.00    +0.000 A 
ENDBRANCH  24  26
ENDBRANCH   1  19
TORSDOF 5
ENDMDL
MODEL 5
REMARK VINA RESULT:    -7.005      3.349      4.739
REMARK INTER + INTRA:          -9.549
REMARK INTER:                  -8.916
REMARK INTRA:                  -0.634
REMARK UNBOUND:                -0.497
REMARK  Name = 
REMARK  5 active torsions:
REMARK  status: ('A' for Active; 'I' for Inactive)
REMARK    1  A    between atoms: C_2  and  C_3
REMARK    2  A    between atoms: C_5  and  C_6
REMARK    3  A    between atoms: N_11  and  C_12
REMARK    4  A    between atoms: C_12  and  C_13
REMARK    5  A    between atoms: C_18  and  C_19
REMARK                            x       y       z     vdW  Elec       q    Type
REMARK                         _______ _______ _______ _____ _____    ______ ____
ROOT
ATOM      1  C   UNL     1      48.601   5.979  17.403  0.00  0.00    +0.000 C 
ATOM      2  C   UNL     1      47.412   6.454  18.231  0.00  0.00    +0.000 C 
ATOM      3  C   UNL     1      47.545   5.006  17.896  0.00  0.00    +0.000 C 
ENDROOT
BRANCH   1   9
ATOM      4  C   UNL     1      52.917   4.429  18.875  0.00  0.00    +0.000 A 
ATOM      5  C   UNL     1      52.734   3.143  18.460  0.00  0.00    +0.000 A 
ATOM      6  C   UNL     1      51.527   2.915  17.853  0.00  0.00    +0.000 A 
ATOM      7  N   UNL     1      50.557   3.853  17.696  0.00  0.00    +0.000 NA
ATOM      8  C   UNL     1      50.839   5.080  18.137  0.00  0.00    +0.000 A 
ATOM      9  N   UNL     1      49.901   6.102  18.057  0.00  0.00    +0.000 N 
ATOM     10  N   UNL     1      52.003   5.408  18.709  0.00  0.00    +0.000 NA
ATOM     11  H   UNL     1      50.364   7.000  18.124  0.00  0.00    +0.000 HD
BRANCH   6  12
ATOM     12  C   UNL     1      51.224   1.559  17.309  0.00  0.00    +0.000 C 
ATOM     13  N   UNL     1      51.799   0.511  17.973  0.00  0.00    +0.000 N 
ATOM     14  O   UNL     1      50.501   1.399  16.337  0.00  0.00    +0.000 OA
ATOM     15  H   UNL     1      52.433   0.682  18.744  0.00  0.00    +0.000 HD
ATOM     16  H   UNL     1      51.648  -0.429  17.634  0.00  0.00    +0.000 HD
ENDBRANCH   6  12
BRANCH   4  18
ATOM     17  N   UNL     1      55.094   5.098  20.129  0.00  0.00    +0.000 NA
ATOM     18  C   UNL     1      54.122   4.813  19.557  0.00  0.00    +0.000 C 
ENDBRANCH   4  18
ENDBRANCH   1   9
BRANCH   1  19
ATOM     19  C   UNL     1      48.614   6.287  15.912  0.00  0.00    +0.000 A 
ATOM     20  C   UNL     1      49.583   7.136  15.357  0.00  0.00    +0.000 A 
ATOM     21  C   UNL     1      49.624   7.382  13.989  0.00  0.00    +0.000 A 
ATOM     22  C   UNL     1      48.677   6.799  13.154  0.00  0.00    +0.000 A 
ATOM     23  F   UNL     1      48.781   7.053  11.840  0.00  0.00    +0.000 F 
ATOM     24  C   UNL     1      47.649   5.979  13.649  0.00  0.00    +0.000 A 
ATOM     25  C   UNL     1      47.655   5.735  15.038  0.00  0.00    +0.000 A 
BRANCH  24  26
ATOM     26  C   UNL     1      46.577   5.430  12.782  0.00  0.00    +0.000 A 
ATOM     27  C   UNL     1      46.129   6.136  11.644  0.00  0.00    +0.000 A 
ATOM     28  C   UNL     1      45.081   5.662  10.849  0.00  0.00    +0.000 A 
ATOM     29  C   UNL     1      44.443   4.482  11.192  0.00  0.00    +0.000 A 
ATOM     30  F   UNL     1      43.415   4.048  10.451  0.00  0.00    +0.000 F 
ATOM     31  C   UNL     1      44.863   3.763  12.300  0.00  0.00    +0.000 A 
ATOM     32  F   UNL     1      44.242   2.626  12.643  0.00  0.00    +0.000 F 
ATOM     33  C   UNL     1      45.926   4.218  13.081  0.00  0.00    +0.000 A 
ENDBRANCH  24  26
ENDBRANCH   1  19
TORSDOF 5
ENDMDL
MODEL 6
REMARK VINA RESULT:    -6.967      4.293      7.121
REMARK INTER + INTRA:          -9.500
REMARK INTER:                  -8.759
REMARK INTRA:                  -0.741
REMARK UNBOUND:                -0.497
REMARK  Name = 
REMARK  5 active torsions:
REMARK  status: ('A' for Active; 'I' for Inactive)
REMARK    1  A    between atoms: C_2  and  C_3
REMARK    2  A    between atoms: C_5  and  C_6
REMARK    3  A    between atoms: N_11  and  C_12
REMARK    4  A    between atoms: C_12  and  C_13
REMARK    5  A    between atoms: C_18  and  C_19
REMARK                            x       y       z     vdW  Elec       q    Type
REMARK                         _______ _______ _______ _____ _____    ______ ____
ROOT
ATOM      1  C   UNL     1      48.700   8.237  12.450  0.00  0.00    +0.000 C 
ATOM      2  C   UNL     1      49.396   9.272  11.573  0.00  0.00    +0.000 C 
ATOM      3  C   UNL     1      49.878   7.858  11.571  0.00  0.00    +0.000 C 
ENDROOT
BRANCH   1   9
ATOM      4  C   UNL     1      44.588   5.733  12.583  0.00  0.00    +0.000 A 
ATOM      5  C   UNL     1      45.060   4.766  13.421  0.00  0.00    +0.000 A 
ATOM      6  C   UNL     1      46.359   4.951  13.816  0.00  0.00    +0.000 A 
ATOM      7  N   UNL     1      47.150   5.973  13.400  0.00  0.00    +0.000 NA
ATOM      8  C   UNL     1      46.589   6.865  12.582  0.00  0.00    +0.000 A 
ATOM      9  N   UNL     1      47.324   7.928  12.071  0.00  0.00    +0.000 N 
ATOM     10  N   UNL     1      45.319   6.791  12.171  0.00  0.00    +0.000 NA
ATOM     11  H   UNL     1      46.698   8.657  11.754  0.00  0.00    +0.000 HD
BRANCH   6  12
ATOM     12  C   UNL     1      46.978   3.987  14.773  0.00  0.00    +0.000 C 
ATOM     13  N   UNL     1      46.889   4.324  16.095  0.00  0.00    +0.000 N 
ATOM     14  O   UNL     1      47.522   2.961  14.395  0.00  0.00    +0.000 OA
ATOM     15  H   UNL     1      46.475   5.207  16.370  0.00  0.00    +0.000 HD
ATOM     16  H   UNL     1      47.312   3.721  16.787  0.00  0.00    +0.000 HD
ENDBRANCH   6  12
BRANCH   4  18
ATOM     17  N   UNL     1      42.160   5.602  11.665  0.00  0.00    +0.000 NA
ATOM     18  C   UNL     1      43.252   5.659  12.058  0.00  0.00    +0.000 C 
ENDBRANCH   4  18
ENDBRANCH   1   9
BRANCH   1  19
ATOM     19  C   UNL     1      48.946   8.280  13.953  0.00  0.00    +0.000 A 
ATOM     20  C   UNL     1      48.392   9.294  14.748  0.00  0.00    +0.000 A 
ATOM     21  C   UNL     1      48.577   9.308  16.126  0.00  0.00    +0.000 A 
ATOM     22  C   UNL     1      49.343   8.317  16.730  0.00  0.00    +0.000 A 
ATOM     23  F   UNL     1      49.467   8.369  18.066  0.00  0.00    +0.000 F 
ATOM     24  C   UNL     1      49.968   7.301  15.988  0.00  0.00    +0.000 A 
ATOM     25  C   UNL     1      49.738   7.307  14.596  0.00  0.00    +0.000 A 
BRANCH  24  26
ATOM     26  C   UNL     1      50.867   6.296  16.608  0.00  0.00    +0.000 A 
ATOM     27  C   UNL     1      52.265   6.487  16.633  0.00  0.00    +0.000 A 
ATOM     28  C   UNL     1      53.132   5.526  17.161  0.00  0.00    +0.000 A 
ATOM     29  C   UNL     1      52.615   4.339  17.654  0.00  0.00    +0.000 A 
ATOM     30  F   UNL     1      53.448   3.403  18.126  0.00  0.00    +0.000 F 
ATOM     31  C   UNL     1      51.246   4.123  17.649  0.00  0.00    +0.000 A 
ATOM     32  F   UNL     1      50.743   2.971  18.113  0.00  0.00    +0.000 F 
ATOM     33  C   UNL     1      50.376   5.092  17.147  0.00  0.00    +0.000 A 
ENDBRANCH  24  26
ENDBRANCH   1  19
TORSDOF 5
ENDMDL
MODEL 7
REMARK VINA RESULT:    -6.645      2.274      3.355
REMARK INTER + INTRA:          -9.085
REMARK INTER:                  -9.620
REMARK INTRA:                   0.535
REMARK UNBOUND:                -0.497
REMARK  Name = 
REMARK  5 active torsions:
REMARK  status: ('A' for Active; 'I' for Inactive)
REMARK    1  A    between atoms: C_2  and  C_3
REMARK    2  A    between atoms: C_5  and  C_6
REMARK    3  A    between atoms: N_11  and  C_12
REMARK    4  A    between atoms: C_12  and  C_13
REMARK    5  A    between atoms: C_18  and  C_19
REMARK                            x       y       z     vdW  Elec       q    Type
REMARK                         _______ _______ _______ _____ _____    ______ ____
ROOT
ATOM      1  C   UNL     1      44.870   8.359  11.665  0.00  0.00    +0.000 C 
ATOM      2  C   UNL     1      44.323   9.291  10.590  0.00  0.00    +0.000 C 
ATOM      3  C   UNL     1      43.763   9.350  11.973  0.00  0.00    +0.000 C 
ENDROOT
BRANCH   1   9
ATOM      4  C   UNL     1      49.087   7.290  13.733  0.00  0.00    +0.000 A 
ATOM      5  C   UNL     1      48.662   6.116  14.280  0.00  0.00    +0.000 A 
ATOM      6  C   UNL     1      47.358   5.804  13.995  0.00  0.00    +0.000 A 
ATOM      7  N   UNL     1      46.522   6.589  13.269  0.00  0.00    +0.000 NA
ATOM      8  C   UNL     1      47.039   7.717  12.779  0.00  0.00    +0.000 A 
ATOM      9  N   UNL     1      46.257   8.607  12.053  0.00  0.00    +0.000 N 
ATOM     10  N   UNL     1      48.309   8.089  12.971  0.00  0.00    +0.000 NA
ATOM     11  H   UNL     1      46.849   9.213  11.500  0.00  0.00    +0.000 HD
BRANCH   6  12
ATOM     12  C   UNL     1      46.786   4.519  14.494  0.00  0.00    +0.000 C 
ATOM     13  N   UNL     1      46.776   4.362  15.853  0.00  0.00    +0.000 N 
ATOM     14  O   UNL     1      46.350   3.667  13.735  0.00  0.00    +0.000 OA
ATOM     15  H   UNL     1      47.191   5.066  16.450  0.00  0.00    +0.000 HD
ATOM     16  H   UNL     1      46.422   3.501  16.246  0.00  0.00    +0.000 HD
ENDBRANCH   6  12
BRANCH   4  18
ATOM     17  N   UNL     1      51.493   8.160  14.193  0.00  0.00    +0.000 NA
ATOM     18  C   UNL     1      50.422   7.767  13.970  0.00  0.00    +0.000 C 
ENDBRANCH   4  18
ENDBRANCH   1   9
BRANCH   1  19
ATOM     19  C   UNL     1      44.484   6.887  11.612  0.00  0.00    +0.000 A 
ATOM     20  C   UNL     1      43.668   6.317  12.601  0.00  0.00    +0.000 A 
ATOM     21  C   UNL     1      43.276   4.984  12.529  0.00  0.00    +0.000 A 
ATOM     22  C   UNL     1      43.717   4.191  11.475  0.00  0.00    +0.000 A 
ATOM     23  F   UNL     1      43.288   2.920  11.446  0.00  0.00    +0.000 F 
ATOM     24  C   UNL     1      44.576   4.684  10.479  0.00  0.00    +0.000 A 
ATOM     25  C   UNL     1      44.932   6.046  10.574  0.00  0.00    +0.000 A 
BRANCH  24  26
ATOM     26  C   UNL     1      45.131   3.824   9.405  0.00  0.00    +0.000 A 
ATOM     27  C   UNL     1      45.160   2.419   9.540  0.00  0.00    +0.000 A 
ATOM     28  C   UNL     1      45.731   1.595   8.565  0.00  0.00    +0.000 A 
ATOM     29  C   UNL     1      46.307   2.167   7.442  0.00  0.00    +0.000 A 
ATOM     30  F   UNL     1      46.886   1.380   6.525  0.00  0.00    +0.000 F 
ATOM     31  C   UNL     1      46.289   3.542   7.277  0.00  0.00    +0.000 A 
ATOM     32  F   UNL     1      46.856   4.100   6.198  0.00  0.00    +0.000 F 
ATOM     33  C   UNL     1      45.697   4.366   8.235  0.00  0.00    +0.000 A 
ENDBRANCH  24  26
ENDBRANCH   1  19
TORSDOF 5
ENDMDL
MODEL 8
REMARK VINA RESULT:    -6.513      3.928      6.869
REMARK INTER + INTRA:          -8.914
REMARK INTER:                  -7.752
REMARK INTRA:                  -1.162
REMARK UNBOUND:                -0.497
REMARK  Name = 
REMARK  5 active torsions:
REMARK  status: ('A' for Active; 'I' for Inactive)
REMARK    1  A    between atoms: C_2  and  C_3
REMARK    2  A    between atoms: C_5  and  C_6
REMARK    3  A    between atoms: N_11  and  C_12
REMARK    4  A    between atoms: C_12  and  C_13
REMARK    5  A    between atoms: C_18  and  C_19
REMARK                            x       y       z     vdW  Elec       q    Type
REMARK                         _______ _______ _______ _____ _____    ______ ____
ROOT
ATOM      1  C   UNL     1      49.167   9.091  13.134  0.00  0.00    +0.000 C 
ATOM      2  C   UNL     1      50.432   9.825  12.708  0.00  0.00    +0.000 C 
ATOM      3  C   UNL     1      50.261   8.385  12.355  0.00  0.00    +0.000 C 
ENDROOT
BRANCH   1   9
ATOM      4  C   UNL     1      44.662   8.638  11.489  0.00  0.00    +0.000 A 
ATOM      5  C   UNL     1      44.564   7.306  11.764  0.00  0.00    +0.000 A 
ATOM      6  C   UNL     1      45.682   6.770  12.347  0.00  0.00    +0.000 A 
ATOM      7  N   UNL     1      46.821   7.463  12.607  0.00  0.00    +0.000 NA
ATOM      8  C   UNL     1      46.810   8.761  12.300  0.00  0.00    +0.000 A 
ATOM      9  N   UNL     1      47.937   9.551  12.492  0.00  0.00    +0.000 N 
ATOM     10  N   UNL     1      45.755   9.383  11.763  0.00  0.00    +0.000 NA
ATOM     11  H   UNL     1      47.671  10.527  12.522  0.00  0.00    +0.000 HD
BRANCH   6  12
ATOM     12  C   UNL     1      45.684   5.331  12.742  0.00  0.00    +0.000 C 
ATOM     13  N   UNL     1      46.099   5.067  14.018  0.00  0.00    +0.000 N 
ATOM     14  O   UNL     1      45.329   4.449  11.975  0.00  0.00    +0.000 OA
ATOM     15  H   UNL     1      46.434   5.816  14.611  0.00  0.00    +0.000 HD
ATOM     16  H   UNL     1      46.144   4.107  14.333  0.00  0.00    +0.000 HD
ENDBRANCH   6  12
BRANCH   4  18
ATOM     17  N   UNL     1      42.714   9.926  10.346  0.00  0.00    +0.000 NA
ATOM     18  C   UNL     1      43.581   9.335  10.848  0.00  0.00    +0.000 C 
ENDBRANCH   4  18
ENDBRANCH   1   9
BRANCH   1  19
ATOM     19  C   UNL     1      49.009   8.713  14.601  0.00  0.00    +0.000 A 
ATOM     20  C   UNL     1      48.623   9.665  15.556  0.00  0.00    +0.000 A 
ATOM     21  C   UNL     1      48.434   9.311  16.888  0.00  0.00    +0.000 A 
ATOM     22  C   UNL     1      48.652   7.998  17.290  0.00  0.00    +0.000 A 
ATOM     23  F   UNL     1      48.430   7.710  18.582  0.00  0.00    +0.000 F 
ATOM     24  C   UNL     1      49.088   7.005  16.396  0.00  0.00    +0.000 A 
ATOM     25  C   UNL     1      49.246   7.398  15.051  0.00  0.00    +0.000 A 
BRANCH  24  26
ATOM     26  C   UNL     1      49.417   5.626  16.832  0.00  0.00    +0.000 A 
ATOM     27  C   UNL     1      50.730   5.280  17.221  0.00  0.00    +0.000 A 
ATOM     28  C   UNL     1      51.072   3.972  17.580  0.00  0.00    +0.000 A 
ATOM     29  C   UNL     1      50.109   2.978  17.533  0.00  0.00    +0.000 A 
ATOM     30  F   UNL     1      50.446   1.719  17.841  0.00  0.00    +0.000 F 
ATOM     31  C   UNL     1      48.811   3.287  17.161  0.00  0.00    +0.000 A 
ATOM     32  F   UNL     1      47.878   2.325  17.102  0.00  0.00    +0.000 F 
ATOM     33  C   UNL     1      48.458   4.595  16.828  0.00  0.00    +0.000 A 
ENDBRANCH  24  26
ENDBRANCH   1  19
TORSDOF 5
ENDMDL
MODEL 9
REMARK VINA RESULT:    -6.419      2.408      4.282
REMARK INTER + INTRA:          -8.793
REMARK INTER:                  -9.674
REMARK INTRA:                   0.881
REMARK UNBOUND:                -0.497
REMARK  Name = 
REMARK  5 active torsions:
REMARK  status: ('A' for Active; 'I' for Inactive)
REMARK    1  A    between atoms: C_2  and  C_3
REMARK    2  A    between atoms: C_5  and  C_6
REMARK    3  A    between atoms: N_11  and  C_12
REMARK    4  A    between atoms: C_12  and  C_13
REMARK    5  A    between atoms: C_18  and  C_19
REMARK                            x       y       z     vdW  Elec       q    Type
REMARK                         _______ _______ _______ _____ _____    ______ ____
ROOT
ATOM      1  C   UNL     1      45.395   6.266  12.476  0.00  0.00    +0.000 C 
ATOM      2  C   UNL     1      45.752   7.490  11.642  0.00  0.00    +0.000 C 
ATOM      3  C   UNL     1      44.460   7.458  12.390  0.00  0.00    +0.000 C 
ENDROOT
BRANCH   1   9
ATOM      4  C   UNL     1      49.404   6.708  15.109  0.00  0.00    +0.000 A 
ATOM      5  C   UNL     1      50.100   7.396  14.159  0.00  0.00    +0.000 A 
ATOM      6  C   UNL     1      49.392   7.639  13.011  0.00  0.00    +0.000 A 
ATOM      7  N   UNL     1      48.122   7.213  12.787  0.00  0.00    +0.000 NA
ATOM      8  C   UNL     1      47.533   6.548  13.782  0.00  0.00    +0.000 A 
ATOM      9  N   UNL     1      46.248   6.039  13.640  0.00  0.00    +0.000 N 
ATOM     10  N   UNL     1      48.128   6.296  14.954  0.00  0.00    +0.000 NA
ATOM     11  H   UNL     1      45.845   5.865  14.552  0.00  0.00    +0.000 HD
BRANCH   6  12
ATOM     12  C   UNL     1      50.025   8.427  11.913  0.00  0.00    +0.000 C 
ATOM     13  N   UNL     1      49.264   9.437  11.393  0.00  0.00    +0.000 N 
ATOM     14  O   UNL     1      51.154   8.186  11.512  0.00  0.00    +0.000 OA
ATOM     15  H   UNL     1      48.314   9.577  11.715  0.00  0.00    +0.000 HD
ATOM     16  H   UNL     1      49.632   9.988  10.630  0.00  0.00    +0.000 HD
ENDBRANCH   6  12
BRANCH   4  18
ATOM     17  N   UNL     1      50.525   6.031  17.355  0.00  0.00    +0.000 NA
ATOM     18  C   UNL     1      50.024   6.351  16.356  0.00  0.00    +0.000 C 
ENDBRANCH   4  18
ENDBRANCH   1   9
BRANCH   1  19
ATOM     19  C   UNL     1      44.965   4.997  11.753  0.00  0.00    +0.000 A 
ATOM     20  C   UNL     1      43.954   4.175  12.272  0.00  0.00    +0.000 A 
ATOM     21  C   UNL     1      43.529   3.041  11.589  0.00  0.00    +0.000 A 
ATOM     22  C   UNL     1      44.128   2.696  10.382  0.00  0.00    +0.000 A 
ATOM     23  F   UNL     1      43.660   1.605   9.757  0.00  0.00    +0.000 F 
ATOM     24  C   UNL     1      45.180   3.446   9.830  0.00  0.00    +0.000 A 
ATOM     25  C   UNL     1      45.568   4.602  10.541  0.00  0.00    +0.000 A 
BRANCH  24  26
ATOM     26  C   UNL     1      45.892   3.035   8.596  0.00  0.00    +0.000 A 
ATOM     27  C   UNL     1      46.273   3.987   7.624  0.00  0.00    +0.000 A 
ATOM     28  C   UNL     1      46.894   3.612   6.428  0.00  0.00    +0.000 A 
ATOM     29  C   UNL     1      47.124   2.271   6.170  0.00  0.00    +0.000 A 
ATOM     30  F   UNL     1      47.684   1.910   5.009  0.00  0.00    +0.000 F 
ATOM     31  C   UNL     1      46.767   1.313   7.106  0.00  0.00    +0.000 A 
ATOM     32  F   UNL     1      46.977   0.013   6.856  0.00  0.00    +0.000 F 
ATOM     33  C   UNL     1      46.172   1.685   8.312  0.00  0.00    +0.000 A 
ENDBRANCH  24  26
ENDBRANCH   1  19
TORSDOF 5
ENDMDL
