MODEL 1
REMARK VINA RESULT:    -8.668      0.000      0.000
REMARK INTER + INTRA:         -12.878
REMARK INTER:                 -11.962
REMARK INTRA:                  -0.915
REMARK UNBOUND:                -0.915
REMARK  Name = 
REMARK  7 active torsions:
REMARK  status: ('A' for Active; 'I' for Inactive)
REMARK    1  A    between atoms: C_2  and  C_4
REMARK    2  A    between atoms: C_7  and  N_8
REMARK    3  A    between atoms: N_8  and  C_9
REMARK    4  A    between atoms: C_9  and  C_10
REMARK    5  A    between atoms: C_13  and  O_14
REMARK    6  A    between atoms: O_14  and  C_15
REMARK    7  A    between atoms: C_22  and  O_23
REMARK                            x       y       z     vdW  Elec       q    Type
REMARK                         _______ _______ _______ _____ _____    ______ ____
ROOT
ATOM      1  C   UNL     1      43.902   4.868  11.358  0.00  0.00    +0.000 C 
ATOM      2  C   UNL     1      43.108   3.780  12.075  0.00  0.00    +0.000 C 
ATOM      3  C   UNL     1      42.669   5.199  12.204  0.00  0.00    +0.000 C 
ENDROOT
BRANCH   1   4
ATOM      4  C   UNL     1      45.281   5.221  11.914  0.00  0.00    +0.000 A 
ATOM      5  C   UNL     1      45.955   6.387  11.507  0.00  0.00    +0.000 A 
ATOM      6  C   UNL     1      47.175   6.771  12.069  0.00  0.00    +0.000 A 
ATOM      7  C   UNL     1      47.732   6.024  13.095  0.00  0.00    +0.000 A 
ATOM      8  C   UNL     1      47.128   4.815  13.460  0.00  0.00    +0.000 A 
ATOM      9  C   UNL     1      45.925   4.419  12.868  0.00  0.00    +0.000 A 
BRANCH   7  10
ATOM     10  O   UNL     1      48.865   6.336  13.781  0.00  0.00    +0.000 OA
BRANCH  10  11
ATOM     11  C   UNL     1      48.752   7.041  15.011  0.00  0.00    +0.000 C 
ATOM     12  F   UNL     1      48.316   6.300  16.049  0.00  0.00    +0.000 F 
ATOM     13  F   UNL     1      49.973   7.526  15.340  0.00  0.00    +0.000 F 
ATOM     14  F   UNL     1      47.916   8.088  14.843  0.00  0.00    +0.000 F 
ENDBRANCH  10  11
ENDBRANCH   7  10
ENDBRANCH   1   4
BRANCH   1  15
ATOM     15  N   UNL     1      43.849   4.801   9.883  0.00  0.00    +0.000 N 
ATOM     16  H   UNL     1      42.911   4.843   9.486  0.00  0.00    +0.000 HD
BRANCH  15  20
ATOM     17  C   UNL     1      46.536   2.631   7.615  0.00  0.00    +0.000 A 
ATOM     18  N   UNL     1      45.722   1.918   8.429  0.00  0.00    +0.000 NA
ATOM     19  C   UNL     1      44.848   2.648   9.160  0.00  0.00    +0.000 A 
ATOM     20  C   UNL     1      44.710   4.023   9.091  0.00  0.00    +0.000 A 
ATOM     21  C   UNL     1      45.630   4.623   8.241  0.00  0.00    +0.000 A 
ATOM     22  N   UNL     1      46.540   3.969   7.487  0.00  0.00    +0.000 NA
BRANCH  17  24
ATOM     23  N   UNL     1      48.635   2.552   6.378  0.00  0.00    +0.000 N 
ATOM     24  C   UNL     1      47.548   1.834   6.825  0.00  0.00    +0.000 C 
ATOM     25  O   UNL     1      47.443   0.640   6.574  0.00  0.00    +0.000 OA
ATOM     26  H   UNL     1      49.344   2.087   5.831  0.00  0.00    +0.000 HD
ATOM     27  H   UNL     1      48.709   3.540   6.594  0.00  0.00    +0.000 HD
ENDBRANCH  17  24
ENDBRANCH  15  20
ENDBRANCH   1  15
BRANCH   3  28
ATOM     28  O   UNL     1      42.885   5.807  13.492  0.00  0.00    +0.000 OA
ATOM     29  H   UNL     1      42.550   6.720  13.524  0.00  0.00    +0.000 HD
ENDBRANCH   3  28
TORSDOF 7
ENDMDL
MODEL 2
REMARK VINA RESULT:    -8.500      1.223      1.439
REMARK INTER + INTRA:         -12.645
REMARK INTER:                 -12.127
REMARK INTRA:                  -0.519
REMARK UNBOUND:                -0.915
REMARK  Name = 
REMARK  7 active torsions:
REMARK  status: ('A' for Active; 'I' for Inactive)
REMARK    1  A    between atoms: C_2  and  C_4
REMARK    2  A    between atoms: C_7  and  N_8
REMARK    3  A    between atoms: N_8  and  C_9
REMARK    4  A    between atoms: C_9  and  C_10
REMARK    5  A    between atoms: C_13  and  O_14
REMARK    6  A    between atoms: O_14  and  C_15
REMARK    7  A    between atoms: C_22  and  O_23
REMARK                            x       y       z     vdW  Elec       q    Type
REMARK                         _______ _______ _______ _____ _____    ______ ____
ROOT
ATOM      1  C   UNL     1      44.016   4.941  11.354  0.00  0.00    +0.000 C 
ATOM      2  C   UNL     1      43.020   3.817  11.623  0.00  0.00    +0.000 C 
ATOM      3  C   UNL     1      42.637   5.217  11.962  0.00  0.00    +0.000 C 
ENDROOT
BRANCH   1   4
ATOM      4  C   UNL     1      45.242   5.033  12.262  0.00  0.00    +0.000 A 
ATOM      5  C   UNL     1      45.823   6.274  12.578  0.00  0.00    +0.000 A 
ATOM      6  C   UNL     1      46.888   6.386  13.475  0.00  0.00    +0.000 A 
ATOM      7  C   UNL     1      47.370   5.259  14.124  0.00  0.00    +0.000 A 
ATOM      8  C   UNL     1      46.868   4.003  13.765  0.00  0.00    +0.000 A 
ATOM      9  C   UNL     1      45.826   3.896  12.841  0.00  0.00    +0.000 A 
BRANCH   7  10
ATOM     10  O   UNL     1      48.340   5.246  15.078  0.00  0.00    +0.000 OA
BRANCH  10  11
ATOM     11  C   UNL     1      47.994   4.869  16.405  0.00  0.00    +0.000 C 
ATOM     12  F   UNL     1      46.735   4.411  16.552  0.00  0.00    +0.000 F 
ATOM     13  F   UNL     1      48.835   3.885  16.804  0.00  0.00    +0.000 F 
ATOM     14  F   UNL     1      48.169   5.928  17.224  0.00  0.00    +0.000 F 
ENDBRANCH  10  11
ENDBRANCH   7  10
ENDBRANCH   1   4
BRANCH   1  15
ATOM     15  N   UNL     1      44.308   5.178   9.926  0.00  0.00    +0.000 N 
ATOM     16  H   UNL     1      43.568   5.654   9.411  0.00  0.00    +0.000 HD
BRANCH  15  20
ATOM     17  C   UNL     1      46.582   2.670   7.558  0.00  0.00    +0.000 A 
ATOM     18  N   UNL     1      45.717   2.072   8.410  0.00  0.00    +0.000 NA
ATOM     19  C   UNL     1      44.980   2.912   9.174  0.00  0.00    +0.000 A 
ATOM     20  C   UNL     1      45.023   4.293   9.103  0.00  0.00    +0.000 A 
ATOM     21  C   UNL     1      45.977   4.765   8.211  0.00  0.00    +0.000 A 
ATOM     22  N   UNL     1      46.759   3.996   7.422  0.00  0.00    +0.000 NA
BRANCH  17  24
ATOM     23  N   UNL     1      48.485   2.358   6.066  0.00  0.00    +0.000 N 
ATOM     24  C   UNL     1      47.445   1.746   6.730  0.00  0.00    +0.000 C 
ATOM     25  O   UNL     1      47.262   0.539   6.626  0.00  0.00    +0.000 OA
ATOM     26  H   UNL     1      49.093   1.804   5.482  0.00  0.00    +0.000 HD
ATOM     27  H   UNL     1      48.625   3.357   6.162  0.00  0.00    +0.000 HD
ENDBRANCH  17  24
ENDBRANCH  15  20
ENDBRANCH   1  15
BRANCH   3  28
ATOM     28  O   UNL     1      42.576   5.527  13.367  0.00  0.00    +0.000 OA
ATOM     29  H   UNL     1      43.019   4.850  13.908  0.00  0.00    +0.000 HD
ENDBRANCH   3  28
TORSDOF 7
ENDMDL
MODEL 3
REMARK VINA RESULT:    -8.263      1.633      2.120
REMARK INTER + INTRA:         -12.318
REMARK INTER:                 -11.397
REMARK INTRA:                  -0.921
REMARK UNBOUND:                -0.915
REMARK  Name = 
REMARK  7 active torsions:
REMARK  status: ('A' for Active; 'I' for Inactive)
REMARK    1  A    between atoms: C_2  and  C_4
REMARK    2  A    between atoms: C_7  and  N_8
REMARK    3  A    between atoms: N_8  and  C_9
REMARK    4  A    between atoms: C_9  and  C_10
REMARK    5  A    between atoms: C_13  and  O_14
REMARK    6  A    between atoms: O_14  and  C_15
REMARK    7  A    between atoms: C_22  and  O_23
REMARK                            x       y       z     vdW  Elec       q    Type
REMARK                         _______ _______ _______ _____ _____    ______ ____
ROOT
ATOM      1  C   UNL     1      43.877   4.975  11.375  0.00  0.00    +0.000 C 
ATOM      2  C   UNL     1      43.653   3.695  12.173  0.00  0.00    +0.000 C 
ATOM      3  C   UNL     1      42.671   4.809  12.305  0.00  0.00    +0.000 C 
ENDROOT
BRANCH   1   4
ATOM      4  C   UNL     1      45.014   5.895  11.817  0.00  0.00    +0.000 A 
ATOM      5  C   UNL     1      46.142   5.390  12.488  0.00  0.00    +0.000 A 
ATOM      6  C   UNL     1      47.230   6.201  12.821  0.00  0.00    +0.000 A 
ATOM      7  C   UNL     1      47.243   7.535  12.444  0.00  0.00    +0.000 A 
ATOM      8  C   UNL     1      46.099   8.083  11.852  0.00  0.00    +0.000 A 
ATOM      9  C   UNL     1      45.000   7.274  11.553  0.00  0.00    +0.000 A 
BRANCH   7  10
ATOM     10  O   UNL     1      48.273   8.404  12.631  0.00  0.00    +0.000 OA
BRANCH  10  11
ATOM     11  C   UNL     1      49.415   8.308  11.789  0.00  0.00    +0.000 C 
ATOM     12  F   UNL     1      49.879   9.487  11.329  0.00  0.00    +0.000 F 
ATOM     13  F   UNL     1      50.415   7.721  12.489  0.00  0.00    +0.000 F 
ATOM     14  F   UNL     1      49.120   7.517  10.736  0.00  0.00    +0.000 F 
ENDBRANCH  10  11
ENDBRANCH   7  10
ENDBRANCH   1   4
BRANCH   1  15
ATOM     15  N   UNL     1      43.768   4.818   9.910  0.00  0.00    +0.000 N 
ATOM     16  H   UNL     1      42.814   4.792   9.552  0.00  0.00    +0.000 HD
BRANCH  15  20
ATOM     17  C   UNL     1      46.470   2.629   7.679  0.00  0.00    +0.000 A 
ATOM     18  N   UNL     1      45.609   1.920   8.446  0.00  0.00    +0.000 NA
ATOM     19  C   UNL     1      44.731   2.656   9.165  0.00  0.00    +0.000 A 
ATOM     20  C   UNL     1      44.634   4.035   9.128  0.00  0.00    +0.000 A 
ATOM     21  C   UNL     1      45.600   4.630   8.326  0.00  0.00    +0.000 A 
ATOM     22  N   UNL     1      46.516   3.969   7.586  0.00  0.00    +0.000 NA
BRANCH  17  24
ATOM     23  N   UNL     1      48.563   2.542   6.431  0.00  0.00    +0.000 N 
ATOM     24  C   UNL     1      47.487   1.823   6.903  0.00  0.00    +0.000 C 
ATOM     25  O   UNL     1      47.395   0.622   6.684  0.00  0.00    +0.000 OA
ATOM     26  H   UNL     1      49.273   2.071   5.891  0.00  0.00    +0.000 HD
ATOM     27  H   UNL     1      48.627   3.536   6.621  0.00  0.00    +0.000 HD
ENDBRANCH  17  24
ENDBRANCH  15  20
ENDBRANCH   1  15
BRANCH   3  28
ATOM     28  O   UNL     1      42.692   5.516  13.559  0.00  0.00    +0.000 OA
ATOM     29  H   UNL     1      42.895   4.925  14.306  0.00  0.00    +0.000 HD
ENDBRANCH   3  28
TORSDOF 7
ENDMDL
MODEL 4
REMARK VINA RESULT:    -7.835      4.737      7.294
REMARK INTER + INTRA:         -11.728
REMARK INTER:                 -11.013
REMARK INTRA:                  -0.715
REMARK UNBOUND:                -0.915
REMARK  Name = 
REMARK  7 active torsions:
REMARK  status: ('A' for Active; 'I' for Inactive)
REMARK    1  A    between atoms: C_2  and  C_4
REMARK    2  A    between atoms: C_7  and  N_8
REMARK    3  A    between atoms: N_8  and  C_9
REMARK    4  A    between atoms: C_9  and  C_10
REMARK    5  A    between atoms: C_13  and  O_14
REMARK    6  A    between atoms: O_14  and  C_15
REMARK    7  A    between atoms: C_22  and  O_23
REMARK                            x       y       z     vdW  Elec       q    Type
REMARK                         _______ _______ _______ _____ _____    ______ ____
ROOT
ATOM      1  C   UNL     1      44.658   4.544  12.477  0.00  0.00    +0.000 C 
ATOM      2  C   UNL     1      44.171   5.960  12.768  0.00  0.00    +0.000 C 
ATOM      3  C   UNL     1      43.195   4.835  12.826  0.00  0.00    +0.000 C 
ENDROOT
BRANCH   1   4
ATOM      4  C   UNL     1      45.005   4.198  11.029  0.00  0.00    +0.000 A 
ATOM      5  C   UNL     1      44.849   2.891  10.534  0.00  0.00    +0.000 A 
ATOM      6  C   UNL     1      45.077   2.575   9.192  0.00  0.00    +0.000 A 
ATOM      7  C   UNL     1      45.419   3.574   8.293  0.00  0.00    +0.000 A 
ATOM      8  C   UNL     1      45.665   4.865   8.774  0.00  0.00    +0.000 A 
ATOM      9  C   UNL     1      45.468   5.166  10.125  0.00  0.00    +0.000 A 
BRANCH   7  10
ATOM     10  O   UNL     1      45.583   3.413   6.952  0.00  0.00    +0.000 OA
BRANCH  10  11
ATOM     11  C   UNL     1      46.755   2.762   6.477  0.00  0.00    +0.000 C 
ATOM     12  F   UNL     1      46.717   1.416   6.533  0.00  0.00    +0.000 F 
ATOM     13  F   UNL     1      46.944   3.112   5.182  0.00  0.00    +0.000 F 
ATOM     14  F   UNL     1      47.819   3.196   7.187  0.00  0.00    +0.000 F 
ENDBRANCH  10  11
ENDBRANCH   7  10
ENDBRANCH   1   4
BRANCH   1  15
ATOM     15  N   UNL     1      45.609   4.001  13.467  0.00  0.00    +0.000 N 
ATOM     16  H   UNL     1      45.210   3.325  14.118  0.00  0.00    +0.000 HD
BRANCH  15  20
ATOM     17  C   UNL     1      48.745   5.997  15.272  0.00  0.00    +0.000 A 
ATOM     18  N   UNL     1      48.458   6.354  13.998  0.00  0.00    +0.000 NA
ATOM     19  C   UNL     1      47.426   5.690  13.427  0.00  0.00    +0.000 A 
ATOM     20  C   UNL     1      46.647   4.739  14.062  0.00  0.00    +0.000 A 
ATOM     21  C   UNL     1      47.076   4.451  15.351  0.00  0.00    +0.000 A 
ATOM     22  N   UNL     1      48.101   5.059  15.987  0.00  0.00    +0.000 NA
BRANCH  17  24
ATOM     23  N   UNL     1      50.801   7.283  15.023  0.00  0.00    +0.000 N 
ATOM     24  C   UNL     1      49.924   6.697  15.908  0.00  0.00    +0.000 C 
ATOM     25  O   UNL     1      50.122   6.756  17.115  0.00  0.00    +0.000 OA
ATOM     26  H   UNL     1      51.619   7.756  15.378  0.00  0.00    +0.000 HD
ATOM     27  H   UNL     1      50.623   7.228  14.027  0.00  0.00    +0.000 HD
ENDBRANCH  17  24
ENDBRANCH  15  20
ENDBRANCH   1  15
BRANCH   3  28
ATOM     28  O   UNL     1      42.231   4.788  11.756  0.00  0.00    +0.000 OA
ATOM     29  H   UNL     1      41.559   4.098  11.902  0.00  0.00    +0.000 HD
ENDBRANCH   3  28
TORSDOF 7
ENDMDL
MODEL 5
REMARK VINA RESULT:    -7.379      4.758      7.044
REMARK INTER + INTRA:         -11.099
REMARK INTER:                 -10.994
REMARK INTRA:                  -0.105
REMARK UNBOUND:                -0.915
REMARK  Name = 
REMARK  7 active torsions:
REMARK  status: ('A' for Active; 'I' for Inactive)
REMARK    1  A    between atoms: C_2  and  C_4
REMARK    2  A    between atoms: C_7  and  N_8
REMARK    3  A    between atoms: N_8  and  C_9
REMARK    4  A    between atoms: C_9  and  C_10
REMARK    5  A    between atoms: C_13  and  O_14
REMARK    6  A    between atoms: O_14  and  C_15
REMARK    7  A    between atoms: C_22  and  O_23
REMARK                            x       y       z     vdW  Elec       q    Type
REMARK                         _______ _______ _______ _____ _____    ______ ____
ROOT
ATOM      1  C   UNL     1      44.940   5.403  11.602  0.00  0.00    +0.000 C 
ATOM      2  C   UNL     1      43.900   6.518  11.544  0.00  0.00    +0.000 C 
ATOM      3  C   UNL     1      43.600   5.292  12.338  0.00  0.00    +0.000 C 
ENDROOT
BRANCH   1   4
ATOM      4  C   UNL     1      45.149   4.562  10.343  0.00  0.00    +0.000 A 
ATOM      5  C   UNL     1      45.606   5.143   9.146  0.00  0.00    +0.000 A 
ATOM      6  C   UNL     1      45.887   4.377   8.012  0.00  0.00    +0.000 A 
ATOM      7  C   UNL     1      45.767   2.997   8.059  0.00  0.00    +0.000 A 
ATOM      8  C   UNL     1      45.232   2.401   9.208  0.00  0.00    +0.000 A 
ATOM      9  C   UNL     1      44.921   3.178  10.327  0.00  0.00    +0.000 A 
BRANCH   7  10
ATOM     10  O   UNL     1      46.089   2.136   7.056  0.00  0.00    +0.000 OA
BRANCH  10  11
ATOM     11  C   UNL     1      47.461   1.928   6.744  0.00  0.00    +0.000 C 
ATOM     12  F   UNL     1      48.284   2.929   7.115  0.00  0.00    +0.000 F 
ATOM     13  F   UNL     1      47.878   0.803   7.372  0.00  0.00    +0.000 F 
ATOM     14  F   UNL     1      47.586   1.735   5.413  0.00  0.00    +0.000 F 
ENDBRANCH  10  11
ENDBRANCH   7  10
ENDBRANCH   1   4
BRANCH   1  15
ATOM     15  N   UNL     1      46.192   5.761  12.298  0.00  0.00    +0.000 N 
ATOM     16  H   UNL     1      46.908   6.177  11.703  0.00  0.00    +0.000 HD
BRANCH  15  20
ATOM     17  C   UNL     1      47.753   3.688  15.513  0.00  0.00    +0.000 A 
ATOM     18  N   UNL     1      47.244   2.942  14.506  0.00  0.00    +0.000 NA
ATOM     19  C   UNL     1      46.741   3.640  13.462  0.00  0.00    +0.000 A 
ATOM     20  C   UNL     1      46.760   5.018  13.347  0.00  0.00    +0.000 A 
ATOM     21  C   UNL     1      47.281   5.654  14.467  0.00  0.00    +0.000 A 
ATOM     22  N   UNL     1      47.792   5.031  15.551  0.00  0.00    +0.000 NA
BRANCH  17  24
ATOM     23  N   UNL     1      47.443   2.907  17.802  0.00  0.00    +0.000 N 
ATOM     24  C   UNL     1      48.279   2.924  16.707  0.00  0.00    +0.000 C 
ATOM     25  O   UNL     1      49.362   2.354  16.740  0.00  0.00    +0.000 OA
ATOM     26  H   UNL     1      47.736   2.428  18.640  0.00  0.00    +0.000 HD
ATOM     27  H   UNL     1      46.548   3.382  17.760  0.00  0.00    +0.000 HD
ENDBRANCH  17  24
ENDBRANCH  15  20
ENDBRANCH   1  15
BRANCH   3  28
ATOM     28  O   UNL     1      42.603   4.415  11.782  0.00  0.00    +0.000 OA
ATOM     29  H   UNL     1      42.341   3.717  12.409  0.00  0.00    +0.000 HD
ENDBRANCH   3  28
TORSDOF 7
ENDMDL
MODEL 6
REMARK VINA RESULT:    -6.950      4.672      7.087
REMARK INTER + INTRA:         -10.506
REMARK INTER:                 -10.549
REMARK INTRA:                   0.042
REMARK UNBOUND:                -0.915
REMARK  Name = 
REMARK  7 active torsions:
REMARK  status: ('A' for Active; 'I' for Inactive)
REMARK    1  A    between atoms: C_2  and  C_4
REMARK    2  A    between atoms: C_7  and  N_8
REMARK    3  A    between atoms: N_8  and  C_9
REMARK    4  A    between atoms: C_9  and  C_10
REMARK    5  A    between atoms: C_13  and  O_14
REMARK    6  A    between atoms: O_14  and  C_15
REMARK    7  A    between atoms: C_22  and  O_23
REMARK                            x       y       z     vdW  Elec       q    Type
REMARK                         _______ _______ _______ _____ _____    ______ ____
ROOT
ATOM      1  C   UNL     1      44.519   4.014  12.009  0.00  0.00    +0.000 C 
ATOM      2  C   UNL     1      43.152   4.668  12.179  0.00  0.00    +0.000 C 
ATOM      3  C   UNL     1      43.301   3.216  12.486  0.00  0.00    +0.000 C 
ENDROOT
BRANCH   1   4
ATOM      4  C   UNL     1      45.024   3.787  10.584  0.00  0.00    +0.000 A 
ATOM      5  C   UNL     1      45.171   2.491  10.060  0.00  0.00    +0.000 A 
ATOM      6  C   UNL     1      45.546   2.267   8.733  0.00  0.00    +0.000 A 
ATOM      7  C   UNL     1      45.735   3.339   7.875  0.00  0.00    +0.000 A 
ATOM      8  C   UNL     1      45.680   4.639   8.391  0.00  0.00    +0.000 A 
ATOM      9  C   UNL     1      45.338   4.855   9.729  0.00  0.00    +0.000 A 
BRANCH   7  10
ATOM     10  O   UNL     1      46.017   3.254   6.546  0.00  0.00    +0.000 OA
BRANCH  10  11
ATOM     11  C   UNL     1      47.146   2.496   6.131  0.00  0.00    +0.000 C 
ATOM     12  F   UNL     1      46.974   1.159   6.164  0.00  0.00    +0.000 F 
ATOM     13  F   UNL     1      47.445   2.837   4.855  0.00  0.00    +0.000 F 
ATOM     14  F   UNL     1      48.202   2.816   6.909  0.00  0.00    +0.000 F 
ENDBRANCH  10  11
ENDBRANCH   7  10
ENDBRANCH   1   4
BRANCH   1  15
ATOM     15  N   UNL     1      45.556   4.499  12.942  0.00  0.00    +0.000 N 
ATOM     16  H   UNL     1      45.478   4.140  13.893  0.00  0.00    +0.000 HD
BRANCH  15  20
ATOM     17  C   UNL     1      47.278   8.249  12.730  0.00  0.00    +0.000 A 
ATOM     18  N   UNL     1      45.925   8.207  12.730  0.00  0.00    +0.000 NA
ATOM     19  C   UNL     1      45.382   6.970  12.804  0.00  0.00    +0.000 A 
ATOM     20  C   UNL     1      46.101   5.794  12.922  0.00  0.00    +0.000 A 
ATOM     21  C   UNL     1      47.476   5.986  12.876  0.00  0.00    +0.000 A 
ATOM     22  N   UNL     1      48.095   7.184  12.792  0.00  0.00    +0.000 NA
BRANCH  17  24
ATOM     23  N   UNL     1      48.082  10.290  13.794  0.00  0.00    +0.000 N 
ATOM     24  C   UNL     1      47.901   9.621  12.604  0.00  0.00    +0.000 C 
ATOM     25  O   UNL     1      48.227  10.135  11.542  0.00  0.00    +0.000 OA
ATOM     26  H   UNL     1      48.479  11.218  13.783  0.00  0.00    +0.000 HD
ATOM     27  H   UNL     1      47.808   9.851  14.665  0.00  0.00    +0.000 HD
ENDBRANCH  17  24
ENDBRANCH  15  20
ENDBRANCH   1  15
BRANCH   3  28
ATOM     28  O   UNL     1      42.686   2.312  11.549  0.00  0.00    +0.000 OA
ATOM     29  H   UNL     1      43.233   2.185  10.753  0.00  0.00    +0.000 HD
ENDBRANCH   3  28
TORSDOF 7
ENDMDL
MODEL 7
REMARK VINA RESULT:    -6.852      4.574      6.977
REMARK INTER + INTRA:         -10.372
REMARK INTER:                 -10.915
REMARK INTRA:                   0.543
REMARK UNBOUND:                -0.915
REMARK  Name = 
REMARK  7 active torsions:
REMARK  status: ('A' for Active; 'I' for Inactive)
REMARK    1  A    between atoms: C_2  and  C_4
REMARK    2  A    between atoms: C_7  and  N_8
REMARK    3  A    between atoms: N_8  and  C_9
REMARK    4  A    between atoms: C_9  and  C_10
REMARK    5  A    between atoms: C_13  and  O_14
REMARK    6  A    between atoms: O_14  and  C_15
REMARK    7  A    between atoms: C_22  and  O_23
REMARK                            x       y       z     vdW  Elec       q    Type
REMARK                         _______ _______ _______ _____ _____    ______ ____
ROOT
ATOM      1  C   UNL     1      44.164   4.892  11.836  0.00  0.00    +0.000 C 
ATOM      2  C   UNL     1      42.673   4.719  12.104  0.00  0.00    +0.000 C 
ATOM      3  C   UNL     1      43.642   3.844  12.823  0.00  0.00    +0.000 C 
ENDROOT
BRANCH   1   4
ATOM      4  C   UNL     1      44.701   4.415  10.486  0.00  0.00    +0.000 A 
ATOM      5  C   UNL     1      44.291   3.190   9.930  0.00  0.00    +0.000 A 
ATOM      6  C   UNL     1      44.702   2.779   8.660  0.00  0.00    +0.000 A 
ATOM      7  C   UNL     1      45.497   3.611   7.885  0.00  0.00    +0.000 A 
ATOM      8  C   UNL     1      45.988   4.795   8.446  0.00  0.00    +0.000 A 
ATOM      9  C   UNL     1      45.601   5.183   9.731  0.00  0.00    +0.000 A 
BRANCH   7  10
ATOM     10  O   UNL     1      45.892   3.366   6.606  0.00  0.00    +0.000 OA
BRANCH  10  11
ATOM     11  C   UNL     1      47.051   2.572   6.385  0.00  0.00    +0.000 C 
ATOM     12  F   UNL     1      48.126   2.925   7.117  0.00  0.00    +0.000 F 
ATOM     13  F   UNL     1      46.754   1.286   6.690  0.00  0.00    +0.000 F 
ATOM     14  F   UNL     1      47.380   2.627   5.077  0.00  0.00    +0.000 F 
ENDBRANCH  10  11
ENDBRANCH   7  10
ENDBRANCH   1   4
BRANCH   1  15
ATOM     15  N   UNL     1      44.728   6.182  12.283  0.00  0.00    +0.000 N 
ATOM     16  H   UNL     1      44.463   6.985  11.713  0.00  0.00    +0.000 HD
BRANCH  15  20
ATOM     17  C   UNL     1      48.428   6.811  14.009  0.00  0.00    +0.000 A 
ATOM     18  N   UNL     1      47.933   5.554  14.089  0.00  0.00    +0.000 NA
ATOM     19  C   UNL     1      46.722   5.369  13.515  0.00  0.00    +0.000 A 
ATOM     20  C   UNL     1      46.010   6.341  12.835  0.00  0.00    +0.000 A 
ATOM     21  C   UNL     1      46.622   7.587  12.861  0.00  0.00    +0.000 A 
ATOM     22  N   UNL     1      47.821   7.857  13.422  0.00  0.00    +0.000 NA
BRANCH  17  24
ATOM     23  N   UNL     1      50.625   7.869  13.999  0.00  0.00    +0.000 N 
ATOM     24  C   UNL     1      49.760   7.045  14.685  0.00  0.00    +0.000 C 
ATOM     25  O   UNL     1      50.085   6.553  15.758  0.00  0.00    +0.000 OA
ATOM     26  H   UNL     1      51.538   8.057  14.384  0.00  0.00    +0.000 HD
ATOM     27  H   UNL     1      50.341   8.270  13.113  0.00  0.00    +0.000 HD
ENDBRANCH  17  24
ENDBRANCH  15  20
ENDBRANCH   1  15
BRANCH   3  28
ATOM     28  O   UNL     1      43.665   2.464  12.409  0.00  0.00    +0.000 OA
ATOM     29  H   UNL     1      43.247   1.880  13.066  0.00  0.00    +0.000 HD
ENDBRANCH   3  28
TORSDOF 7
ENDMDL
MODEL 8
REMARK VINA RESULT:    -6.429      5.186      7.965
REMARK INTER + INTRA:          -9.787
REMARK INTER:                  -9.264
REMARK INTRA:                  -0.523
REMARK UNBOUND:                -0.915
REMARK  Name = 
REMARK  7 active torsions:
REMARK  status: ('A' for Active; 'I' for Inactive)
REMARK    1  A    between atoms: C_2  and  C_4
REMARK    2  A    between atoms: C_7  and  N_8
REMARK    3  A    between atoms: N_8  and  C_9
REMARK    4  A    between atoms: C_9  and  C_10
REMARK    5  A    between atoms: C_13  and  O_14
REMARK    6  A    between atoms: O_14  and  C_15
REMARK    7  A    between atoms: C_22  and  O_23
REMARK                            x       y       z     vdW  Elec       q    Type
REMARK                         _______ _______ _______ _____ _____    ______ ____
ROOT
ATOM      1  C   UNL     1      47.015   6.880  12.860  0.00  0.00    +0.000 C 
ATOM      2  C   UNL     1      47.363   8.200  12.181  0.00  0.00    +0.000 C 
ATOM      3  C   UNL     1      46.389   8.204  13.310  0.00  0.00    +0.000 C 
ENDROOT
BRANCH   1   4
ATOM      4  C   UNL     1      46.144   5.892  12.083  0.00  0.00    +0.000 A 
ATOM      5  C   UNL     1      45.964   6.015  10.694  0.00  0.00    +0.000 A 
ATOM      6  C   UNL     1      45.245   5.072   9.955  0.00  0.00    +0.000 A 
ATOM      7  C   UNL     1      44.729   3.947  10.579  0.00  0.00    +0.000 A 
ATOM      8  C   UNL     1      44.819   3.843  11.972  0.00  0.00    +0.000 A 
ATOM      9  C   UNL     1      45.510   4.808  12.710  0.00  0.00    +0.000 A 
BRANCH   7  10
ATOM     10  O   UNL     1      44.087   2.919   9.961  0.00  0.00    +0.000 OA
BRANCH  10  11
ATOM     11  C   UNL     1      44.756   2.218   8.921  0.00  0.00    +0.000 C 
ATOM     12  F   UNL     1      46.088   2.098   9.085  0.00  0.00    +0.000 F 
ATOM     13  F   UNL     1      44.240   0.968   8.846  0.00  0.00    +0.000 F 
ATOM     14  F   UNL     1      44.518   2.840   7.746  0.00  0.00    +0.000 F 
ENDBRANCH  10  11
ENDBRANCH   7  10
ENDBRANCH   1   4
BRANCH   1  15
ATOM     15  N   UNL     1      48.131   6.248  13.592  0.00  0.00    +0.000 N 
ATOM     16  H   UNL     1      48.641   5.539  13.066  0.00  0.00    +0.000 HD
BRANCH  15  20
ATOM     17  C   UNL     1      48.154   5.214  17.592  0.00  0.00    +0.000 A 
ATOM     18  N   UNL     1      48.812   6.349  17.261  0.00  0.00    +0.000 NA
ATOM     19  C   UNL     1      48.789   6.671  15.947  0.00  0.00    +0.000 A 
ATOM     20  C   UNL     1      48.118   5.960  14.968  0.00  0.00    +0.000 A 
ATOM     21  C   UNL     1      47.516   4.804  15.446  0.00  0.00    +0.000 A 
ATOM     22  N   UNL     1      47.503   4.407  16.737  0.00  0.00    +0.000 NA
BRANCH  17  24
ATOM     23  N   UNL     1      48.416   3.474  19.281  0.00  0.00    +0.000 N 
ATOM     24  C   UNL     1      48.207   4.816  19.050  0.00  0.00    +0.000 C 
ATOM     25  O   UNL     1      48.074   5.597  19.984  0.00  0.00    +0.000 OA
ATOM     26  H   UNL     1      48.448   3.136  20.231  0.00  0.00    +0.000 HD
ATOM     27  H   UNL     1      48.526   2.840  18.498  0.00  0.00    +0.000 HD
ENDBRANCH  17  24
ENDBRANCH  15  20
ENDBRANCH   1  15
BRANCH   3  28
ATOM     28  O   UNL     1      45.017   8.451  12.951  0.00  0.00    +0.000 OA
ATOM     29  H   UNL     1      44.448   7.683  13.140  0.00  0.00    +0.000 HD
ENDBRANCH   3  28
TORSDOF 7
ENDMDL
