MODEL 1
REMARK VINA RESULT:    -8.255      0.000      0.000
REMARK INTER + INTRA:         -12.537
REMARK INTER:                 -11.633
REMARK INTRA:                  -0.904
REMARK UNBOUND:                -0.904
REMARK  Name = 
REMARK  7 active torsions:
REMARK  status: ('A' for Active; 'I' for Inactive)
REMARK    1  A    between atoms: C_2  and  C_3
REMARK    2  A    between atoms: C_3  and  N_4
REMARK    3  A    between atoms: C_3  and  C_22
REMARK    4  A    between atoms: C_5  and  C_7
REMARK    5  A    between atoms: C_10  and  C_11
REMARK    6  A    between atoms: C_11  and  N_12
REMARK    7  A    between atoms: C_13  and  C_15
REMARK                            x       y       z     vdW  Elec       q    Type
REMARK                         _______ _______ _______ _____ _____    ______ ____
ROOT
ATOM      1  N   UNL     1      47.332   5.047  15.917  0.00  0.00    +0.000 N 
ATOM      2  C   UNL     1      47.582   5.495  14.643  0.00  0.00    +0.000 C 
ATOM      3  O   UNL     1      48.551   6.183  14.348  0.00  0.00    +0.000 OA
ATOM      4  H   UNL     1      46.666   4.294  16.078  0.00  0.00    +0.000 HD
ENDROOT
BRANCH   2   5
ATOM      5  C   UNL     1      46.614   5.075  13.602  0.00  0.00    +0.000 A 
ATOM      6  C   UNL     1      46.378   3.736  13.297  0.00  0.00    +0.000 A 
ATOM      7  C   UNL     1      45.475   3.414  12.286  0.00  0.00    +0.000 A 
ATOM      8  C   UNL     1      44.815   4.441  11.610  0.00  0.00    +0.000 A 
ATOM      9  N   UNL     1      45.014   5.752  11.914  0.00  0.00    +0.000 NA
ATOM     10  C   UNL     1      45.896   6.039  12.907  0.00  0.00    +0.000 A 
BRANCH   8  11
ATOM     11  C   UNL     1      43.843   4.116  10.498  0.00  0.00    +0.000 C 
BRANCH  11  12
ATOM     12  N   UNL     1      44.457   3.404   9.399  0.00  0.00    +0.000 N 
ATOM     13  C   UNL     1      45.416   3.947   8.578  0.00  0.00    +0.000 C 
ATOM     14  O   UNL     1      45.779   5.119   8.653  0.00  0.00    +0.000 OA
ATOM     15  H   UNL     1      44.233   2.425   9.244  0.00  0.00    +0.000 HD
BRANCH  13  16
ATOM     16  C   UNL     1      45.983   2.976   7.528  0.00  0.00    +0.000 C 
ATOM     17  C   UNL     1      46.354   1.615   8.086  0.00  0.00    +0.000 C 
ATOM     18  C   UNL     1      47.278   1.061   7.015  0.00  0.00    +0.000 C 
ATOM     19  C   UNL     1      47.952   2.287   6.414  0.00  0.00    +0.000 C 
ATOM     20  N   UNL     1      47.287   3.456   6.998  0.00  0.00    +0.000 NA
ATOM     21  H   UNL     1      47.122   4.166   6.285  0.00  0.00    +0.000 HD
ENDBRANCH  13  16
ENDBRANCH  11  12
ENDBRANCH   8  11
ENDBRANCH   2   5
BRANCH   1  22
ATOM     22  C   UNL     1      48.252   5.324  17.007  0.00  0.00    +0.000 C 
BRANCH  22  23
ATOM     23  C   UNL     1      49.204   4.156  17.149  0.00  0.00    +0.000 A 
ATOM     24  C   UNL     1      48.845   2.846  16.870  0.00  0.00    +0.000 A 
ATOM     25  S   UNL     1      50.124   1.734  17.086  0.00  0.00    +0.000 S 
ATOM     26  C   UNL     1      51.199   2.966  17.562  0.00  0.00    +0.000 A 
ATOM     27  N   UNL     1      52.494   2.697  17.875  0.00  0.00    +0.000 NA
ATOM     28  C   UNL     1      53.193   3.739  18.186  0.00  0.00    +0.000 A 
ATOM     29  N   UNL     1      52.708   5.027  18.231  0.00  0.00    +0.000 N 
ATOM     30  C   UNL     1      51.384   5.331  18.011  0.00  0.00    +0.000 A 
ATOM     31  O   UNL     1      50.921   6.451  18.206  0.00  0.00    +0.000 OA
ATOM     32  C   UNL     1      50.583   4.201  17.580  0.00  0.00    +0.000 A 
ATOM     33  H   UNL     1      53.307   5.787  18.516  0.00  0.00    +0.000 HD
ENDBRANCH  22  23
BRANCH  22  35
ATOM     34  N   UNL     1      46.987   5.792  19.281  0.00  0.00    +0.000 NA
ATOM     35  C   UNL     1      47.541   5.592  18.281  0.00  0.00    +0.000 C 
ENDBRANCH  22  35
ENDBRANCH   1  22
TORSDOF 7
ENDMDL
MODEL 2
REMARK VINA RESULT:    -7.854      2.536      3.297
REMARK INTER + INTRA:         -11.972
REMARK INTER:                 -10.867
REMARK INTRA:                  -1.105
REMARK UNBOUND:                -0.904
REMARK  Name = 
REMARK  7 active torsions:
REMARK  status: ('A' for Active; 'I' for Inactive)
REMARK    1  A    between atoms: C_2  and  C_3
REMARK    2  A    between atoms: C_3  and  N_4
REMARK    3  A    between atoms: C_3  and  C_22
REMARK    4  A    between atoms: C_5  and  C_7
REMARK    5  A    between atoms: C_10  and  C_11
REMARK    6  A    between atoms: C_11  and  N_12
REMARK    7  A    between atoms: C_13  and  C_15
REMARK                            x       y       z     vdW  Elec       q    Type
REMARK                         _______ _______ _______ _____ _____    ______ ____
ROOT
ATOM      1  N   UNL     1      48.089   7.159  15.740  0.00  0.00    +0.000 N 
ATOM      2  C   UNL     1      48.468   6.674  14.512  0.00  0.00    +0.000 C 
ATOM      3  O   UNL     1      49.574   6.867  14.023  0.00  0.00    +0.000 OA
ATOM      4  H   UNL     1      47.267   6.785  16.211  0.00  0.00    +0.000 HD
ENDROOT
BRANCH   2   5
ATOM      5  C   UNL     1      47.460   5.860  13.793  0.00  0.00    +0.000 A 
ATOM      6  C   UNL     1      46.829   6.305  12.633  0.00  0.00    +0.000 A 
ATOM      7  C   UNL     1      45.868   5.498  12.025  0.00  0.00    +0.000 A 
ATOM      8  C   UNL     1      45.571   4.255  12.584  0.00  0.00    +0.000 A 
ATOM      9  N   UNL     1      46.197   3.795  13.700  0.00  0.00    +0.000 NA
ATOM     10  C   UNL     1      47.133   4.598  14.271  0.00  0.00    +0.000 A 
BRANCH   8  11
ATOM     11  C   UNL     1      44.520   3.370  11.951  0.00  0.00    +0.000 C 
BRANCH  11  12
ATOM     12  N   UNL     1      44.880   2.924  10.623  0.00  0.00    +0.000 N 
ATOM     13  C   UNL     1      44.459   3.542   9.470  0.00  0.00    +0.000 C 
ATOM     14  O   UNL     1      43.669   4.484   9.462  0.00  0.00    +0.000 OA
ATOM     15  H   UNL     1      45.533   2.153  10.508  0.00  0.00    +0.000 HD
BRANCH  13  16
ATOM     16  C   UNL     1      45.034   2.942   8.176  0.00  0.00    +0.000 C 
ATOM     17  C   UNL     1      46.018   1.810   8.407  0.00  0.00    +0.000 C 
ATOM     18  C   UNL     1      46.750   1.733   7.078  0.00  0.00    +0.000 C 
ATOM     19  C   UNL     1      46.733   3.160   6.545  0.00  0.00    +0.000 C 
ATOM     20  N   UNL     1      45.872   3.931   7.447  0.00  0.00    +0.000 NA
ATOM     21  H   UNL     1      45.269   4.559   6.914  0.00  0.00    +0.000 HD
ENDBRANCH  13  16
ENDBRANCH  11  12
ENDBRANCH   8  11
ENDBRANCH   2   5
BRANCH   1  22
ATOM     22  C   UNL     1      49.016   7.902  16.576  0.00  0.00    +0.000 C 
BRANCH  22  23
ATOM     23  C   UNL     1      48.714   7.596  18.027  0.00  0.00    +0.000 A 
ATOM     24  C   UNL     1      48.231   8.543  18.918  0.00  0.00    +0.000 A 
ATOM     25  S   UNL     1      47.949   7.917  20.483  0.00  0.00    +0.000 S 
ATOM     26  C   UNL     1      48.468   6.362  20.023  0.00  0.00    +0.000 A 
ATOM     27  N   UNL     1      48.460   5.322  20.899  0.00  0.00    +0.000 NA
ATOM     28  C   UNL     1      48.850   4.198  20.393  0.00  0.00    +0.000 A 
ATOM     29  N   UNL     1      49.267   4.023  19.094  0.00  0.00    +0.000 N 
ATOM     30  C   UNL     1      49.376   5.064  18.201  0.00  0.00    +0.000 A 
ATOM     31  O   UNL     1      49.896   4.937  17.097  0.00  0.00    +0.000 OA
ATOM     32  C   UNL     1      48.872   6.328  18.704  0.00  0.00    +0.000 A 
ATOM     33  H   UNL     1      49.590   3.120  18.779  0.00  0.00    +0.000 HD
ENDBRANCH  22  23
BRANCH  22  35
ATOM     34  N   UNL     1      48.921  10.502  16.110  0.00  0.00    +0.000 NA
ATOM     35  C   UNL     1      48.957   9.360  16.314  0.00  0.00    +0.000 C 
ENDBRANCH  22  35
ENDBRANCH   1  22
TORSDOF 7
ENDMDL
MODEL 3
REMARK VINA RESULT:    -7.679      1.192      1.482
REMARK INTER + INTRA:         -11.725
REMARK INTER:                 -10.755
REMARK INTRA:                  -0.970
REMARK UNBOUND:                -0.904
REMARK  Name = 
REMARK  7 active torsions:
REMARK  status: ('A' for Active; 'I' for Inactive)
REMARK    1  A    between atoms: C_2  and  C_3
REMARK    2  A    between atoms: C_3  and  N_4
REMARK    3  A    between atoms: C_3  and  C_22
REMARK    4  A    between atoms: C_5  and  C_7
REMARK    5  A    between atoms: C_10  and  C_11
REMARK    6  A    between atoms: C_11  and  N_12
REMARK    7  A    between atoms: C_13  and  C_15
REMARK                            x       y       z     vdW  Elec       q    Type
REMARK                         _______ _______ _______ _____ _____    ______ ____
ROOT
ATOM      1  N   UNL     1      47.923   5.876  16.271  0.00  0.00    +0.000 N 
ATOM      2  C   UNL     1      48.358   6.281  15.032  0.00  0.00    +0.000 C 
ATOM      3  O   UNL     1      49.489   6.701  14.819  0.00  0.00    +0.000 OA
ATOM      4  H   UNL     1      47.075   5.319  16.362  0.00  0.00    +0.000 HD
ENDROOT
BRANCH   2   5
ATOM      5  C   UNL     1      47.380   6.161  13.925  0.00  0.00    +0.000 A 
ATOM      6  C   UNL     1      47.132   7.199  13.031  0.00  0.00    +0.000 A 
ATOM      7  C   UNL     1      46.176   7.027  12.031  0.00  0.00    +0.000 A 
ATOM      8  C   UNL     1      45.499   5.810  11.939  0.00  0.00    +0.000 A 
ATOM      9  N   UNL     1      45.749   4.778  12.788  0.00  0.00    +0.000 NA
ATOM     10  C   UNL     1      46.688   4.970  13.751  0.00  0.00    +0.000 A 
BRANCH   8  11
ATOM     11  C   UNL     1      44.446   5.606  10.873  0.00  0.00    +0.000 C 
BRANCH  11  12
ATOM     12  N   UNL     1      44.932   4.865   9.730  0.00  0.00    +0.000 N 
ATOM     13  C   UNL     1      44.545   3.582   9.431  0.00  0.00    +0.000 C 
ATOM     14  O   UNL     1      43.810   2.915  10.157  0.00  0.00    +0.000 OA
ATOM     15  H   UNL     1      45.545   5.319   9.057  0.00  0.00    +0.000 HD
BRANCH  13  16
ATOM     16  C   UNL     1      45.130   3.025   8.121  0.00  0.00    +0.000 C 
ATOM     17  C   UNL     1      46.063   1.846   8.317  0.00  0.00    +0.000 C 
ATOM     18  C   UNL     1      46.826   1.808   7.005  0.00  0.00    +0.000 C 
ATOM     19  C   UNL     1      46.878   3.259   6.546  0.00  0.00    +0.000 C 
ATOM     20  N   UNL     1      46.023   4.017   7.465  0.00  0.00    +0.000 NA
ATOM     21  H   UNL     1      45.458   4.694   6.951  0.00  0.00    +0.000 HD
ENDBRANCH  13  16
ENDBRANCH  11  12
ENDBRANCH   8  11
ENDBRANCH   2   5
BRANCH   1  22
ATOM     22  C   UNL     1      48.814   5.870  17.418  0.00  0.00    +0.000 C 
BRANCH  22  23
ATOM     23  C   UNL     1      49.572   4.560  17.437  0.00  0.00    +0.000 A 
ATOM     24  C   UNL     1      48.987   3.339  17.136  0.00  0.00    +0.000 A 
ATOM     25  S   UNL     1      50.082   2.029  17.206  0.00  0.00    +0.000 S 
ATOM     26  C   UNL     1      51.373   3.049  17.644  0.00  0.00    +0.000 A 
ATOM     27  N   UNL     1      52.627   2.563  17.843  0.00  0.00    +0.000 NA
ATOM     28  C   UNL     1      53.505   3.464  18.138  0.00  0.00    +0.000 A 
ATOM     29  N   UNL     1      53.240   4.808  18.273  0.00  0.00    +0.000 N 
ATOM     30  C   UNL     1      51.970   5.329  18.169  0.00  0.00    +0.000 A 
ATOM     31  O   UNL     1      51.710   6.496  18.445  0.00  0.00    +0.000 OA
ATOM     32  C   UNL     1      50.968   4.363  17.759  0.00  0.00    +0.000 A 
ATOM     33  H   UNL     1      53.973   5.448  18.538  0.00  0.00    +0.000 HD
ENDBRANCH  22  23
BRANCH  22  35
ATOM     34  N   UNL     1      47.511   6.241  19.688  0.00  0.00    +0.000 NA
ATOM     35  C   UNL     1      48.084   6.083  18.691  0.00  0.00    +0.000 C 
ENDBRANCH  22  35
ENDBRANCH   1  22
TORSDOF 7
ENDMDL
MODEL 4
REMARK VINA RESULT:    -7.409      1.985      2.307
REMARK INTER + INTRA:         -11.345
REMARK INTER:                 -10.294
REMARK INTRA:                  -1.051
REMARK UNBOUND:                -0.904
REMARK  Name = 
REMARK  7 active torsions:
REMARK  status: ('A' for Active; 'I' for Inactive)
REMARK    1  A    between atoms: C_2  and  C_3
REMARK    2  A    between atoms: C_3  and  N_4
REMARK    3  A    between atoms: C_3  and  C_22
REMARK    4  A    between atoms: C_5  and  C_7
REMARK    5  A    between atoms: C_10  and  C_11
REMARK    6  A    between atoms: C_11  and  N_12
REMARK    7  A    between atoms: C_13  and  C_15
REMARK                            x       y       z     vdW  Elec       q    Type
REMARK                         _______ _______ _______ _____ _____    ______ ____
ROOT
ATOM      1  N   UNL     1      48.237   6.922  15.421  0.00  0.00    +0.000 N 
ATOM      2  C   UNL     1      47.953   7.061  14.084  0.00  0.00    +0.000 C 
ATOM      3  O   UNL     1      48.407   7.961  13.389  0.00  0.00    +0.000 OA
ATOM      4  H   UNL     1      48.041   6.045  15.900  0.00  0.00    +0.000 HD
ENDROOT
BRANCH   2   5
ATOM      5  C   UNL     1      47.068   6.029  13.494  0.00  0.00    +0.000 A 
ATOM      6  C   UNL     1      47.182   4.677  13.809  0.00  0.00    +0.000 A 
ATOM      7  C   UNL     1      46.336   3.758  13.193  0.00  0.00    +0.000 A 
ATOM      8  C   UNL     1      45.380   4.214  12.284  0.00  0.00    +0.000 A 
ATOM      9  N   UNL     1      45.238   5.533  11.986  0.00  0.00    +0.000 NA
ATOM     10  C   UNL     1      46.073   6.410  12.603  0.00  0.00    +0.000 A 
BRANCH   8  11
ATOM     11  C   UNL     1      44.461   3.233  11.591  0.00  0.00    +0.000 C 
BRANCH  11  12
ATOM     12  N   UNL     1      44.990   2.750  10.335  0.00  0.00    +0.000 N 
ATOM     13  C   UNL     1      44.785   3.376   9.129  0.00  0.00    +0.000 C 
ATOM     14  O   UNL     1      44.061   4.360   8.998  0.00  0.00    +0.000 OA
ATOM     15  H   UNL     1      45.607   1.942  10.324  0.00  0.00    +0.000 HD
BRANCH  13  16
ATOM     16  C   UNL     1      45.513   2.726   7.940  0.00  0.00    +0.000 C 
ATOM     17  C   UNL     1      46.167   1.398   8.270  0.00  0.00    +0.000 C 
ATOM     18  C   UNL     1      47.158   1.227   7.131  0.00  0.00    +0.000 C 
ATOM     19  C   UNL     1      47.553   2.647   6.747  0.00  0.00    +0.000 C 
ATOM     20  N   UNL     1      46.678   3.543   7.509  0.00  0.00    +0.000 NA
ATOM     21  H   UNL     1      46.354   4.311   6.920  0.00  0.00    +0.000 HD
ENDBRANCH  13  16
ENDBRANCH  11  12
ENDBRANCH   8  11
ENDBRANCH   2   5
BRANCH   1  22
ATOM     22  C   UNL     1      49.156   7.822  16.094  0.00  0.00    +0.000 C 
BRANCH  22  23
ATOM     23  C   UNL     1      50.477   7.111  16.291  0.00  0.00    +0.000 A 
ATOM     24  C   UNL     1      51.682   7.599  15.809  0.00  0.00    +0.000 A 
ATOM     25  S   UNL     1      53.019   6.610  16.202  0.00  0.00    +0.000 S 
ATOM     26  C   UNL     1      52.031   5.493  17.024  0.00  0.00    +0.000 A 
ATOM     27  N   UNL     1      52.553   4.395  17.630  0.00  0.00    +0.000 NA
ATOM     28  C   UNL     1      51.682   3.660  18.241  0.00  0.00    +0.000 A 
ATOM     29  N   UNL     1      50.330   3.914  18.283  0.00  0.00    +0.000 N 
ATOM     30  C   UNL     1      49.749   4.963  17.608  0.00  0.00    +0.000 A 
ATOM     31  O   UNL     1      48.533   5.098  17.515  0.00  0.00    +0.000 OA
ATOM     32  C   UNL     1      50.701   5.858  16.977  0.00  0.00    +0.000 A 
ATOM     33  H   UNL     1      49.706   3.275  18.752  0.00  0.00    +0.000 HD
ENDBRANCH  22  23
BRANCH  22  35
ATOM     34  N   UNL     1      48.184   8.697  18.392  0.00  0.00    +0.000 NA
ATOM     35  C   UNL     1      48.614   8.309  17.386  0.00  0.00    +0.000 C 
ENDBRANCH  22  35
ENDBRANCH   1  22
TORSDOF 7
ENDMDL
MODEL 5
REMARK VINA RESULT:    -6.716      3.930      9.428
REMARK INTER + INTRA:         -10.369
REMARK INTER:                  -9.214
REMARK INTRA:                  -1.155
REMARK UNBOUND:                -0.904
REMARK  Name = 
REMARK  7 active torsions:
REMARK  status: ('A' for Active; 'I' for Inactive)
REMARK    1  A    between atoms: C_2  and  C_3
REMARK    2  A    between atoms: C_3  and  N_4
REMARK    3  A    between atoms: C_3  and  C_22
REMARK    4  A    between atoms: C_5  and  C_7
REMARK    5  A    between atoms: C_10  and  C_11
REMARK    6  A    between atoms: C_11  and  N_12
REMARK    7  A    between atoms: C_13  and  C_15
REMARK                            x       y       z     vdW  Elec       q    Type
REMARK                         _______ _______ _______ _____ _____    ______ ____
ROOT
ATOM      1  N   UNL     1      46.559   5.049  14.527  0.00  0.00    +0.000 N 
ATOM      2  C   UNL     1      47.248   3.968  15.021  0.00  0.00    +0.000 C 
ATOM      3  O   UNL     1      47.432   2.938  14.385  0.00  0.00    +0.000 OA
ATOM      4  H   UNL     1      46.632   5.958  14.982  0.00  0.00    +0.000 HD
ENDROOT
BRANCH   2   5
ATOM      5  C   UNL     1      47.799   4.115  16.389  0.00  0.00    +0.000 A 
ATOM      6  C   UNL     1      47.828   3.061  17.300  0.00  0.00    +0.000 A 
ATOM      7  C   UNL     1      48.334   3.279  18.580  0.00  0.00    +0.000 A 
ATOM      8  C   UNL     1      48.814   4.545  18.916  0.00  0.00    +0.000 A 
ATOM      9  N   UNL     1      48.817   5.576  18.030  0.00  0.00    +0.000 NA
ATOM     10  C   UNL     1      48.324   5.337  16.787  0.00  0.00    +0.000 A 
BRANCH   8  11
ATOM     11  C   UNL     1      49.353   4.809  20.306  0.00  0.00    +0.000 C 
BRANCH  11  12
ATOM     12  N   UNL     1      50.717   4.361  20.480  0.00  0.00    +0.000 N 
ATOM     13  C   UNL     1      51.814   5.165  20.292  0.00  0.00    +0.000 C 
ATOM     14  O   UNL     1      51.738   6.319  19.876  0.00  0.00    +0.000 OA
ATOM     15  H   UNL     1      50.900   3.422  20.824  0.00  0.00    +0.000 HD
BRANCH  13  16
ATOM     16  C   UNL     1      53.161   4.495  20.614  0.00  0.00    +0.000 C 
ATOM     17  C   UNL     1      54.351   5.147  19.935  0.00  0.00    +0.000 C 
ATOM     18  C   UNL     1      55.415   4.067  20.027  0.00  0.00    +0.000 C 
ATOM     19  C   UNL     1      54.640   2.757  19.993  0.00  0.00    +0.000 C 
ATOM     20  N   UNL     1      53.219   3.112  20.072  0.00  0.00    +0.000 NA
ATOM     21  H   UNL     1      52.728   2.479  20.704  0.00  0.00    +0.000 HD
ENDBRANCH  13  16
ENDBRANCH  11  12
ENDBRANCH   8  11
ENDBRANCH   2   5
BRANCH   1  22
ATOM     22  C   UNL     1      46.042   5.057  13.170  0.00  0.00    +0.000 C 
BRANCH  22  23
ATOM     23  C   UNL     1      45.951   6.490  12.693  0.00  0.00    +0.000 A 
ATOM     24  C   UNL     1      44.757   7.097  12.334  0.00  0.00    +0.000 A 
ATOM     25  S   UNL     1      44.942   8.729  11.864  0.00  0.00    +0.000 S 
ATOM     26  C   UNL     1      46.625   8.678  12.119  0.00  0.00    +0.000 A 
ATOM     27  N   UNL     1      47.407   9.771  11.920  0.00  0.00    +0.000 NA
ATOM     28  C   UNL     1      48.658   9.585  12.188  0.00  0.00    +0.000 A 
ATOM     29  N   UNL     1      49.202   8.397  12.618  0.00  0.00    +0.000 N 
ATOM     30  C   UNL     1      48.463   7.243  12.746  0.00  0.00    +0.000 A 
ATOM     31  O   UNL     1      48.974   6.152  12.974  0.00  0.00    +0.000 OA
ATOM     32  C   UNL     1      47.040   7.428  12.533  0.00  0.00    +0.000 A 
ATOM     33  H   UNL     1      50.196   8.318  12.775  0.00  0.00    +0.000 HD
ENDBRANCH  22  23
BRANCH  22  35
ATOM     34  N   UNL     1      43.704   3.835  12.991  0.00  0.00    +0.000 NA
ATOM     35  C   UNL     1      44.728   4.376  13.070  0.00  0.00    +0.000 C 
ENDBRANCH  22  35
ENDBRANCH   1  22
TORSDOF 7
ENDMDL
MODEL 6
REMARK VINA RESULT:    -6.228      4.662      5.842
REMARK INTER + INTRA:          -9.680
REMARK INTER:                  -8.597
REMARK INTRA:                  -1.083
REMARK UNBOUND:                -0.904
REMARK  Name = 
REMARK  7 active torsions:
REMARK  status: ('A' for Active; 'I' for Inactive)
REMARK    1  A    between atoms: C_2  and  C_3
REMARK    2  A    between atoms: C_3  and  N_4
REMARK    3  A    between atoms: C_3  and  C_22
REMARK    4  A    between atoms: C_5  and  C_7
REMARK    5  A    between atoms: C_10  and  C_11
REMARK    6  A    between atoms: C_11  and  N_12
REMARK    7  A    between atoms: C_13  and  C_15
REMARK                            x       y       z     vdW  Elec       q    Type
REMARK                         _______ _______ _______ _____ _____    ______ ____
ROOT
ATOM      1  N   UNL     1      49.514   7.946  13.454  0.00  0.00    +0.000 N 
ATOM      2  C   UNL     1      48.242   8.137  13.937  0.00  0.00    +0.000 C 
ATOM      3  O   UNL     1      47.995   8.791  14.943  0.00  0.00    +0.000 OA
ATOM      4  H   UNL     1      49.658   7.609  12.504  0.00  0.00    +0.000 HD
ENDROOT
BRANCH   2   5
ATOM      5  C   UNL     1      47.146   7.523  13.152  0.00  0.00    +0.000 A 
ATOM      6  C   UNL     1      46.013   8.236  12.765  0.00  0.00    +0.000 A 
ATOM      7  C   UNL     1      45.007   7.586  12.053  0.00  0.00    +0.000 A 
ATOM      8  C   UNL     1      45.164   6.238  11.729  0.00  0.00    +0.000 A 
ATOM      9  N   UNL     1      46.275   5.535  12.077  0.00  0.00    +0.000 NA
ATOM     10  C   UNL     1      47.243   6.193  12.766  0.00  0.00    +0.000 A 
BRANCH   8  11
ATOM     11  C   UNL     1      44.077   5.507  10.971  0.00  0.00    +0.000 C 
BRANCH  11  12
ATOM     12  N   UNL     1      44.559   4.863   9.769  0.00  0.00    +0.000 N 
ATOM     13  C   UNL     1      44.725   3.505   9.645  0.00  0.00    +0.000 C 
ATOM     14  O   UNL     1      44.556   2.719  10.576  0.00  0.00    +0.000 OA
ATOM     15  H   UNL     1      44.729   5.416   8.934  0.00  0.00    +0.000 HD
BRANCH  13  16
ATOM     16  C   UNL     1      45.171   3.040   8.249  0.00  0.00    +0.000 C 
ATOM     17  C   UNL     1      46.138   1.871   8.269  0.00  0.00    +0.000 C 
ATOM     18  C   UNL     1      46.753   1.927   6.882  0.00  0.00    +0.000 C 
ATOM     19  C   UNL     1      46.733   3.404   6.510  0.00  0.00    +0.000 C 
ATOM     20  N   UNL     1      45.972   4.087   7.561  0.00  0.00    +0.000 NA
ATOM     21  H   UNL     1      45.345   4.781   7.154  0.00  0.00    +0.000 HD
ENDBRANCH  13  16
ENDBRANCH  11  12
ENDBRANCH   8  11
ENDBRANCH   2   5
BRANCH   1  22
ATOM     22  C   UNL     1      50.663   8.566  14.090  0.00  0.00    +0.000 C 
BRANCH  22  23
ATOM     23  C   UNL     1      51.663   8.947  13.020  0.00  0.00    +0.000 A 
ATOM     24  C   UNL     1      52.949   8.431  12.964  0.00  0.00    +0.000 A 
ATOM     25  S   UNL     1      53.853   9.011  11.635  0.00  0.00    +0.000 S 
ATOM     26  C   UNL     1      52.558   9.974  11.093  0.00  0.00    +0.000 A 
ATOM     27  N   UNL     1      52.656  10.728   9.966  0.00  0.00    +0.000 NA
ATOM     28  C   UNL     1      51.579  11.378   9.666  0.00  0.00    +0.000 A 
ATOM     29  N   UNL     1      50.417  11.357  10.403  0.00  0.00    +0.000 N 
ATOM     30  C   UNL     1      50.304  10.680  11.595  0.00  0.00    +0.000 A 
ATOM     31  O   UNL     1      49.326  10.789  12.328  0.00  0.00    +0.000 OA
ATOM     32  C   UNL     1      51.463   9.872  11.927  0.00  0.00    +0.000 A 
ATOM     33  H   UNL     1      49.626  11.918  10.123  0.00  0.00    +0.000 HD
ENDBRANCH  22  23
BRANCH  22  35
ATOM     34  N   UNL     1      51.772   6.988  15.898  0.00  0.00    +0.000 NA
ATOM     35  C   UNL     1      51.281   7.681  15.108  0.00  0.00    +0.000 C 
ENDBRANCH  22  35
ENDBRANCH   1  22
TORSDOF 7
ENDMDL
MODEL 7
REMARK VINA RESULT:    -6.213      3.257      4.683
REMARK INTER + INTRA:          -9.660
REMARK INTER:                  -8.951
REMARK INTRA:                  -0.709
REMARK UNBOUND:                -0.904
REMARK  Name = 
REMARK  7 active torsions:
REMARK  status: ('A' for Active; 'I' for Inactive)
REMARK    1  A    between atoms: C_2  and  C_3
REMARK    2  A    between atoms: C_3  and  N_4
REMARK    3  A    between atoms: C_3  and  C_22
REMARK    4  A    between atoms: C_5  and  C_7
REMARK    5  A    between atoms: C_10  and  C_11
REMARK    6  A    between atoms: C_11  and  N_12
REMARK    7  A    between atoms: C_13  and  C_15
REMARK                            x       y       z     vdW  Elec       q    Type
REMARK                         _______ _______ _______ _____ _____    ______ ____
ROOT
ATOM      1  N   UNL     1      48.832   7.825  16.193  0.00  0.00    +0.000 N 
ATOM      2  C   UNL     1      49.163   7.277  14.978  0.00  0.00    +0.000 C 
ATOM      3  O   UNL     1      50.296   6.917  14.687  0.00  0.00    +0.000 OA
ATOM      4  H   UNL     1      47.858   7.888  16.482  0.00  0.00    +0.000 HD
ENDROOT
BRANCH   2   5
ATOM      5  C   UNL     1      48.050   7.109  14.013  0.00  0.00    +0.000 A 
ATOM      6  C   UNL     1      47.670   8.115  13.128  0.00  0.00    +0.000 A 
ATOM      7  C   UNL     1      46.594   7.899  12.269  0.00  0.00    +0.000 A 
ATOM      8  C   UNL     1      45.931   6.673  12.304  0.00  0.00    +0.000 A 
ATOM      9  N   UNL     1      46.306   5.671  13.144  0.00  0.00    +0.000 NA
ATOM     10  C   UNL     1      47.360   5.905  13.968  0.00  0.00    +0.000 A 
BRANCH   8  11
ATOM     11  C   UNL     1      44.750   6.422  11.392  0.00  0.00    +0.000 C 
BRANCH  11  12
ATOM     12  N   UNL     1      45.083   5.606  10.245  0.00  0.00    +0.000 N 
ATOM     13  C   UNL     1      44.421   4.449   9.913  0.00  0.00    +0.000 C 
ATOM     14  O   UNL     1      43.537   3.957  10.611  0.00  0.00    +0.000 OA
ATOM     15  H   UNL     1      45.798   5.918   9.594  0.00  0.00    +0.000 HD
BRANCH  13  16
ATOM     16  C   UNL     1      44.895   3.793   8.605  0.00  0.00    +0.000 C 
ATOM     17  C   UNL     1      45.534   2.430   8.797  0.00  0.00    +0.000 C 
ATOM     18  C   UNL     1      46.299   2.239   7.499  0.00  0.00    +0.000 C 
ATOM     19  C   UNL     1      46.687   3.648   7.069  0.00  0.00    +0.000 C 
ATOM     20  N   UNL     1      46.003   4.566   7.985  0.00  0.00    +0.000 NA
ATOM     21  H   UNL     1      45.618   5.360   7.473  0.00  0.00    +0.000 HD
ENDBRANCH  13  16
ENDBRANCH  11  12
ENDBRANCH   8  11
ENDBRANCH   2   5
BRANCH   1  22
ATOM     22  C   UNL     1      49.819   7.965  17.250  0.00  0.00    +0.000 C 
BRANCH  22  23
ATOM     23  C   UNL     1      49.110   7.916  18.586  0.00  0.00    +0.000 A 
ATOM     24  C   UNL     1      49.299   6.898  19.509  0.00  0.00    +0.000 A 
ATOM     25  S   UNL     1      48.397   7.110  20.944  0.00  0.00    +0.000 S 
ATOM     26  C   UNL     1      47.720   8.567  20.378  0.00  0.00    +0.000 A 
ATOM     27  N   UNL     1      46.859   9.293  21.139  0.00  0.00    +0.000 NA
ATOM     28  C   UNL     1      46.457  10.390  20.586  0.00  0.00    +0.000 A 
ATOM     29  N   UNL     1      46.823  10.819  19.331  0.00  0.00    +0.000 N 
ATOM     30  C   UNL     1      47.620  10.072  18.493  0.00  0.00    +0.000 A 
ATOM     31  O   UNL     1      47.816  10.377  17.321  0.00  0.00    +0.000 OA
ATOM     32  C   UNL     1      48.158   8.872  19.105  0.00  0.00    +0.000 A 
ATOM     33  H   UNL     1      46.441  11.672  18.952  0.00  0.00    +0.000 HD
ENDBRANCH  22  23
BRANCH  22  35
ATOM     34  N   UNL     1      51.225  10.191  17.008  0.00  0.00    +0.000 NA
ATOM     35  C   UNL     1      50.611   9.212  17.111  0.00  0.00    +0.000 C 
ENDBRANCH  22  35
ENDBRANCH   1  22
TORSDOF 7
ENDMDL
MODEL 8
REMARK VINA RESULT:    -6.115      5.289      7.500
REMARK INTER + INTRA:          -9.522
REMARK INTER:                  -8.424
REMARK INTRA:                  -1.098
REMARK UNBOUND:                -0.904
REMARK  Name = 
REMARK  7 active torsions:
REMARK  status: ('A' for Active; 'I' for Inactive)
REMARK    1  A    between atoms: C_2  and  C_3
REMARK    2  A    between atoms: C_3  and  N_4
REMARK    3  A    between atoms: C_3  and  C_22
REMARK    4  A    between atoms: C_5  and  C_7
REMARK    5  A    between atoms: C_10  and  C_11
REMARK    6  A    between atoms: C_11  and  N_12
REMARK    7  A    between atoms: C_13  and  C_15
REMARK                            x       y       z     vdW  Elec       q    Type
REMARK                         _______ _______ _______ _____ _____    ______ ____
ROOT
ATOM      1  N   UNL     1      47.301   8.379  11.979  0.00  0.00    +0.000 N 
ATOM      2  C   UNL     1      48.407   8.971  12.539  0.00  0.00    +0.000 C 
ATOM      3  O   UNL     1      48.397   9.514  13.636  0.00  0.00    +0.000 OA
ATOM      4  H   UNL     1      47.401   7.740  11.191  0.00  0.00    +0.000 HD
ENDROOT
BRANCH   2   5
ATOM      5  C   UNL     1      49.657   8.899  11.746  0.00  0.00    +0.000 A 
ATOM      6  C   UNL     1      50.354  10.037  11.346  0.00  0.00    +0.000 A 
ATOM      7  C   UNL     1      51.507   9.896  10.576  0.00  0.00    +0.000 A 
ATOM      8  C   UNL     1      51.947   8.616  10.236  0.00  0.00    +0.000 A 
ATOM      9  N   UNL     1      51.292   7.495  10.641  0.00  0.00    +0.000 NA
ATOM     10  C   UNL     1      50.173   7.659  11.394  0.00  0.00    +0.000 A 
BRANCH   8  11
ATOM     11  C   UNL     1      53.187   8.439   9.387  0.00  0.00    +0.000 C 
BRANCH  11  12
ATOM     12  N   UNL     1      53.476   7.055   9.088  0.00  0.00    +0.000 N 
ATOM     13  C   UNL     1      53.132   6.440   7.908  0.00  0.00    +0.000 C 
ATOM     14  O   UNL     1      52.470   6.992   7.032  0.00  0.00    +0.000 OA
ATOM     15  H   UNL     1      54.023   6.500   9.741  0.00  0.00    +0.000 HD
BRANCH  13  16
ATOM     16  C   UNL     1      53.615   4.986   7.779  0.00  0.00    +0.000 C 
ATOM     17  C   UNL     1      55.123   4.843   7.696  0.00  0.00    +0.000 C 
ATOM     18  C   UNL     1      55.291   3.447   7.122  0.00  0.00    +0.000 C 
ATOM     19  C   UNL     1      54.060   3.237   6.251  0.00  0.00    +0.000 C 
ATOM     20  N   UNL     1      53.179   4.384   6.492  0.00  0.00    +0.000 NA
ATOM     21  H   UNL     1      52.209   4.078   6.571  0.00  0.00    +0.000 HD
ENDBRANCH  13  16
ENDBRANCH  11  12
ENDBRANCH   8  11
ENDBRANCH   2   5
BRANCH   1  22
ATOM     22  C   UNL     1      46.038   8.312  12.693  0.00  0.00    +0.000 C 
BRANCH  22  23
ATOM     23  C   UNL     1      45.350   7.010  12.345  0.00  0.00    +0.000 A 
ATOM     24  C   UNL     1      44.223   6.938  11.541  0.00  0.00    +0.000 A 
ATOM     25  S   UNL     1      43.674   5.340  11.287  0.00  0.00    +0.000 S 
ATOM     26  C   UNL     1      44.922   4.692  12.247  0.00  0.00    +0.000 A 
ATOM     27  N   UNL     1      45.051   3.352  12.434  0.00  0.00    +0.000 NA
ATOM     28  C   UNL     1      46.066   3.012  13.160  0.00  0.00    +0.000 A 
ATOM     29  N   UNL     1      46.953   3.893  13.733  0.00  0.00    +0.000 N 
ATOM     30  C   UNL     1      46.807   5.259  13.644  0.00  0.00    +0.000 A 
ATOM     31  O   UNL     1      47.503   6.041  14.284  0.00  0.00    +0.000 OA
ATOM     32  C   UNL     1      45.728   5.681  12.772  0.00  0.00    +0.000 A 
ATOM     33  H   UNL     1      47.703   3.554  14.316  0.00  0.00    +0.000 HD
ENDBRANCH  22  23
BRANCH  22  35
ATOM     34  N   UNL     1      44.476  10.377  12.159  0.00  0.00    +0.000 NA
ATOM     35  C   UNL     1      45.166   9.474  12.393  0.00  0.00    +0.000 C 
ENDBRANCH  22  35
ENDBRANCH   1  22
TORSDOF 7
ENDMDL
MODEL 9
REMARK VINA RESULT:    -5.985      5.433      7.125
REMARK INTER + INTRA:          -9.339
REMARK INTER:                  -8.188
REMARK INTRA:                  -1.151
REMARK UNBOUND:                -0.904
REMARK  Name = 
REMARK  7 active torsions:
REMARK  status: ('A' for Active; 'I' for Inactive)
REMARK    1  A    between atoms: C_2  and  C_3
REMARK    2  A    between atoms: C_3  and  N_4
REMARK    3  A    between atoms: C_3  and  C_22
REMARK    4  A    between atoms: C_5  and  C_7
REMARK    5  A    between atoms: C_10  and  C_11
REMARK    6  A    between atoms: C_11  and  N_12
REMARK    7  A    between atoms: C_13  and  C_15
REMARK                            x       y       z     vdW  Elec       q    Type
REMARK                         _______ _______ _______ _____ _____    ______ ____
ROOT
ATOM      1  N   UNL     1      52.113   7.908  11.785  0.00  0.00    +0.000 N 
ATOM      2  C   UNL     1      51.246   8.973  11.803  0.00  0.00    +0.000 C 
ATOM      3  O   UNL     1      51.608  10.139  11.713  0.00  0.00    +0.000 OA
ATOM      4  H   UNL     1      51.767   6.964  11.622  0.00  0.00    +0.000 HD
ENDROOT
BRANCH   2   5
ATOM      5  C   UNL     1      49.806   8.640  11.914  0.00  0.00    +0.000 A 
ATOM      6  C   UNL     1      48.805   9.602  11.799  0.00  0.00    +0.000 A 
ATOM      7  C   UNL     1      47.472   9.223  11.944  0.00  0.00    +0.000 A 
ATOM      8  C   UNL     1      47.168   7.882  12.185  0.00  0.00    +0.000 A 
ATOM      9  N   UNL     1      48.132   6.927  12.273  0.00  0.00    +0.000 NA
ATOM     10  C   UNL     1      49.423   7.322  12.124  0.00  0.00    +0.000 A 
BRANCH   8  11
ATOM     11  C   UNL     1      45.729   7.450  12.362  0.00  0.00    +0.000 C 
BRANCH  11  12
ATOM     12  N   UNL     1      45.264   6.581  11.304  0.00  0.00    +0.000 N 
ATOM     13  C   UNL     1      45.163   5.216  11.426  0.00  0.00    +0.000 C 
ATOM     14  O   UNL     1      45.539   4.601  12.421  0.00  0.00    +0.000 OA
ATOM     15  H   UNL     1      44.924   6.982  10.434  0.00  0.00    +0.000 HD
BRANCH  13  16
ATOM     16  C   UNL     1      44.567   4.507  10.198  0.00  0.00    +0.000 C 
ATOM     17  C   UNL     1      44.749   3.001  10.209  0.00  0.00    +0.000 C 
ATOM     18  C   UNL     1      44.519   2.630   8.754  0.00  0.00    +0.000 C 
ATOM     19  C   UNL     1      44.989   3.846   7.967  0.00  0.00    +0.000 C 
ATOM     20  N   UNL     1      45.280   4.893   8.952  0.00  0.00    +0.000 NA
ATOM     21  H   UNL     1      44.933   5.795   8.627  0.00  0.00    +0.000 HD
ENDBRANCH  13  16
ENDBRANCH  11  12
ENDBRANCH   8  11
ENDBRANCH   2   5
BRANCH   1  22
ATOM     22  C   UNL     1      53.541   8.102  11.599  0.00  0.00    +0.000 C 
BRANCH  22  23
ATOM     23  C   UNL     1      54.096   6.921  10.833  0.00  0.00    +0.000 A 
ATOM     24  C   UNL     1      54.993   6.015  11.378  0.00  0.00    +0.000 A 
ATOM     25  S   UNL     1      55.430   4.763  10.301  0.00  0.00    +0.000 S 
ATOM     26  C   UNL     1      54.438   5.392   9.068  0.00  0.00    +0.000 A 
ATOM     27  N   UNL     1      54.329   4.777   7.861  0.00  0.00    +0.000 NA
ATOM     28  C   UNL     1      53.514   5.356   7.041  0.00  0.00    +0.000 A 
ATOM     29  N   UNL     1      52.811   6.507   7.313  0.00  0.00    +0.000 N 
ATOM     30  C   UNL     1      52.960   7.210   8.486  0.00  0.00    +0.000 A 
ATOM     31  O   UNL     1      52.457   8.315   8.664  0.00  0.00    +0.000 OA
ATOM     32  C   UNL     1      53.804   6.552   9.465  0.00  0.00    +0.000 A 
ATOM     33  H   UNL     1      52.217   6.920   6.609  0.00  0.00    +0.000 HD
ENDBRANCH  22  23
BRANCH  22  35
ATOM     34  N   UNL     1      54.815   8.423  13.893  0.00  0.00    +0.000 NA
ATOM     35  C   UNL     1      54.251   8.284  12.888  0.00  0.00    +0.000 C 
ENDBRANCH  22  35
ENDBRANCH   1  22
TORSDOF 7
ENDMDL
