MODEL 1
REMARK VINA RESULT:    -7.581      0.000      0.000
REMARK INTER + INTRA:         -11.296
REMARK INTER:                 -10.241
REMARK INTRA:                  -1.055
REMARK UNBOUND:                -1.055
REMARK  Name = 
REMARK  7 active torsions:
REMARK  status: ('A' for Active; 'I' for Inactive)
REMARK    1  A    between atoms: C_1  and  C_2
REMARK    2  A    between atoms: C_2  and  N_3
REMARK    3  A    between atoms: C_2  and  C_12
REMARK    4  A    between atoms: C_4  and  C_6
REMARK    5  A    between atoms: C_15  and  C_16
REMARK    6  A    between atoms: C_16  and  N_17
REMARK    7  A    between atoms: C_18  and  C_20
REMARK                            x       y       z     vdW  Elec       q    Type
REMARK                         _______ _______ _______ _____ _____    ______ ____
ROOT
ATOM      1  C   UNL     1      47.668   5.891  14.251  0.00  0.00    +0.000 A 
ATOM      2  C   UNL     1      47.055   4.630  14.198  0.00  0.00    +0.000 A 
ATOM      3  C   UNL     1      47.122   3.758  15.290  0.00  0.00    +0.000 A 
ATOM      4  C   UNL     1      47.798   4.134  16.457  0.00  0.00    +0.000 A 
ATOM      5  C   UNL     1      48.407   5.394  16.511  0.00  0.00    +0.000 A 
ATOM      6  C   UNL     1      48.335   6.266  15.427  0.00  0.00    +0.000 A 
ENDROOT
BRANCH   1   8
ATOM      7  C   UNL     1      49.029   7.128  12.527  0.00  0.00    +0.000 C 
ATOM      8  C   UNL     1      47.625   6.811  13.049  0.00  0.00    +0.000 C 
BRANCH   8   9
ATOM      9  N   UNL     1      46.790   6.235  12.003  0.00  0.00    +0.000 N 
ATOM     10  C   UNL     1      45.477   6.624  11.854  0.00  0.00    +0.000 C 
ATOM     11  O   UNL     1      44.957   7.446  12.610  0.00  0.00    +0.000 OA
ATOM     12  H   UNL     1      47.141   5.453  11.467  0.00  0.00    +0.000 HD
BRANCH  10  13
ATOM     13  C   UNL     1      44.711   5.925  10.702  0.00  0.00    +0.000 C 
ATOM     14  C   UNL     1      45.168   4.471  10.524  0.00  0.00    +0.000 C 
ATOM     15  C   UNL     1      44.720   3.587  11.687  0.00  0.00    +0.000 C 
ATOM     16  C   UNL     1      43.221   3.720  11.916  0.00  0.00    +0.000 C 
ATOM     17  C   UNL     1      42.783   5.180  12.016  0.00  0.00    +0.000 C 
ATOM     18  N   UNL     1      43.241   5.989  10.883  0.00  0.00    +0.000 NA
ATOM     19  H   UNL     1      42.942   6.951  11.015  0.00  0.00    +0.000 HD
ENDBRANCH  10  13
ENDBRANCH   8   9
ENDBRANCH   1   8
BRANCH   4  20
ATOM     20  C   UNL     1      47.938   3.188  17.620  0.00  0.00    +0.000 C 
BRANCH  20  21
ATOM     21  N   UNL     1      49.330   2.958  17.921  0.00  0.00    +0.000 N 
ATOM     22  C   UNL     1      50.117   2.174  17.119  0.00  0.00    +0.000 C 
ATOM     23  O   UNL     1      49.686   1.646  16.097  0.00  0.00    +0.000 OA
ATOM     24  H   UNL     1      49.637   3.169  18.865  0.00  0.00    +0.000 HD
BRANCH  22  25
ATOM     25  C   UNL     1      51.527   2.056  17.511  0.00  0.00    +0.000 A 
ATOM     26  C   UNL     1      52.086   0.799  17.694  0.00  0.00    +0.000 A 
ATOM     27  S   UNL     1      53.744   0.840  18.091  0.00  0.00    +0.000 S 
ATOM     28  C   UNL     1      53.760   2.541  18.086  0.00  0.00    +0.000 A 
ATOM     29  N   UNL     1      54.894   3.232  18.382  0.00  0.00    +0.000 NA
ATOM     30  C   UNL     1      54.757   4.515  18.367  0.00  0.00    +0.000 A 
ATOM     31  N   UNL     1      53.591   5.173  18.077  0.00  0.00    +0.000 N 
ATOM     32  C   UNL     1      52.430   4.517  17.743  0.00  0.00    +0.000 A 
ATOM     33  O   UNL     1      51.416   5.140  17.440  0.00  0.00    +0.000 OA
ATOM     34  C   UNL     1      52.524   3.071  17.760  0.00  0.00    +0.000 A 
ATOM     35  H   UNL     1      53.554   6.182  18.074  0.00  0.00    +0.000 HD
ENDBRANCH  22  25
ENDBRANCH  20  21
ENDBRANCH   4  20
TORSDOF 6
ENDMDL
MODEL 2
REMARK VINA RESULT:    -7.412      3.360      8.829
REMARK INTER + INTRA:         -11.068
REMARK INTER:                  -9.927
REMARK INTRA:                  -1.141
REMARK UNBOUND:                -1.055
REMARK  Name = 
REMARK  7 active torsions:
REMARK  status: ('A' for Active; 'I' for Inactive)
REMARK    1  A    between atoms: C_1  and  C_2
REMARK    2  A    between atoms: C_2  and  N_3
REMARK    3  A    between atoms: C_2  and  C_12
REMARK    4  A    between atoms: C_4  and  C_6
REMARK    5  A    between atoms: C_15  and  C_16
REMARK    6  A    between atoms: C_16  and  N_17
REMARK    7  A    between atoms: C_18  and  C_20
REMARK                            x       y       z     vdW  Elec       q    Type
REMARK                         _______ _______ _______ _____ _____    ______ ____
ROOT
ATOM      1  C   UNL     1      49.604   7.967  15.570  0.00  0.00    +0.000 A 
ATOM      2  C   UNL     1      50.139   7.384  14.410  0.00  0.00    +0.000 A 
ATOM      3  C   UNL     1      49.425   7.404  13.208  0.00  0.00    +0.000 A 
ATOM      4  C   UNL     1      48.165   8.012  13.141  0.00  0.00    +0.000 A 
ATOM      5  C   UNL     1      47.633   8.595  14.297  0.00  0.00    +0.000 A 
ATOM      6  C   UNL     1      48.346   8.584  15.493  0.00  0.00    +0.000 A 
ENDROOT
BRANCH   1   8
ATOM      7  C   UNL     1      50.473   9.282  17.536  0.00  0.00    +0.000 C 
ATOM      8  C   UNL     1      50.367   7.905  16.877  0.00  0.00    +0.000 C 
BRANCH   8   9
ATOM      9  N   UNL     1      49.752   6.935  17.773  0.00  0.00    +0.000 N 
ATOM     10  C   UNL     1      50.128   5.610  17.746  0.00  0.00    +0.000 C 
ATOM     11  O   UNL     1      50.972   5.196  16.950  0.00  0.00    +0.000 OA
ATOM     12  H   UNL     1      48.955   7.214  18.329  0.00  0.00    +0.000 HD
BRANCH  10  13
ATOM     13  C   UNL     1      49.387   4.696  18.754  0.00  0.00    +0.000 C 
ATOM     14  C   UNL     1      47.879   4.981  18.769  0.00  0.00    +0.000 C 
ATOM     15  C   UNL     1      47.200   4.524  17.479  0.00  0.00    +0.000 C 
ATOM     16  C   UNL     1      47.531   3.067  17.185  0.00  0.00    +0.000 C 
ATOM     17  C   UNL     1      49.034   2.796  17.249  0.00  0.00    +0.000 C 
ATOM     18  N   UNL     1      49.641   3.257  18.500  0.00  0.00    +0.000 NA
ATOM     19  H   UNL     1      50.640   3.073  18.476  0.00  0.00    +0.000 HD
ENDBRANCH  10  13
ENDBRANCH   8   9
ENDBRANCH   1   8
BRANCH   4  20
ATOM     20  C   UNL     1      47.351   7.988  11.875  0.00  0.00    +0.000 C 
BRANCH  20  21
ATOM     21  N   UNL     1      46.705   6.709  11.712  0.00  0.00    +0.000 N 
ATOM     22  C   UNL     1      45.344   6.603  11.598  0.00  0.00    +0.000 C 
ATOM     23  O   UNL     1      44.610   7.587  11.609  0.00  0.00    +0.000 OA
ATOM     24  H   UNL     1      47.250   5.885  11.947  0.00  0.00    +0.000 HD
BRANCH  22  25
ATOM     25  C   UNL     1      44.814   5.249  11.392  0.00  0.00    +0.000 A 
ATOM     26  C   UNL     1      44.088   4.635  12.403  0.00  0.00    +0.000 A 
ATOM     27  S   UNL     1      43.498   3.091  11.979  0.00  0.00    +0.000 S 
ATOM     28  C   UNL     1      44.241   3.167  10.450  0.00  0.00    +0.000 A 
ATOM     29  N   UNL     1      44.150   2.129   9.576  0.00  0.00    +0.000 NA
ATOM     30  C   UNL     1      44.782   2.309   8.465  0.00  0.00    +0.000 A 
ATOM     31  N   UNL     1      45.494   3.436   8.145  0.00  0.00    +0.000 N 
ATOM     32  C   UNL     1      45.587   4.520   8.985  0.00  0.00    +0.000 A 
ATOM     33  O   UNL     1      46.192   5.533   8.644  0.00  0.00    +0.000 OA
ATOM     34  C   UNL     1      44.907   4.363  10.255  0.00  0.00    +0.000 A 
ATOM     35  H   UNL     1      45.959   3.516   7.253  0.00  0.00    +0.000 HD
ENDBRANCH  22  25
ENDBRANCH  20  21
ENDBRANCH   4  20
TORSDOF 6
ENDMDL
MODEL 3
REMARK VINA RESULT:    -7.199      3.346      8.634
REMARK INTER + INTRA:         -10.779
REMARK INTER:                  -9.619
REMARK INTRA:                  -1.160
REMARK UNBOUND:                -1.055
REMARK  Name = 
REMARK  7 active torsions:
REMARK  status: ('A' for Active; 'I' for Inactive)
REMARK    1  A    between atoms: C_1  and  C_2
REMARK    2  A    between atoms: C_2  and  N_3
REMARK    3  A    between atoms: C_2  and  C_12
REMARK    4  A    between atoms: C_4  and  C_6
REMARK    5  A    between atoms: C_15  and  C_16
REMARK    6  A    between atoms: C_16  and  N_17
REMARK    7  A    between atoms: C_18  and  C_20
REMARK                            x       y       z     vdW  Elec       q    Type
REMARK                         _______ _______ _______ _____ _____    ______ ____
ROOT
ATOM      1  C   UNL     1      50.389   7.331  15.479  0.00  0.00    +0.000 A 
ATOM      2  C   UNL     1      49.062   6.900  15.322  0.00  0.00    +0.000 A 
ATOM      3  C   UNL     1      48.365   7.158  14.137  0.00  0.00    +0.000 A 
ATOM      4  C   UNL     1      48.983   7.845  13.086  0.00  0.00    +0.000 A 
ATOM      5  C   UNL     1      50.308   8.272  13.241  0.00  0.00    +0.000 A 
ATOM      6  C   UNL     1      51.006   8.009  14.417  0.00  0.00    +0.000 A 
ENDROOT
BRANCH   1   8
ATOM      7  C   UNL     1      51.591   8.390  17.424  0.00  0.00    +0.000 C 
ATOM      8  C   UNL     1      51.123   7.083  16.780  0.00  0.00    +0.000 C 
BRANCH   8   9
ATOM      9  N   UNL     1      50.285   6.315  17.692  0.00  0.00    +0.000 N 
ATOM     10  C   UNL     1      50.427   4.949  17.801  0.00  0.00    +0.000 C 
ATOM     11  O   UNL     1      51.242   4.329  17.117  0.00  0.00    +0.000 OA
ATOM     12  H   UNL     1      49.510   6.772  18.153  0.00  0.00    +0.000 HD
BRANCH  10  13
ATOM     13  C   UNL     1      49.467   4.266  18.808  0.00  0.00    +0.000 C 
ATOM     14  C   UNL     1      48.116   4.990  18.877  0.00  0.00    +0.000 C 
ATOM     15  C   UNL     1      47.303   4.802  17.597  0.00  0.00    +0.000 C 
ATOM     16  C   UNL     1      47.173   3.324  17.257  0.00  0.00    +0.000 C 
ATOM     17  C   UNL     1      48.525   2.612  17.267  0.00  0.00    +0.000 C 
ATOM     18  N   UNL     1      49.270   2.827  18.510  0.00  0.00    +0.000 NA
ATOM     19  H   UNL     1      50.166   2.352  18.451  0.00  0.00    +0.000 HD
ENDBRANCH  10  13
ENDBRANCH   8   9
ENDBRANCH   1   8
BRANCH   4  20
ATOM     20  C   UNL     1      48.231   8.190  11.827  0.00  0.00    +0.000 C 
BRANCH  20  21
ATOM     21  N   UNL     1      47.542   7.032  11.315  0.00  0.00    +0.000 N 
ATOM     22  C   UNL     1      46.178   6.923  11.379  0.00  0.00    +0.000 C 
ATOM     23  O   UNL     1      45.474   7.811  11.854  0.00  0.00    +0.000 OA
ATOM     24  H   UNL     1      48.099   6.199  11.153  0.00  0.00    +0.000 HD
BRANCH  22  25
ATOM     25  C   UNL     1      45.595   5.715  10.782  0.00  0.00    +0.000 A 
ATOM     26  C   UNL     1      45.771   5.464   9.429  0.00  0.00    +0.000 A 
ATOM     27  S   UNL     1      45.079   3.993   8.911  0.00  0.00    +0.000 S 
ATOM     28  C   UNL     1      44.471   3.668  10.467  0.00  0.00    +0.000 A 
ATOM     29  N   UNL     1      43.738   2.549  10.712  0.00  0.00    +0.000 NA
ATOM     30  C   UNL     1      43.318   2.441  11.928  0.00  0.00    +0.000 A 
ATOM     31  N   UNL     1      43.569   3.348  12.924  0.00  0.00    +0.000 N 
ATOM     32  C   UNL     1      44.329   4.476  12.729  0.00  0.00    +0.000 A 
ATOM     33  O   UNL     1      44.575   5.241  13.657  0.00  0.00    +0.000 OA
ATOM     34  C   UNL     1      44.814   4.654  11.374  0.00  0.00    +0.000 A 
ATOM     35  H   UNL     1      43.217   3.199  13.858  0.00  0.00    +0.000 HD
ENDBRANCH  22  25
ENDBRANCH  20  21
ENDBRANCH   4  20
TORSDOF 6
ENDMDL
MODEL 4
REMARK VINA RESULT:    -6.941      1.411      2.228
REMARK INTER + INTRA:         -10.431
REMARK INTER:                  -9.703
REMARK INTRA:                  -0.728
REMARK UNBOUND:                -1.055
REMARK  Name = 
REMARK  7 active torsions:
REMARK  status: ('A' for Active; 'I' for Inactive)
REMARK    1  A    between atoms: C_1  and  C_2
REMARK    2  A    between atoms: C_2  and  N_3
REMARK    3  A    between atoms: C_2  and  C_12
REMARK    4  A    between atoms: C_4  and  C_6
REMARK    5  A    between atoms: C_15  and  C_16
REMARK    6  A    between atoms: C_16  and  N_17
REMARK    7  A    between atoms: C_18  and  C_20
REMARK                            x       y       z     vdW  Elec       q    Type
REMARK                         _______ _______ _______ _____ _____    ______ ____
ROOT
ATOM      1  C   UNL     1      47.737   6.490  13.807  0.00  0.00    +0.000 A 
ATOM      2  C   UNL     1      48.568   7.141  14.732  0.00  0.00    +0.000 A 
ATOM      3  C   UNL     1      48.806   6.584  15.992  0.00  0.00    +0.000 A 
ATOM      4  C   UNL     1      48.223   5.361  16.349  0.00  0.00    +0.000 A 
ATOM      5  C   UNL     1      47.397   4.710  15.424  0.00  0.00    +0.000 A 
ATOM      6  C   UNL     1      47.165   5.260  14.166  0.00  0.00    +0.000 A 
ENDROOT
BRANCH   1   8
ATOM      7  C   UNL     1      48.740   7.559  11.757  0.00  0.00    +0.000 C 
ATOM      8  C   UNL     1      47.453   7.122  12.460  0.00  0.00    +0.000 C 
BRANCH   8   9
ATOM      9  N   UNL     1      46.681   6.208  11.628  0.00  0.00    +0.000 N 
ATOM     10  C   UNL     1      45.377   6.493  11.290  0.00  0.00    +0.000 C 
ATOM     11  O   UNL     1      44.811   7.509  11.697  0.00  0.00    +0.000 OA
ATOM     12  H   UNL     1      47.066   5.300  11.405  0.00  0.00    +0.000 HD
BRANCH  10  13
ATOM     13  C   UNL     1      44.681   5.429  10.403  0.00  0.00    +0.000 C 
ATOM     14  C   UNL     1      45.211   4.019  10.694  0.00  0.00    +0.000 C 
ATOM     15  C   UNL     1      44.771   3.517  12.069  0.00  0.00    +0.000 C 
ATOM     16  C   UNL     1      43.261   3.632  12.224  0.00  0.00    +0.000 C 
ATOM     17  C   UNL     1      42.751   5.026  11.857  0.00  0.00    +0.000 C 
ATOM     18  N   UNL     1      43.204   5.466  10.535  0.00  0.00    +0.000 NA
ATOM     19  H   UNL     1      42.856   6.403  10.355  0.00  0.00    +0.000 HD
ENDBRANCH  10  13
ENDBRANCH   8   9
ENDBRANCH   1   8
BRANCH   4  20
ATOM     20  C   UNL     1      48.413   4.775  17.723  0.00  0.00    +0.000 C 
BRANCH  20  21
ATOM     21  N   UNL     1      49.812   4.543  17.985  0.00  0.00    +0.000 N 
ATOM     22  C   UNL     1      50.475   3.474  17.442  0.00  0.00    +0.000 C 
ATOM     23  O   UNL     1      49.922   2.675  16.693  0.00  0.00    +0.000 OA
ATOM     24  H   UNL     1      50.218   5.029  18.778  0.00  0.00    +0.000 HD
BRANCH  22  25
ATOM     25  C   UNL     1      51.908   3.376  17.751  0.00  0.00    +0.000 A 
ATOM     26  C   UNL     1      52.673   4.531  17.833  0.00  0.00    +0.000 A 
ATOM     27  S   UNL     1      54.301   4.242  18.254  0.00  0.00    +0.000 S 
ATOM     28  C   UNL     1      54.052   2.559  18.285  0.00  0.00    +0.000 A 
ATOM     29  N   UNL     1      55.075   1.705  18.559  0.00  0.00    +0.000 NA
ATOM     30  C   UNL     1      54.752   0.456  18.524  0.00  0.00    +0.000 A 
ATOM     31  N   UNL     1      53.497  -0.018  18.246  0.00  0.00    +0.000 N 
ATOM     32  C   UNL     1      52.428   0.808  17.993  0.00  0.00    +0.000 A 
ATOM     33  O   UNL     1      51.306   0.348  17.797  0.00  0.00    +0.000 OA
ATOM     34  C   UNL     1      52.740   2.224  18.006  0.00  0.00    +0.000 A 
ATOM     35  H   UNL     1      53.309  -1.010  18.243  0.00  0.00    +0.000 HD
ENDBRANCH  22  25
ENDBRANCH  20  21
ENDBRANCH   4  20
TORSDOF 6
ENDMDL
MODEL 5
REMARK VINA RESULT:    -6.938      3.113      8.969
REMARK INTER + INTRA:         -10.427
REMARK INTER:                  -9.263
REMARK INTRA:                  -1.164
REMARK UNBOUND:                -1.055
REMARK  Name = 
REMARK  7 active torsions:
REMARK  status: ('A' for Active; 'I' for Inactive)
REMARK    1  A    between atoms: C_1  and  C_2
REMARK    2  A    between atoms: C_2  and  N_3
REMARK    3  A    between atoms: C_2  and  C_12
REMARK    4  A    between atoms: C_4  and  C_6
REMARK    5  A    between atoms: C_15  and  C_16
REMARK    6  A    between atoms: C_16  and  N_17
REMARK    7  A    between atoms: C_18  and  C_20
REMARK                            x       y       z     vdW  Elec       q    Type
REMARK                         _______ _______ _______ _____ _____    ______ ____
ROOT
ATOM      1  C   UNL     1      51.356   3.735  17.810  0.00  0.00    +0.000 A 
ATOM      2  C   UNL     1      50.492   4.834  17.935  0.00  0.00    +0.000 A 
ATOM      3  C   UNL     1      49.130   4.705  17.647  0.00  0.00    +0.000 A 
ATOM      4  C   UNL     1      48.605   3.474  17.234  0.00  0.00    +0.000 A 
ATOM      5  C   UNL     1      49.467   2.378  17.112  0.00  0.00    +0.000 A 
ATOM      6  C   UNL     1      50.822   2.501  17.406  0.00  0.00    +0.000 A 
ENDROOT
BRANCH   1   8
ATOM      7  C   UNL     1      53.600   2.588  17.848  0.00  0.00    +0.000 C 
ATOM      8  C   UNL     1      52.837   3.893  18.085  0.00  0.00    +0.000 C 
BRANCH   8   9
ATOM      9  N   UNL     1      53.385   4.979  17.282  0.00  0.00    +0.000 N 
ATOM     10  C   UNL     1      53.851   6.131  17.877  0.00  0.00    +0.000 C 
ATOM     11  O   UNL     1      53.797   6.295  19.097  0.00  0.00    +0.000 OA
ATOM     12  H   UNL     1      53.305   4.937  16.275  0.00  0.00    +0.000 HD
BRANCH  10  13
ATOM     13  C   UNL     1      54.403   7.199  16.899  0.00  0.00    +0.000 C 
ATOM     14  C   UNL     1      53.750   7.084  15.514  0.00  0.00    +0.000 C 
ATOM     15  C   UNL     1      52.283   7.508  15.538  0.00  0.00    +0.000 C 
ATOM     16  C   UNL     1      52.135   8.892  16.156  0.00  0.00    +0.000 C 
ATOM     17  C   UNL     1      52.855   9.000  17.500  0.00  0.00    +0.000 C 
ATOM     18  N   UNL     1      54.255   8.576  17.428  0.00  0.00    +0.000 NA
ATOM     19  H   UNL     1      54.675   8.647  18.351  0.00  0.00    +0.000 HD
ENDBRANCH  10  13
ENDBRANCH   8   9
ENDBRANCH   1   8
BRANCH   4  20
ATOM     20  C   UNL     1      47.154   3.329  16.857  0.00  0.00    +0.000 C 
BRANCH  20  21
ATOM     21  N   UNL     1      46.777   4.339  15.899  0.00  0.00    +0.000 N 
ATOM     22  C   UNL     1      46.857   4.114  14.551  0.00  0.00    +0.000 C 
ATOM     23  O   UNL     1      47.232   3.040  14.089  0.00  0.00    +0.000 OA
ATOM     24  H   UNL     1      46.706   5.293  16.240  0.00  0.00    +0.000 HD
BRANCH  22  25
ATOM     25  C   UNL     1      46.400   5.207  13.682  0.00  0.00    +0.000 A 
ATOM     26  C   UNL     1      47.224   6.303  13.467  0.00  0.00    +0.000 A 
ATOM     27  S   UNL     1      46.566   7.451  12.391  0.00  0.00    +0.000 S 
ATOM     28  C   UNL     1      45.133   6.550  12.219  0.00  0.00    +0.000 A 
ATOM     29  N   UNL     1      44.114   6.998  11.437  0.00  0.00    +0.000 NA
ATOM     30  C   UNL     1      43.078   6.229  11.417  0.00  0.00    +0.000 A 
ATOM     31  N   UNL     1      42.968   5.049  12.104  0.00  0.00    +0.000 N 
ATOM     32  C   UNL     1      43.983   4.543  12.881  0.00  0.00    +0.000 A 
ATOM     33  O   UNL     1      43.868   3.457  13.443  0.00  0.00    +0.000 OA
ATOM     34  C   UNL     1      45.167   5.377  12.950  0.00  0.00    +0.000 A 
ATOM     35  H   UNL     1      42.130   4.489  12.039  0.00  0.00    +0.000 HD
ENDBRANCH  22  25
ENDBRANCH  20  21
ENDBRANCH   4  20
TORSDOF 6
ENDMDL
MODEL 6
REMARK VINA RESULT:    -6.607      2.845      4.833
REMARK INTER + INTRA:          -9.980
REMARK INTER:                  -9.166
REMARK INTRA:                  -0.814
REMARK UNBOUND:                -1.055
REMARK  Name = 
REMARK  7 active torsions:
REMARK  status: ('A' for Active; 'I' for Inactive)
REMARK    1  A    between atoms: C_1  and  C_2
REMARK    2  A    between atoms: C_2  and  N_3
REMARK    3  A    between atoms: C_2  and  C_12
REMARK    4  A    between atoms: C_4  and  C_6
REMARK    5  A    between atoms: C_15  and  C_16
REMARK    6  A    between atoms: C_16  and  N_17
REMARK    7  A    between atoms: C_18  and  C_20
REMARK                            x       y       z     vdW  Elec       q    Type
REMARK                         _______ _______ _______ _____ _____    ______ ____
ROOT
ATOM      1  C   UNL     1      45.396   5.355  12.378  0.00  0.00    +0.000 A 
ATOM      2  C   UNL     1      45.583   6.422  11.486  0.00  0.00    +0.000 A 
ATOM      3  C   UNL     1      46.737   7.209  11.548  0.00  0.00    +0.000 A 
ATOM      4  C   UNL     1      47.729   6.939  12.499  0.00  0.00    +0.000 A 
ATOM      5  C   UNL     1      47.544   5.873  13.387  0.00  0.00    +0.000 A 
ATOM      6  C   UNL     1      46.398   5.083  13.321  0.00  0.00    +0.000 A 
ENDROOT
BRANCH   1   8
ATOM      7  C   UNL     1      42.927   5.310  12.885  0.00  0.00    +0.000 C 
ATOM      8  C   UNL     1      44.124   4.534  12.329  0.00  0.00    +0.000 C 
BRANCH   8   9
ATOM      9  N   UNL     1      43.872   4.076  10.969  0.00  0.00    +0.000 N 
ATOM     10  C   UNL     1      44.622   3.063  10.415  0.00  0.00    +0.000 C 
ATOM     11  O   UNL     1      45.544   2.529  11.034  0.00  0.00    +0.000 OA
ATOM     12  H   UNL     1      43.226   4.593  10.387  0.00  0.00    +0.000 HD
BRANCH  10  13
ATOM     13  C   UNL     1      44.242   2.683   8.961  0.00  0.00    +0.000 C 
ATOM     14  C   UNL     1      44.551   3.824   7.983  0.00  0.00    +0.000 C 
ATOM     15  C   UNL     1      46.055   4.026   7.798  0.00  0.00    +0.000 C 
ATOM     16  C   UNL     1      46.729   2.715   7.420  0.00  0.00    +0.000 C 
ATOM     17  C   UNL     1      46.347   1.578   8.368  0.00  0.00    +0.000 C 
ATOM     18  N   UNL     1      44.897   1.429   8.518  0.00  0.00    +0.000 NA
ATOM     19  H   UNL     1      44.703   0.678   9.174  0.00  0.00    +0.000 HD
ENDBRANCH  10  13
ENDBRANCH   8   9
ENDBRANCH   1   8
BRANCH   4  20
ATOM     20  C   UNL     1      48.949   7.813  12.627  0.00  0.00    +0.000 C 
BRANCH  20  21
ATOM     21  N   UNL     1      49.879   7.248  13.573  0.00  0.00    +0.000 N 
ATOM     22  C   UNL     1      50.176   7.880  14.751  0.00  0.00    +0.000 C 
ATOM     23  O   UNL     1      49.653   8.945  15.070  0.00  0.00    +0.000 OA
ATOM     24  H   UNL     1      50.498   6.519  13.232  0.00  0.00    +0.000 HD
BRANCH  22  25
ATOM     25  C   UNL     1      51.104   7.180  15.648  0.00  0.00    +0.000 A 
ATOM     26  C   UNL     1      52.464   7.446  15.573  0.00  0.00    +0.000 A 
ATOM     27  S   UNL     1      53.392   6.590  16.721  0.00  0.00    +0.000 S 
ATOM     28  C   UNL     1      52.014   5.792  17.321  0.00  0.00    +0.000 A 
ATOM     29  N   UNL     1      52.116   4.876  18.321  0.00  0.00    +0.000 NA
ATOM     30  C   UNL     1      50.997   4.329  18.660  0.00  0.00    +0.000 A 
ATOM     31  N   UNL     1      49.783   4.618  18.095  0.00  0.00    +0.000 N 
ATOM     32  C   UNL     1      49.629   5.557  17.103  0.00  0.00    +0.000 A 
ATOM     33  O   UNL     1      48.518   5.826  16.654  0.00  0.00    +0.000 OA
ATOM     34  C   UNL     1      50.859   6.192  16.673  0.00  0.00    +0.000 A 
ATOM     35  H   UNL     1      48.943   4.158  18.414  0.00  0.00    +0.000 HD
ENDBRANCH  22  25
ENDBRANCH  20  21
ENDBRANCH   4  20
TORSDOF 6
ENDMDL
MODEL 7
REMARK VINA RESULT:    -6.552      1.959      3.261
REMARK INTER + INTRA:          -9.906
REMARK INTER:                  -9.188
REMARK INTRA:                  -0.719
REMARK UNBOUND:                -1.055
REMARK  Name = 
REMARK  7 active torsions:
REMARK  status: ('A' for Active; 'I' for Inactive)
REMARK    1  A    between atoms: C_1  and  C_2
REMARK    2  A    between atoms: C_2  and  N_3
REMARK    3  A    between atoms: C_2  and  C_12
REMARK    4  A    between atoms: C_4  and  C_6
REMARK    5  A    between atoms: C_15  and  C_16
REMARK    6  A    between atoms: C_16  and  N_17
REMARK    7  A    between atoms: C_18  and  C_20
REMARK                            x       y       z     vdW  Elec       q    Type
REMARK                         _______ _______ _______ _____ _____    ______ ____
ROOT
ATOM      1  C   UNL     1      47.955   7.712  14.164  0.00  0.00    +0.000 A 
ATOM      2  C   UNL     1      48.242   8.989  14.672  0.00  0.00    +0.000 A 
ATOM      3  C   UNL     1      49.070   9.142  15.788  0.00  0.00    +0.000 A 
ATOM      4  C   UNL     1      49.631   8.022  16.414  0.00  0.00    +0.000 A 
ATOM      5  C   UNL     1      49.347   6.749  15.905  0.00  0.00    +0.000 A 
ATOM      6  C   UNL     1      48.530   6.595  14.788  0.00  0.00    +0.000 A 
ENDROOT
BRANCH   1   8
ATOM      7  C   UNL     1      47.793   7.230  11.695  0.00  0.00    +0.000 C 
ATOM      8  C   UNL     1      47.025   7.554  12.979  0.00  0.00    +0.000 C 
BRANCH   8   9
ATOM      9  N   UNL     1      46.018   6.540  13.262  0.00  0.00    +0.000 N 
ATOM     10  C   UNL     1      44.843   6.493  12.544  0.00  0.00    +0.000 C 
ATOM     11  O   UNL     1      44.591   7.316  11.663  0.00  0.00    +0.000 OA
ATOM     12  H   UNL     1      46.128   5.948  14.074  0.00  0.00    +0.000 HD
BRANCH  10  13
ATOM     13  C   UNL     1      43.866   5.363  12.957  0.00  0.00    +0.000 C 
ATOM     14  C   UNL     1      42.789   5.131  11.888  0.00  0.00    +0.000 C 
ATOM     15  C   UNL     1      43.369   4.504  10.621  0.00  0.00    +0.000 C 
ATOM     16  C   UNL     1      44.158   3.246  10.958  0.00  0.00    +0.000 C 
ATOM     17  C   UNL     1      45.171   3.486  12.076  0.00  0.00    +0.000 C 
ATOM     18  N   UNL     1      44.570   4.095  13.266  0.00  0.00    +0.000 NA
ATOM     19  H   UNL     1      45.292   4.252  13.963  0.00  0.00    +0.000 HD
ENDBRANCH  10  13
ENDBRANCH   8   9
ENDBRANCH   1   8
BRANCH   4  20
ATOM     20  C   UNL     1      50.472   8.159  17.656  0.00  0.00    +0.000 C 
BRANCH  20  21
ATOM     21  N   UNL     1      51.294   6.988  17.842  0.00  0.00    +0.000 N 
ATOM     22  C   UNL     1      50.964   6.019  18.753  0.00  0.00    +0.000 C 
ATOM     23  O   UNL     1      49.948   6.087  19.439  0.00  0.00    +0.000 OA
ATOM     24  H   UNL     1      52.242   7.029  17.481  0.00  0.00    +0.000 HD
BRANCH  22  25
ATOM     25  C   UNL     1      51.859   4.856  18.815  0.00  0.00    +0.000 A 
ATOM     26  C   UNL     1      53.065   4.954  19.494  0.00  0.00    +0.000 A 
ATOM     27  S   UNL     1      53.955   3.498  19.517  0.00  0.00    +0.000 S 
ATOM     28  C   UNL     1      52.785   2.704  18.572  0.00  0.00    +0.000 A 
ATOM     29  N   UNL     1      52.951   1.407  18.197  0.00  0.00    +0.000 NA
ATOM     30  C   UNL     1      52.000   0.937  17.461  0.00  0.00    +0.000 A 
ATOM     31  N   UNL     1      50.894   1.645  17.070  0.00  0.00    +0.000 N 
ATOM     32  C   UNL     1      50.670   2.947  17.449  0.00  0.00    +0.000 A 
ATOM     33  O   UNL     1      49.643   3.534  17.120  0.00  0.00    +0.000 OA
ATOM     34  C   UNL     1      51.717   3.528  18.266  0.00  0.00    +0.000 A 
ATOM     35  H   UNL     1      50.181   1.214  16.499  0.00  0.00    +0.000 HD
ENDBRANCH  22  25
ENDBRANCH  20  21
ENDBRANCH   4  20
TORSDOF 6
ENDMDL
MODEL 8
REMARK VINA RESULT:    -6.496      5.655      9.491
REMARK INTER + INTRA:          -9.830
REMARK INTER:                  -8.769
REMARK INTRA:                  -1.060
REMARK UNBOUND:                -1.055
REMARK  Name = 
REMARK  7 active torsions:
REMARK  status: ('A' for Active; 'I' for Inactive)
REMARK    1  A    between atoms: C_1  and  C_2
REMARK    2  A    between atoms: C_2  and  N_3
REMARK    3  A    between atoms: C_2  and  C_12
REMARK    4  A    between atoms: C_4  and  C_6
REMARK    5  A    between atoms: C_15  and  C_16
REMARK    6  A    between atoms: C_16  and  N_17
REMARK    7  A    between atoms: C_18  and  C_20
REMARK                            x       y       z     vdW  Elec       q    Type
REMARK                         _______ _______ _______ _____ _____    ______ ____
ROOT
ATOM      1  C   UNL     1      51.036   8.474  12.527  0.00  0.00    +0.000 A 
ATOM      2  C   UNL     1      50.243   9.128  13.483  0.00  0.00    +0.000 A 
ATOM      3  C   UNL     1      48.848   9.084  13.402  0.00  0.00    +0.000 A 
ATOM      4  C   UNL     1      48.219   8.381  12.367  0.00  0.00    +0.000 A 
ATOM      5  C   UNL     1      49.010   7.726  11.415  0.00  0.00    +0.000 A 
ATOM      6  C   UNL     1      50.400   7.761  11.499  0.00  0.00    +0.000 A 
ENDROOT
BRANCH   1   8
ATOM      7  C   UNL     1      53.068   8.200  13.994  0.00  0.00    +0.000 C 
ATOM      8  C   UNL     1      52.546   8.561  12.600  0.00  0.00    +0.000 C 
BRANCH   8   9
ATOM      9  N   UNL     1      53.149   7.718  11.576  0.00  0.00    +0.000 N 
ATOM     10  C   UNL     1      54.012   8.250  10.643  0.00  0.00    +0.000 C 
ATOM     11  O   UNL     1      54.282   9.452  10.625  0.00  0.00    +0.000 OA
ATOM     12  H   UNL     1      52.832   6.764  11.473  0.00  0.00    +0.000 HD
BRANCH  10  13
ATOM     13  C   UNL     1      54.574   7.236   9.615  0.00  0.00    +0.000 C 
ATOM     14  C   UNL     1      53.528   6.179   9.237  0.00  0.00    +0.000 C 
ATOM     15  C   UNL     1      52.394   6.771   8.402  0.00  0.00    +0.000 C 
ATOM     16  C   UNL     1      52.949   7.520   7.198  0.00  0.00    +0.000 C 
ATOM     17  C   UNL     1      54.041   8.514   7.594  0.00  0.00    +0.000 C 
ATOM     18  N   UNL     1      55.101   7.901   8.399  0.00  0.00    +0.000 NA
ATOM     19  H   UNL     1      55.783   8.610   8.651  0.00  0.00    +0.000 HD
ENDBRANCH  10  13
ENDBRANCH   8   9
ENDBRANCH   1   8
BRANCH   4  20
ATOM     20  C   UNL     1      46.720   8.374  12.223  0.00  0.00    +0.000 C 
BRANCH  20  21
ATOM     21  N   UNL     1      46.232   7.026  12.070  0.00  0.00    +0.000 N 
ATOM     22  C   UNL     1      44.973   6.769  11.596  0.00  0.00    +0.000 C 
ATOM     23  O   UNL     1      44.207   7.668  11.259  0.00  0.00    +0.000 OA
ATOM     24  H   UNL     1      46.735   6.295  12.564  0.00  0.00    +0.000 HD
BRANCH  22  25
ATOM     25  C   UNL     1      44.613   5.353  11.444  0.00  0.00    +0.000 A 
ATOM     26  C   UNL     1      43.916   4.711  12.458  0.00  0.00    +0.000 A 
ATOM     27  S   UNL     1      43.530   3.088  12.099  0.00  0.00    +0.000 S 
ATOM     28  C   UNL     1      44.328   3.173  10.599  0.00  0.00    +0.000 A 
ATOM     29  N   UNL     1      44.399   2.089   9.781  0.00  0.00    +0.000 NA
ATOM     30  C   UNL     1      45.056   2.285   8.688  0.00  0.00    +0.000 A 
ATOM     31  N   UNL     1      45.646   3.470   8.334  0.00  0.00    +0.000 N 
ATOM     32  C   UNL     1      45.575   4.599   9.115  0.00  0.00    +0.000 A 
ATOM     33  O   UNL     1      46.074   5.657   8.742  0.00  0.00    +0.000 OA
ATOM     34  C   UNL     1      44.859   4.428  10.364  0.00  0.00    +0.000 A 
ATOM     35  H   UNL     1      46.140   3.559   7.458  0.00  0.00    +0.000 HD
ENDBRANCH  22  25
ENDBRANCH  20  21
ENDBRANCH   4  20
TORSDOF 6
ENDMDL
MODEL 9
REMARK VINA RESULT:    -6.226      5.740      9.203
REMARK INTER + INTRA:          -9.466
REMARK INTER:                  -8.344
REMARK INTRA:                  -1.122
REMARK UNBOUND:                -1.055
REMARK  Name = 
REMARK  7 active torsions:
REMARK  status: ('A' for Active; 'I' for Inactive)
REMARK    1  A    between atoms: C_1  and  C_2
REMARK    2  A    between atoms: C_2  and  N_3
REMARK    3  A    between atoms: C_2  and  C_12
REMARK    4  A    between atoms: C_4  and  C_6
REMARK    5  A    between atoms: C_15  and  C_16
REMARK    6  A    between atoms: C_16  and  N_17
REMARK    7  A    between atoms: C_18  and  C_20
REMARK                            x       y       z     vdW  Elec       q    Type
REMARK                         _______ _______ _______ _____ _____    ______ ____
ROOT
ATOM      1  C   UNL     1      50.631   9.599  11.489  0.00  0.00    +0.000 A 
ATOM      2  C   UNL     1      50.655   8.202  11.353  0.00  0.00    +0.000 A 
ATOM      3  C   UNL     1      49.729   7.404  12.031  0.00  0.00    +0.000 A 
ATOM      4  C   UNL     1      48.757   7.988  12.853  0.00  0.00    +0.000 A 
ATOM      5  C   UNL     1      48.731   9.381  12.987  0.00  0.00    +0.000 A 
ATOM      6  C   UNL     1      49.648  10.178  12.306  0.00  0.00    +0.000 A 
ENDROOT
BRANCH   1   8
ATOM      7  C   UNL     1      52.305  11.467  11.732  0.00  0.00    +0.000 C 
ATOM      8  C   UNL     1      51.664  10.453  10.783  0.00  0.00    +0.000 C 
BRANCH   8   9
ATOM      9  N   UNL     1      52.670   9.608  10.154  0.00  0.00    +0.000 N 
ATOM     10  C   UNL     1      53.033   9.801   8.839  0.00  0.00    +0.000 C 
ATOM     11  O   UNL     1      52.504  10.671   8.145  0.00  0.00    +0.000 OA
ATOM     12  H   UNL     1      53.011   8.795  10.649  0.00  0.00    +0.000 HD
BRANCH  10  13
ATOM     13  C   UNL     1      54.113   8.827   8.305  0.00  0.00    +0.000 C 
ATOM     14  C   UNL     1      54.109   7.503   9.080  0.00  0.00    +0.000 C 
ATOM     15  C   UNL     1      52.862   6.672   8.784  0.00  0.00    +0.000 C 
ATOM     16  C   UNL     1      52.685   6.487   7.283  0.00  0.00    +0.000 C 
ATOM     17  C   UNL     1      52.766   7.813   6.528  0.00  0.00    +0.000 C 
ATOM     18  N   UNL     1      53.975   8.576   6.850  0.00  0.00    +0.000 NA
ATOM     19  H   UNL     1      53.963   9.454   6.339  0.00  0.00    +0.000 HD
ENDBRANCH  10  13
ENDBRANCH   8   9
ENDBRANCH   1   8
BRANCH   4  20
ATOM     20  C   UNL     1      47.792   7.144  13.644  0.00  0.00    +0.000 C 
BRANCH  20  21
ATOM     21  N   UNL     1      47.132   6.191  12.786  0.00  0.00    +0.000 N 
ATOM     22  C   UNL     1      46.165   6.577  11.896  0.00  0.00    +0.000 C 
ATOM     23  O   UNL     1      45.825   7.750  11.770  0.00  0.00    +0.000 OA
ATOM     24  H   UNL     1      47.211   5.212  13.040  0.00  0.00    +0.000 HD
BRANCH  22  25
ATOM     25  C   UNL     1      45.603   5.517  11.049  0.00  0.00    +0.000 A 
ATOM     26  C   UNL     1      45.759   5.585   9.671  0.00  0.00    +0.000 A 
ATOM     27  S   UNL     1      45.097   4.249   8.842  0.00  0.00    +0.000 S 
ATOM     28  C   UNL     1      44.530   3.561  10.292  0.00  0.00    +0.000 A 
ATOM     29  N   UNL     1      43.832   2.394  10.287  0.00  0.00    +0.000 NA
ATOM     30  C   UNL     1      43.440   2.000  11.451  0.00  0.00    +0.000 A 
ATOM     31  N   UNL     1      43.686   2.665  12.624  0.00  0.00    +0.000 N 
ATOM     32  C   UNL     1      44.411   3.831  12.680  0.00  0.00    +0.000 A 
ATOM     33  O   UNL     1      44.654   4.374  13.755  0.00  0.00    +0.000 OA
ATOM     34  C   UNL     1      44.864   4.326  11.395  0.00  0.00    +0.000 A 
ATOM     35  H   UNL     1      43.356   2.297  13.504  0.00  0.00    +0.000 HD
ENDBRANCH  22  25
ENDBRANCH  20  21
ENDBRANCH   4  20
TORSDOF 6
ENDMDL
