MODEL 1
REMARK VINA RESULT:    -7.666      0.000      0.000
REMARK INTER + INTRA:         -12.053
REMARK INTER:                 -11.252
REMARK INTRA:                  -0.802
REMARK UNBOUND:                -0.802
REMARK  Name = 
REMARK  10 active torsions:
REMARK  status: ('A' for Active; 'I' for Inactive)
REMARK    1  A    between atoms: C_1  and  C_2
REMARK    2  A    between atoms: C_2  and  N_3
REMARK    3  A    between atoms: N_3  and  C_4
REMARK    4  A    between atoms: N_3  and  C_6
REMARK    5  A    between atoms: C_4  and  C_5
REMARK    6  A    between atoms: C_6  and  C_7
REMARK    7  A    between atoms: C_10  and  O_11
REMARK    8  A    between atoms: O_11  and  C_12
REMARK    9  A    between atoms: C_12  and  C_13
REMARK   10  A    between atoms: C_21  and  C_22
REMARK                            x       y       z     vdW  Elec       q    Type
REMARK                         _______ _______ _______ _____ _____    ______ ____
ROOT
ATOM      1  C   UNL     1      46.349   6.080  12.794  0.00  0.00    +0.000 A 
ATOM      2  N   UNL     1      45.593   6.649  11.798  0.00  0.00    +0.000 NA
ATOM      3  C   UNL     1      44.880   5.838  11.001  0.00  0.00    +0.000 A 
ATOM      4  C   UNL     1      44.867   4.462  11.106  0.00  0.00    +0.000 A 
ATOM      5  C   UNL     1      45.550   3.896  12.177  0.00  0.00    +0.000 A 
ATOM      6  C   UNL     1      46.243   4.710  13.092  0.00  0.00    +0.000 A 
ENDROOT
BRANCH   6   7
ATOM      7  C   UNL     1      46.884   4.045  14.269  0.00  0.00    +0.000 C 
ATOM      8  N   UNL     1      46.511   4.431  15.547  0.00  0.00    +0.000 N 
ATOM      9  O   UNL     1      47.724   3.203  14.152  0.00  0.00    +0.000 OA
ATOM     10  H   UNL     1      46.028   5.283  15.783  0.00  0.00    +0.000 HD
ATOM     11  H   UNL     1      47.107   4.043  16.275  0.00  0.00    +0.000 HD
ENDBRANCH   6   7
BRANCH   1  12
ATOM     12  C   UNL     1      47.346   7.077  13.428  0.00  0.00    +0.000 C 
BRANCH  12  13
ATOM     13  N   UNL     1      48.792   6.719  13.340  0.00  0.00    +0.000 NA
BRANCH  13  15
ATOM     14  C   UNL     1      48.775   8.647  11.677  0.00  0.00    +0.000 C 
ATOM     15  C   UNL     1      49.361   7.311  12.116  0.00  0.00    +0.000 C 
ENDBRANCH  13  15
BRANCH  13  16
ATOM     16  C   UNL     1      49.560   7.047  14.565  0.00  0.00    +0.000 C 
ATOM     17  C   UNL     1      48.937   7.039  15.962  0.00  0.00    +0.000 C 
ENDBRANCH  13  16
ENDBRANCH  12  13
ENDBRANCH   1  12
BRANCH   4  18
ATOM     18  O   UNL     1      44.214   3.689  10.175  0.00  0.00    +0.000 OA
BRANCH  18  19
ATOM     19  C   UNL     1      44.498   4.071   8.802  0.00  0.00    +0.000 C 
BRANCH  19  20
ATOM     20  C   UNL     1      45.554   3.192   8.193  0.00  0.00    +0.000 A 
ATOM     21  C   UNL     1      46.577   3.689   7.380  0.00  0.00    +0.000 A 
ATOM     22  C   UNL     1      47.538   2.825   6.848  0.00  0.00    +0.000 A 
ATOM     23  C   UNL     1      47.489   1.458   7.123  0.00  0.00    +0.000 A 
ATOM     24  C   UNL     1      46.473   0.954   7.933  0.00  0.00    +0.000 A 
ATOM     25  C   UNL     1      45.520   1.819   8.456  0.00  0.00    +0.000 A 
ATOM     26  F   UNL     1      44.549   1.317   9.234  0.00  0.00    +0.000 F 
ENDBRANCH  19  20
ENDBRANCH  18  19
ENDBRANCH   4  18
TORSDOF 8
ENDMDL
MODEL 2
REMARK VINA RESULT:    -7.508      0.661      1.599
REMARK INTER + INTRA:         -11.822
REMARK INTER:                 -10.967
REMARK INTRA:                  -0.854
REMARK UNBOUND:                -0.802
REMARK  Name = 
REMARK  10 active torsions:
REMARK  status: ('A' for Active; 'I' for Inactive)
REMARK    1  A    between atoms: C_1  and  C_2
REMARK    2  A    between atoms: C_2  and  N_3
REMARK    3  A    between atoms: N_3  and  C_4
REMARK    4  A    between atoms: N_3  and  C_6
REMARK    5  A    between atoms: C_4  and  C_5
REMARK    6  A    between atoms: C_6  and  C_7
REMARK    7  A    between atoms: C_10  and  O_11
REMARK    8  A    between atoms: O_11  and  C_12
REMARK    9  A    between atoms: C_12  and  C_13
REMARK   10  A    between atoms: C_21  and  C_22
REMARK                            x       y       z     vdW  Elec       q    Type
REMARK                         _______ _______ _______ _____ _____    ______ ____
ROOT
ATOM      1  C   UNL     1      47.024   5.891  12.505  0.00  0.00    +0.000 A 
ATOM      2  N   UNL     1      46.478   6.503  11.403  0.00  0.00    +0.000 NA
ATOM      3  C   UNL     1      45.544   5.837  10.705  0.00  0.00    +0.000 A 
ATOM      4  C   UNL     1      45.103   4.567  11.015  0.00  0.00    +0.000 A 
ATOM      5  C   UNL     1      45.581   3.992  12.187  0.00  0.00    +0.000 A 
ATOM      6  C   UNL     1      46.497   4.684  12.999  0.00  0.00    +0.000 A 
ENDROOT
BRANCH   6   7
ATOM      7  C   UNL     1      46.906   4.046  14.290  0.00  0.00    +0.000 C 
ATOM      8  N   UNL     1      46.578   4.669  15.484  0.00  0.00    +0.000 N 
ATOM      9  O   UNL     1      47.523   3.023  14.333  0.00  0.00    +0.000 OA
ATOM     10  H   UNL     1      46.304   5.634  15.583  0.00  0.00    +0.000 HD
ATOM     11  H   UNL     1      47.030   4.250  16.293  0.00  0.00    +0.000 HD
ENDBRANCH   6   7
BRANCH   1  12
ATOM     12  C   UNL     1      48.286   6.617  13.025  0.00  0.00    +0.000 C 
BRANCH  12  13
ATOM     13  N   UNL     1      48.058   7.844  13.842  0.00  0.00    +0.000 NA
BRANCH  13  15
ATOM     14  C   UNL     1      50.135   7.255  15.194  0.00  0.00    +0.000 C 
ATOM     15  C   UNL     1      48.665   7.657  15.173  0.00  0.00    +0.000 C 
ENDBRANCH  13  15
BRANCH  13  16
ATOM     16  C   UNL     1      48.489   9.093  13.170  0.00  0.00    +0.000 C 
ATOM     17  C   UNL     1      49.034   9.120  11.742  0.00  0.00    +0.000 C 
ENDBRANCH  13  16
ENDBRANCH  12  13
ENDBRANCH   1  12
BRANCH   4  18
ATOM     18  O   UNL     1      44.237   3.898  10.182  0.00  0.00    +0.000 OA
BRANCH  18  19
ATOM     19  C   UNL     1      44.457   4.174   8.773  0.00  0.00    +0.000 C 
BRANCH  19  20
ATOM     20  C   UNL     1      45.499   3.260   8.190  0.00  0.00    +0.000 A 
ATOM     21  C   UNL     1      46.526   3.716   7.358  0.00  0.00    +0.000 A 
ATOM     22  C   UNL     1      47.472   2.820   6.852  0.00  0.00    +0.000 A 
ATOM     23  C   UNL     1      47.404   1.464   7.171  0.00  0.00    +0.000 A 
ATOM     24  C   UNL     1      46.385   1.002   8.000  0.00  0.00    +0.000 A 
ATOM     25  C   UNL     1      45.446   1.898   8.498  0.00  0.00    +0.000 A 
ATOM     26  F   UNL     1      44.471   1.435   9.295  0.00  0.00    +0.000 F 
ENDBRANCH  19  20
ENDBRANCH  18  19
ENDBRANCH   4  18
TORSDOF 8
ENDMDL
MODEL 3
REMARK VINA RESULT:    -7.394      1.831      3.111
REMARK INTER + INTRA:         -11.653
REMARK INTER:                 -10.774
REMARK INTRA:                  -0.879
REMARK UNBOUND:                -0.802
REMARK  Name = 
REMARK  10 active torsions:
REMARK  status: ('A' for Active; 'I' for Inactive)
REMARK    1  A    between atoms: C_1  and  C_2
REMARK    2  A    between atoms: C_2  and  N_3
REMARK    3  A    between atoms: N_3  and  C_4
REMARK    4  A    between atoms: N_3  and  C_6
REMARK    5  A    between atoms: C_4  and  C_5
REMARK    6  A    between atoms: C_6  and  C_7
REMARK    7  A    between atoms: C_10  and  O_11
REMARK    8  A    between atoms: O_11  and  C_12
REMARK    9  A    between atoms: C_12  and  C_13
REMARK   10  A    between atoms: C_21  and  C_22
REMARK                            x       y       z     vdW  Elec       q    Type
REMARK                         _______ _______ _______ _____ _____    ______ ____
ROOT
ATOM      1  C   UNL     1      46.527   4.649  14.021  0.00  0.00    +0.000 A 
ATOM      2  N   UNL     1      45.744   3.685  13.435  0.00  0.00    +0.000 NA
ATOM      3  C   UNL     1      45.234   3.935  12.218  0.00  0.00    +0.000 A 
ATOM      4  C   UNL     1      45.433   5.108  11.519  0.00  0.00    +0.000 A 
ATOM      5  C   UNL     1      46.307   6.039  12.070  0.00  0.00    +0.000 A 
ATOM      6  C   UNL     1      46.935   5.787  13.303  0.00  0.00    +0.000 A 
ENDROOT
BRANCH   6   7
ATOM      7  C   UNL     1      47.930   6.790  13.797  0.00  0.00    +0.000 C 
ATOM      8  N   UNL     1      47.474   7.991  14.319  0.00  0.00    +0.000 N 
ATOM      9  O   UNL     1      49.110   6.605  13.743  0.00  0.00    +0.000 OA
ATOM     10  H   UNL     1      46.552   8.375  14.184  0.00  0.00    +0.000 HD
ATOM     11  H   UNL     1      48.217   8.667  14.480  0.00  0.00    +0.000 HD
ENDBRANCH   6   7
BRANCH   1  12
ATOM     12  C   UNL     1      46.788   4.374  15.520  0.00  0.00    +0.000 C 
BRANCH  12  13
ATOM     13  N   UNL     1      48.191   4.042  15.901  0.00  0.00    +0.000 NA
BRANCH  13  15
ATOM     14  C   UNL     1      47.769   5.213  18.123  0.00  0.00    +0.000 C 
ATOM     15  C   UNL     1      48.662   5.014  16.904  0.00  0.00    +0.000 C 
ENDBRANCH  13  15
BRANCH  13  16
ATOM     16  C   UNL     1      48.374   2.631  16.319  0.00  0.00    +0.000 C 
ATOM     17  C   UNL     1      49.643   2.128  17.009  0.00  0.00    +0.000 C 
ENDBRANCH  13  16
ENDBRANCH  12  13
ENDBRANCH   1  12
BRANCH   4  18
ATOM     18  O   UNL     1      44.776   5.345  10.335  0.00  0.00    +0.000 OA
BRANCH  18  19
ATOM     19  C   UNL     1      44.228   4.145   9.726  0.00  0.00    +0.000 C 
BRANCH  19  20
ATOM     20  C   UNL     1      45.221   3.496   8.802  0.00  0.00    +0.000 A 
ATOM     21  C   UNL     1      46.065   4.228   7.961  0.00  0.00    +0.000 A 
ATOM     22  C   UNL     1      46.975   3.569   7.129  0.00  0.00    +0.000 A 
ATOM     23  C   UNL     1      47.052   2.177   7.128  0.00  0.00    +0.000 A 
ATOM     24  C   UNL     1      46.215   1.439   7.962  0.00  0.00    +0.000 A 
ATOM     25  C   UNL     1      45.311   2.101   8.785  0.00  0.00    +0.000 A 
ATOM     26  F   UNL     1      44.513   1.375   9.583  0.00  0.00    +0.000 F 
ENDBRANCH  19  20
ENDBRANCH  18  19
ENDBRANCH   4  18
TORSDOF 8
ENDMDL
MODEL 4
REMARK VINA RESULT:    -6.807      2.189      3.467
REMARK INTER + INTRA:         -10.793
REMARK INTER:                  -9.954
REMARK INTRA:                  -0.839
REMARK UNBOUND:                -0.802
REMARK  Name = 
REMARK  10 active torsions:
REMARK  status: ('A' for Active; 'I' for Inactive)
REMARK    1  A    between atoms: C_1  and  C_2
REMARK    2  A    between atoms: C_2  and  N_3
REMARK    3  A    between atoms: N_3  and  C_4
REMARK    4  A    between atoms: N_3  and  C_6
REMARK    5  A    between atoms: C_4  and  C_5
REMARK    6  A    between atoms: C_6  and  C_7
REMARK    7  A    between atoms: C_10  and  O_11
REMARK    8  A    between atoms: O_11  and  C_12
REMARK    9  A    between atoms: C_12  and  C_13
REMARK   10  A    between atoms: C_21  and  C_22
REMARK                            x       y       z     vdW  Elec       q    Type
REMARK                         _______ _______ _______ _____ _____    ______ ____
ROOT
ATOM      1  C   UNL     1      47.270   5.471  13.832  0.00  0.00    +0.000 A 
ATOM      2  N   UNL     1      47.318   4.098  13.832  0.00  0.00    +0.000 NA
ATOM      3  C   UNL     1      46.409   3.431  13.103  0.00  0.00    +0.000 A 
ATOM      4  C   UNL     1      45.414   4.035  12.362  0.00  0.00    +0.000 A 
ATOM      5  C   UNL     1      45.430   5.423  12.282  0.00  0.00    +0.000 A 
ATOM      6  C   UNL     1      46.415   6.166  12.958  0.00  0.00    +0.000 A 
ENDROOT
BRANCH   6   7
ATOM      7  C   UNL     1      46.428   7.649  12.760  0.00  0.00    +0.000 C 
ATOM      8  N   UNL     1      47.525   8.239  12.152  0.00  0.00    +0.000 N 
ATOM      9  O   UNL     1      45.533   8.353  13.124  0.00  0.00    +0.000 OA
ATOM     10  H   UNL     1      48.432   7.813  12.043  0.00  0.00    +0.000 HD
ATOM     11  H   UNL     1      47.516   9.255  12.204  0.00  0.00    +0.000 HD
ENDBRANCH   6   7
BRANCH   1  12
ATOM     12  C   UNL     1      48.154   6.098  14.934  0.00  0.00    +0.000 C 
BRANCH  12  13
ATOM     13  N   UNL     1      48.586   5.191  16.037  0.00  0.00    +0.000 NA
BRANCH  13  15
ATOM     14  C   UNL     1      50.676   4.869  17.456  0.00  0.00    +0.000 C 
ATOM     15  C   UNL     1      49.702   5.818  16.768  0.00  0.00    +0.000 C 
ENDBRANCH  13  15
BRANCH  13  16
ATOM     16  C   UNL     1      47.475   4.758  16.919  0.00  0.00    +0.000 C 
ATOM     17  C   UNL     1      47.299   3.312  17.383  0.00  0.00    +0.000 C 
ENDBRANCH  13  16
ENDBRANCH  12  13
ENDBRANCH   1  12
BRANCH   4  18
ATOM     18  O   UNL     1      44.440   3.286  11.744  0.00  0.00    +0.000 OA
BRANCH  18  19
ATOM     19  C   UNL     1      44.058   3.796  10.439  0.00  0.00    +0.000 C 
BRANCH  19  20
ATOM     20  C   UNL     1      44.994   3.317   9.365  0.00  0.00    +0.000 A 
ATOM     21  C   UNL     1      45.169   1.963   9.061  0.00  0.00    +0.000 A 
ATOM     22  C   UNL     1      46.048   1.577   8.045  0.00  0.00    +0.000 A 
ATOM     23  C   UNL     1      46.758   2.535   7.323  0.00  0.00    +0.000 A 
ATOM     24  C   UNL     1      46.590   3.886   7.618  0.00  0.00    +0.000 A 
ATOM     25  C   UNL     1      45.716   4.263   8.632  0.00  0.00    +0.000 A 
ATOM     26  F   UNL     1      45.566   5.568   8.903  0.00  0.00    +0.000 F 
ENDBRANCH  19  20
ENDBRANCH  18  19
ENDBRANCH   4  18
TORSDOF 8
ENDMDL
MODEL 5
REMARK VINA RESULT:    -6.440      2.149      3.341
REMARK INTER + INTRA:         -10.253
REMARK INTER:                  -9.349
REMARK INTRA:                  -0.905
REMARK UNBOUND:                -0.802
REMARK  Name = 
REMARK  10 active torsions:
REMARK  status: ('A' for Active; 'I' for Inactive)
REMARK    1  A    between atoms: C_1  and  C_2
REMARK    2  A    between atoms: C_2  and  N_3
REMARK    3  A    between atoms: N_3  and  C_4
REMARK    4  A    between atoms: N_3  and  C_6
REMARK    5  A    between atoms: C_4  and  C_5
REMARK    6  A    between atoms: C_6  and  C_7
REMARK    7  A    between atoms: C_10  and  O_11
REMARK    8  A    between atoms: O_11  and  C_12
REMARK    9  A    between atoms: C_12  and  C_13
REMARK   10  A    between atoms: C_21  and  C_22
REMARK                            x       y       z     vdW  Elec       q    Type
REMARK                         _______ _______ _______ _____ _____    ______ ____
ROOT
ATOM      1  C   UNL     1      46.919   7.624  13.150  0.00  0.00    +0.000 A 
ATOM      2  N   UNL     1      47.250   6.291  13.190  0.00  0.00    +0.000 NA
ATOM      3  C   UNL     1      46.382   5.406  12.674  0.00  0.00    +0.000 A 
ATOM      4  C   UNL     1      45.168   5.746  12.115  0.00  0.00    +0.000 A 
ATOM      5  C   UNL     1      44.881   7.100  11.984  0.00  0.00    +0.000 A 
ATOM      6  C   UNL     1      45.796   8.070  12.431  0.00  0.00    +0.000 A 
ENDROOT
BRANCH   6   7
ATOM      7  C   UNL     1      45.466   9.509  12.181  0.00  0.00    +0.000 C 
ATOM      8  N   UNL     1      44.232   9.997  12.583  0.00  0.00    +0.000 N 
ATOM      9  O   UNL     1      46.220  10.254  11.629  0.00  0.00    +0.000 OA
ATOM     10  H   UNL     1      43.428   9.435  12.811  0.00  0.00    +0.000 HD
ATOM     11  H   UNL     1      44.037  10.932  12.233  0.00  0.00    +0.000 HD
ENDBRANCH   6   7
BRANCH   1  12
ATOM     12  C   UNL     1      47.838   8.493  14.039  0.00  0.00    +0.000 C 
BRANCH  12  13
ATOM     13  N   UNL     1      49.226   8.718  13.542  0.00  0.00    +0.000 NA
BRANCH  13  15
ATOM     14  C   UNL     1      49.815   7.391  15.635  0.00  0.00    +0.000 C 
ATOM     15  C   UNL     1      50.132   7.751  14.188  0.00  0.00    +0.000 C 
ENDBRANCH  13  15
BRANCH  13  16
ATOM     16  C   UNL     1      49.333   8.726  12.063  0.00  0.00    +0.000 C 
ATOM     17  C   UNL     1      50.188   7.723  11.288  0.00  0.00    +0.000 C 
ENDBRANCH  13  16
ENDBRANCH  12  13
ENDBRANCH   1  12
BRANCH   4  18
ATOM     18  O   UNL     1      44.275   4.777  11.722  0.00  0.00    +0.000 OA
BRANCH  18  19
ATOM     19  C   UNL     1      43.868   4.892  10.333  0.00  0.00    +0.000 C 
BRANCH  19  20
ATOM     20  C   UNL     1      44.698   4.012   9.441  0.00  0.00    +0.000 A 
ATOM     21  C   UNL     1      45.569   4.521   8.473  0.00  0.00    +0.000 A 
ATOM     22  C   UNL     1      46.324   3.653   7.678  0.00  0.00    +0.000 A 
ATOM     23  C   UNL     1      46.218   2.272   7.842  0.00  0.00    +0.000 A 
ATOM     24  C   UNL     1      45.354   1.756   8.805  0.00  0.00    +0.000 A 
ATOM     25  C   UNL     1      44.605   2.625   9.590  0.00  0.00    +0.000 A 
ATOM     26  F   UNL     1      43.778   2.111  10.513  0.00  0.00    +0.000 F 
ENDBRANCH  19  20
ENDBRANCH  18  19
ENDBRANCH   4  18
TORSDOF 8
ENDMDL
MODEL 6
REMARK VINA RESULT:    -6.382      2.166      3.866
REMARK INTER + INTRA:         -10.169
REMARK INTER:                  -9.489
REMARK INTRA:                  -0.680
REMARK UNBOUND:                -0.802
REMARK  Name = 
REMARK  10 active torsions:
REMARK  status: ('A' for Active; 'I' for Inactive)
REMARK    1  A    between atoms: C_1  and  C_2
REMARK    2  A    between atoms: C_2  and  N_3
REMARK    3  A    between atoms: N_3  and  C_4
REMARK    4  A    between atoms: N_3  and  C_6
REMARK    5  A    between atoms: C_4  and  C_5
REMARK    6  A    between atoms: C_6  and  C_7
REMARK    7  A    between atoms: C_10  and  O_11
REMARK    8  A    between atoms: O_11  and  C_12
REMARK    9  A    between atoms: C_12  and  C_13
REMARK   10  A    between atoms: C_21  and  C_22
REMARK                            x       y       z     vdW  Elec       q    Type
REMARK                         _______ _______ _______ _____ _____    ______ ____
ROOT
ATOM      1  C   UNL     1      47.579   5.348  14.871  0.00  0.00    +0.000 A 
ATOM      2  N   UNL     1      46.634   4.418  14.511  0.00  0.00    +0.000 NA
ATOM      3  C   UNL     1      45.861   4.680  13.445  0.00  0.00    +0.000 A 
ATOM      4  C   UNL     1      45.942   5.833  12.692  0.00  0.00    +0.000 A 
ATOM      5  C   UNL     1      46.964   6.724  12.996  0.00  0.00    +0.000 A 
ATOM      6  C   UNL     1      47.856   6.455  14.049  0.00  0.00    +0.000 A 
ENDROOT
BRANCH   6   7
ATOM      7  C   UNL     1      48.986   7.412  14.268  0.00  0.00    +0.000 C 
ATOM      8  N   UNL     1      50.110   7.324  13.461  0.00  0.00    +0.000 N 
ATOM      9  O   UNL     1      48.967   8.243  15.127  0.00  0.00    +0.000 OA
ATOM     10  H   UNL     1      50.363   6.529  12.895  0.00  0.00    +0.000 HD
ATOM     11  H   UNL     1      50.883   7.903  13.783  0.00  0.00    +0.000 HD
ENDBRANCH   6   7
BRANCH   1  12
ATOM     12  C   UNL     1      48.178   5.078  16.271  0.00  0.00    +0.000 C 
BRANCH  12  13
ATOM     13  N   UNL     1      47.235   4.575  17.312  0.00  0.00    +0.000 NA
BRANCH  13  15
ATOM     14  C   UNL     1      48.745   2.541  17.051  0.00  0.00    +0.000 C 
ATOM     15  C   UNL     1      47.386   3.114  17.433  0.00  0.00    +0.000 C 
ENDBRANCH  13  15
BRANCH  13  16
ATOM     16  C   UNL     1      47.347   5.287  18.607  0.00  0.00    +0.000 C 
ATOM     17  C   UNL     1      47.657   6.782  18.708  0.00  0.00    +0.000 C 
ENDBRANCH  13  16
ENDBRANCH  12  13
ENDBRANCH   1  12
BRANCH   4  18
ATOM     18  O   UNL     1      45.032   6.089  11.693  0.00  0.00    +0.000 OA
BRANCH  18  19
ATOM     19  C   UNL     1      44.192   4.949  11.367  0.00  0.00    +0.000 C 
BRANCH  19  20
ATOM     20  C   UNL     1      44.705   4.216  10.158  0.00  0.00    +0.000 A 
ATOM     21  C   UNL     1      45.513   4.823   9.191  0.00  0.00    +0.000 A 
ATOM     22  C   UNL     1      45.968   4.089   8.092  0.00  0.00    +0.000 A 
ATOM     23  C   UNL     1      45.623   2.745   7.948  0.00  0.00    +0.000 A 
ATOM     24  C   UNL     1      44.820   2.132   8.907  0.00  0.00    +0.000 A 
ATOM     25  C   UNL     1      44.369   2.869   9.996  0.00  0.00    +0.000 A 
ATOM     26  F   UNL     1      43.597   2.263  10.910  0.00  0.00    +0.000 F 
ENDBRANCH  19  20
ENDBRANCH  18  19
ENDBRANCH   4  18
TORSDOF 8
ENDMDL
MODEL 7
REMARK VINA RESULT:    -6.322      2.768      4.301
REMARK INTER + INTRA:         -10.080
REMARK INTER:                  -9.135
REMARK INTRA:                  -0.945
REMARK UNBOUND:                -0.802
REMARK  Name = 
REMARK  10 active torsions:
REMARK  status: ('A' for Active; 'I' for Inactive)
REMARK    1  A    between atoms: C_1  and  C_2
REMARK    2  A    between atoms: C_2  and  N_3
REMARK    3  A    between atoms: N_3  and  C_4
REMARK    4  A    between atoms: N_3  and  C_6
REMARK    5  A    between atoms: C_4  and  C_5
REMARK    6  A    between atoms: C_6  and  C_7
REMARK    7  A    between atoms: C_10  and  O_11
REMARK    8  A    between atoms: O_11  and  C_12
REMARK    9  A    between atoms: C_12  and  C_13
REMARK   10  A    between atoms: C_21  and  C_22
REMARK                            x       y       z     vdW  Elec       q    Type
REMARK                         _______ _______ _______ _____ _____    ______ ____
ROOT
ATOM      1  C   UNL     1      48.869   5.924  16.034  0.00  0.00    +0.000 A 
ATOM      2  N   UNL     1      49.227   6.812  15.049  0.00  0.00    +0.000 NA
ATOM      3  C   UNL     1      48.552   6.777  13.889  0.00  0.00    +0.000 A 
ATOM      4  C   UNL     1      47.527   5.895  13.613  0.00  0.00    +0.000 A 
ATOM      5  C   UNL     1      47.101   5.068  14.646  0.00  0.00    +0.000 A 
ATOM      6  C   UNL     1      47.718   5.126  15.908  0.00  0.00    +0.000 A 
ENDROOT
BRANCH   6   7
ATOM      7  C   UNL     1      47.155   4.272  17.001  0.00  0.00    +0.000 C 
ATOM      8  N   UNL     1      46.785   4.865  18.198  0.00  0.00    +0.000 N 
ATOM      9  O   UNL     1      47.027   3.089  16.890  0.00  0.00    +0.000 OA
ATOM     10  H   UNL     1      47.076   5.777  18.513  0.00  0.00    +0.000 HD
ATOM     11  H   UNL     1      46.565   4.193  18.929  0.00  0.00    +0.000 HD
ENDBRANCH   6   7
BRANCH   1  12
ATOM     12  C   UNL     1      49.907   5.856  17.179  0.00  0.00    +0.000 C 
BRANCH  12  13
ATOM     13  N   UNL     1      50.980   4.828  17.044  0.00  0.00    +0.000 NA
BRANCH  13  15
ATOM     14  C   UNL     1      53.457   4.498  17.534  0.00  0.00    +0.000 C 
ATOM     15  C   UNL     1      52.283   5.450  17.343  0.00  0.00    +0.000 C 
ENDBRANCH  13  15
BRANCH  13  16
ATOM     16  C   UNL     1      50.722   3.596  17.827  0.00  0.00    +0.000 C 
ATOM     17  C   UNL     1      50.438   2.243  17.175  0.00  0.00    +0.000 C 
ENDBRANCH  13  16
ENDBRANCH  12  13
ENDBRANCH   1  12
BRANCH   4  18
ATOM     18  O   UNL     1      46.968   5.832  12.359  0.00  0.00    +0.000 OA
BRANCH  18  19
ATOM     19  C   UNL     1      45.580   5.403  12.363  0.00  0.00    +0.000 C 
BRANCH  19  20
ATOM     20  C   UNL     1      45.237   4.636  11.116  0.00  0.00    +0.000 A 
ATOM     21  C   UNL     1      45.539   5.103   9.833  0.00  0.00    +0.000 A 
ATOM     22  C   UNL     1      45.204   4.342   8.710  0.00  0.00    +0.000 A 
ATOM     23  C   UNL     1      44.568   3.109   8.855  0.00  0.00    +0.000 A 
ATOM     24  C   UNL     1      44.265   2.636  10.129  0.00  0.00    +0.000 A 
ATOM     25  C   UNL     1      44.598   3.399  11.242  0.00  0.00    +0.000 A 
ATOM     26  F   UNL     1      44.299   2.927  12.462  0.00  0.00    +0.000 F 
ENDBRANCH  19  20
ENDBRANCH  18  19
ENDBRANCH   4  18
TORSDOF 8
ENDMDL
MODEL 8
REMARK VINA RESULT:    -6.269      2.105      3.336
REMARK INTER + INTRA:         -10.003
REMARK INTER:                  -8.887
REMARK INTRA:                  -1.116
REMARK UNBOUND:                -0.802
REMARK  Name = 
REMARK  10 active torsions:
REMARK  status: ('A' for Active; 'I' for Inactive)
REMARK    1  A    between atoms: C_1  and  C_2
REMARK    2  A    between atoms: C_2  and  N_3
REMARK    3  A    between atoms: N_3  and  C_4
REMARK    4  A    between atoms: N_3  and  C_6
REMARK    5  A    between atoms: C_4  and  C_5
REMARK    6  A    between atoms: C_6  and  C_7
REMARK    7  A    between atoms: C_10  and  O_11
REMARK    8  A    between atoms: O_11  and  C_12
REMARK    9  A    between atoms: C_12  and  C_13
REMARK   10  A    between atoms: C_21  and  C_22
REMARK                            x       y       z     vdW  Elec       q    Type
REMARK                         _______ _______ _______ _____ _____    ______ ____
ROOT
ATOM      1  C   UNL     1      47.860   6.497  13.591  0.00  0.00    +0.000 A 
ATOM      2  N   UNL     1      47.681   5.145  13.755  0.00  0.00    +0.000 NA
ATOM      3  C   UNL     1      46.523   4.604  13.342  0.00  0.00    +0.000 A 
ATOM      4  C   UNL     1      45.490   5.322  12.776  0.00  0.00    +0.000 A 
ATOM      5  C   UNL     1      45.714   6.670  12.519  0.00  0.00    +0.000 A 
ATOM      6  C   UNL     1      46.943   7.266  12.854  0.00  0.00    +0.000 A 
ENDROOT
BRANCH   6   7
ATOM      7  C   UNL     1      47.151   8.698  12.472  0.00  0.00    +0.000 C 
ATOM      8  N   UNL     1      46.247   9.652  12.915  0.00  0.00    +0.000 N 
ATOM      9  O   UNL     1      48.059   9.054  11.781  0.00  0.00    +0.000 OA
ATOM     10  H   UNL     1      45.323   9.462  13.268  0.00  0.00    +0.000 HD
ATOM     11  H   UNL     1      46.377  10.562  12.480  0.00  0.00    +0.000 HD
ENDBRANCH   6   7
BRANCH   1  12
ATOM     12  C   UNL     1      49.079   7.035  14.376  0.00  0.00    +0.000 C 
BRANCH  12  13
ATOM     13  N   UNL     1      48.932   7.120  15.858  0.00  0.00    +0.000 NA
BRANCH  13  15
ATOM     14  C   UNL     1      51.474   7.005  15.974  0.00  0.00    +0.000 C 
ATOM     15  C   UNL     1      50.123   6.529  16.495  0.00  0.00    +0.000 C 
ENDBRANCH  13  15
BRANCH  13  16
ATOM     16  C   UNL     1      48.621   8.485  16.345  0.00  0.00    +0.000 C 
ATOM     17  C   UNL     1      48.931   9.746  15.537  0.00  0.00    +0.000 C 
ENDBRANCH  13  16
ENDBRANCH  12  13
ENDBRANCH   1  12
BRANCH   4  18
ATOM     18  O   UNL     1      44.285   4.722  12.495  0.00  0.00    +0.000 OA
BRANCH  18  19
ATOM     19  C   UNL     1      43.772   5.042  11.174  0.00  0.00    +0.000 C 
BRANCH  19  20
ATOM     20  C   UNL     1      44.444   4.221  10.110  0.00  0.00    +0.000 A 
ATOM     21  C   UNL     1      45.282   4.778   9.139  0.00  0.00    +0.000 A 
ATOM     22  C   UNL     1      45.888   3.963   8.178  0.00  0.00    +0.000 A 
ATOM     23  C   UNL     1      45.665   2.586   8.178  0.00  0.00    +0.000 A 
ATOM     24  C   UNL     1      44.833   2.022   9.141  0.00  0.00    +0.000 A 
ATOM     25  C   UNL     1      44.232   2.839  10.092  0.00  0.00    +0.000 A 
ATOM     26  F   UNL     1      43.433   2.279  11.013  0.00  0.00    +0.000 F 
ENDBRANCH  19  20
ENDBRANCH  18  19
ENDBRANCH   4  18
TORSDOF 8
ENDMDL
MODEL 9
REMARK VINA RESULT:    -6.091      1.862      3.044
REMARK INTER + INTRA:          -9.741
REMARK INTER:                  -9.267
REMARK INTRA:                  -0.474
REMARK UNBOUND:                -0.802
REMARK  Name = 
REMARK  10 active torsions:
REMARK  status: ('A' for Active; 'I' for Inactive)
REMARK    1  A    between atoms: C_1  and  C_2
REMARK    2  A    between atoms: C_2  and  N_3
REMARK    3  A    between atoms: N_3  and  C_4
REMARK    4  A    between atoms: N_3  and  C_6
REMARK    5  A    between atoms: C_4  and  C_5
REMARK    6  A    between atoms: C_6  and  C_7
REMARK    7  A    between atoms: C_10  and  O_11
REMARK    8  A    between atoms: O_11  and  C_12
REMARK    9  A    between atoms: C_12  and  C_13
REMARK   10  A    between atoms: C_21  and  C_22
REMARK                            x       y       z     vdW  Elec       q    Type
REMARK                         _______ _______ _______ _____ _____    ______ ____
ROOT
ATOM      1  C   UNL     1      47.885   6.541  14.219  0.00  0.00    +0.000 A 
ATOM      2  N   UNL     1      47.657   7.654  13.447  0.00  0.00    +0.000 NA
ATOM      3  C   UNL     1      46.818   7.541  12.405  0.00  0.00    +0.000 A 
ATOM      4  C   UNL     1      46.177   6.373  12.048  0.00  0.00    +0.000 A 
ATOM      5  C   UNL     1      46.330   5.277  12.890  0.00  0.00    +0.000 A 
ATOM      6  C   UNL     1      47.130   5.368  14.042  0.00  0.00    +0.000 A 
ENDROOT
BRANCH   6   7
ATOM      7  C   UNL     1      47.183   4.180  14.951  0.00  0.00    +0.000 C 
ATOM      8  N   UNL     1      46.808   4.329  16.278  0.00  0.00    +0.000 N 
ATOM      9  O   UNL     1      47.554   3.105  14.583  0.00  0.00    +0.000 OA
ATOM     10  H   UNL     1      46.732   5.205  16.769  0.00  0.00    +0.000 HD
ATOM     11  H   UNL     1      47.025   3.517  16.850  0.00  0.00    +0.000 HD
ENDBRANCH   6   7
BRANCH   1  12
ATOM     12  C   UNL     1      49.086   6.717  15.177  0.00  0.00    +0.000 C 
BRANCH  12  13
ATOM     13  N   UNL     1      48.763   7.032  16.599  0.00  0.00    +0.000 NA
BRANCH  13  15
ATOM     14  C   UNL     1      50.977   5.816  16.922  0.00  0.00    +0.000 C 
ATOM     15  C   UNL     1      49.616   6.213  17.480  0.00  0.00    +0.000 C 
ENDBRANCH  13  15
BRANCH  13  16
ATOM     16  C   UNL     1      48.813   8.480  16.913  0.00  0.00    +0.000 C 
ATOM     17  C   UNL     1      47.838   9.153  17.880  0.00  0.00    +0.000 C 
ENDBRANCH  13  16
ENDBRANCH  12  13
ENDBRANCH   1  12
BRANCH   4  18
ATOM     18  O   UNL     1      45.432   6.300  10.894  0.00  0.00    +0.000 OA
BRANCH  18  19
ATOM     19  C   UNL     1      44.523   5.168  10.861  0.00  0.00    +0.000 C 
BRANCH  19  20
ATOM     20  C   UNL     1      44.959   4.141   9.854  0.00  0.00    +0.000 A 
ATOM     21  C   UNL     1      44.577   2.798   9.927  0.00  0.00    +0.000 A 
ATOM     22  C   UNL     1      45.007   1.889   8.955  0.00  0.00    +0.000 A 
ATOM     23  C   UNL     1      45.819   2.310   7.903  0.00  0.00    +0.000 A 
ATOM     24  C   UNL     1      46.204   3.646   7.822  0.00  0.00    +0.000 A 
ATOM     25  C   UNL     1      45.775   4.544   8.792  0.00  0.00    +0.000 A 
ATOM     26  F   UNL     1      46.155   5.828   8.698  0.00  0.00    +0.000 F 
ENDBRANCH  19  20
ENDBRANCH  18  19
ENDBRANCH   4  18
TORSDOF 8
ENDMDL
