MODEL 1
REMARK VINA RESULT:    -8.959      0.000      0.000
REMARK INTER + INTRA:         -11.436
REMARK INTER:                 -11.578
REMARK INTRA:                   0.142
REMARK UNBOUND:                 0.142
REMARK  Name = 
REMARK  5 active torsions:
REMARK  status: ('A' for Active; 'I' for Inactive)
REMARK    1  A    between atoms: C_2  and  C_4
REMARK    2  A    between atoms: C_7  and  O_8
REMARK    3  A    between atoms: O_8  and  C_9
REMARK    4  A    between atoms: C_9  and  C_10
REMARK    5  A    between atoms: C_15  and  C_16
REMARK                            x       y       z     vdW  Elec       q    Type
REMARK                         _______ _______ _______ _____ _____    ______ ____
ROOT
ATOM      1  C   UNL     1      43.662   5.090  11.012  0.00  0.00    +0.000 C 
ATOM      2  C   UNL     1      42.877   4.051  11.812  0.00  0.00    +0.000 C 
ATOM      3  C   UNL     1      42.397   5.465  11.753  0.00  0.00    +0.000 C 
ENDROOT
BRANCH   1   4
ATOM      4  C   UNL     1      45.011   5.546  11.541  0.00  0.00    +0.000 A 
ATOM      5  C   UNL     1      45.691   6.638  10.983  0.00  0.00    +0.000 A 
ATOM      6  C   UNL     1      46.894   7.086  11.522  0.00  0.00    +0.000 A 
ATOM      7  C   UNL     1      47.428   6.459  12.645  0.00  0.00    +0.000 A 
ATOM      8  F   UNL     1      48.558   6.973  13.155  0.00  0.00    +0.000 F 
ATOM      9  C   UNL     1      46.807   5.352  13.247  0.00  0.00    +0.000 A 
ATOM     10  C   UNL     1      45.604   4.912  12.653  0.00  0.00    +0.000 A 
BRANCH   9  11
ATOM     11  C   UNL     1      47.357   4.689  14.451  0.00  0.00    +0.000 A 
ATOM     12  C   UNL     1      47.761   5.394  15.586  0.00  0.00    +0.000 A 
ATOM     13  C   UNL     1      48.249   4.702  16.680  0.00  0.00    +0.000 A 
ATOM     14  N   UNL     1      48.372   3.361  16.702  0.00  0.00    +0.000 NA
ATOM     15  N   UNL     1      47.998   2.651  15.614  0.00  0.00    +0.000 NA
ATOM     16  C   UNL     1      47.502   3.304  14.535  0.00  0.00    +0.000 A 
ENDBRANCH   9  11
ENDBRANCH   1   4
BRANCH   1  17
ATOM     17  O   UNL     1      43.608   4.781   9.599  0.00  0.00    +0.000 OA
BRANCH  17  21
ATOM     18  C   UNL     1      46.373   2.338   7.911  0.00  0.00    +0.000 A 
ATOM     19  C   UNL     1      46.416   3.705   7.653  0.00  0.00    +0.000 A 
ATOM     20  N   UNL     1      45.542   4.588   8.212  0.00  0.00    +0.000 NA
ATOM     21  C   UNL     1      44.629   4.034   9.042  0.00  0.00    +0.000 A 
ATOM     22  C   UNL     1      44.613   2.670   9.327  0.00  0.00    +0.000 A 
ATOM     23  N   UNL     1      45.474   1.784   8.769  0.00  0.00    +0.000 NA
BRANCH  18  25
ATOM     24  N   UNL     1      48.302   2.004   6.474  0.00  0.00    +0.000 N 
ATOM     25  C   UNL     1      47.297   1.413   7.191  0.00  0.00    +0.000 C 
ATOM     26  O   UNL     1      47.177   0.198   7.257  0.00  0.00    +0.000 OA
ATOM     27  H   UNL     1      48.985   1.421   6.011  0.00  0.00    +0.000 HD
ATOM     28  H   UNL     1      48.406   3.011   6.475  0.00  0.00    +0.000 HD
ENDBRANCH  18  25
ENDBRANCH  17  21
ENDBRANCH   1  17
TORSDOF 5
ENDMDL
MODEL 2
REMARK VINA RESULT:    -8.658      2.528      3.507
REMARK INTER + INTRA:         -11.046
REMARK INTER:                 -10.269
REMARK INTRA:                  -0.778
REMARK UNBOUND:                 0.142
REMARK  Name = 
REMARK  5 active torsions:
REMARK  status: ('A' for Active; 'I' for Inactive)
REMARK    1  A    between atoms: C_2  and  C_4
REMARK    2  A    between atoms: C_7  and  O_8
REMARK    3  A    between atoms: O_8  and  C_9
REMARK    4  A    between atoms: C_9  and  C_10
REMARK    5  A    between atoms: C_15  and  C_16
REMARK                            x       y       z     vdW  Elec       q    Type
REMARK                         _______ _______ _______ _____ _____    ______ ____
ROOT
ATOM      1  C   UNL     1      43.906   4.951  11.341  0.00  0.00    +0.000 C 
ATOM      2  C   UNL     1      42.537   5.225  11.961  0.00  0.00    +0.000 C 
ATOM      3  C   UNL     1      43.033   6.084  10.843  0.00  0.00    +0.000 C 
ENDROOT
BRANCH   1   4
ATOM      4  C   UNL     1      45.148   5.259  12.159  0.00  0.00    +0.000 A 
ATOM      5  C   UNL     1      45.576   4.417  13.196  0.00  0.00    +0.000 A 
ATOM      6  C   UNL     1      46.754   4.676  13.891  0.00  0.00    +0.000 A 
ATOM      7  C   UNL     1      47.535   5.777  13.547  0.00  0.00    +0.000 A 
ATOM      8  F   UNL     1      48.689   5.942  14.214  0.00  0.00    +0.000 F 
ATOM      9  C   UNL     1      47.160   6.669  12.531  0.00  0.00    +0.000 A 
ATOM     10  C   UNL     1      45.946   6.386  11.868  0.00  0.00    +0.000 A 
BRANCH   9  11
ATOM     11  C   UNL     1      47.991   7.832  12.146  0.00  0.00    +0.000 A 
ATOM     12  C   UNL     1      49.320   7.710  11.737  0.00  0.00    +0.000 A 
ATOM     13  C   UNL     1      50.028   8.843  11.376  0.00  0.00    +0.000 A 
ATOM     14  N   UNL     1      49.499  10.080  11.415  0.00  0.00    +0.000 NA
ATOM     15  N   UNL     1      48.216  10.231  11.816  0.00  0.00    +0.000 NA
ATOM     16  C   UNL     1      47.497   9.136  12.160  0.00  0.00    +0.000 A 
ENDBRANCH   9  11
ENDBRANCH   1   4
BRANCH   1  17
ATOM     17  O   UNL     1      43.901   3.678  10.654  0.00  0.00    +0.000 OA
BRANCH  17  21
ATOM     18  C   UNL     1      46.450   2.749   7.637  0.00  0.00    +0.000 A 
ATOM     19  C   UNL     1      46.125   4.081   7.876  0.00  0.00    +0.000 A 
ATOM     20  N   UNL     1      45.304   4.469   8.891  0.00  0.00    +0.000 NA
ATOM     21  C   UNL     1      44.830   3.458   9.656  0.00  0.00    +0.000 A 
ATOM     22  C   UNL     1      45.188   2.129   9.436  0.00  0.00    +0.000 A 
ATOM     23  N   UNL     1      45.998   1.734   8.422  0.00  0.00    +0.000 NA
BRANCH  18  25
ATOM     24  N   UNL     1      47.227   3.252   5.392  0.00  0.00    +0.000 N 
ATOM     25  C   UNL     1      47.275   2.383   6.449  0.00  0.00    +0.000 C 
ATOM     26  O   UNL     1      47.972   1.379   6.429  0.00  0.00    +0.000 OA
ATOM     27  H   UNL     1      47.808   3.078   4.584  0.00  0.00    +0.000 HD
ATOM     28  H   UNL     1      46.678   4.101   5.453  0.00  0.00    +0.000 HD
ENDBRANCH  18  25
ENDBRANCH  17  21
ENDBRANCH   1  17
TORSDOF 5
ENDMDL
MODEL 3
REMARK VINA RESULT:    -8.198      2.215      2.829
REMARK INTER + INTRA:         -10.453
REMARK INTER:                 -10.611
REMARK INTRA:                   0.158
REMARK UNBOUND:                 0.142
REMARK  Name = 
REMARK  5 active torsions:
REMARK  status: ('A' for Active; 'I' for Inactive)
REMARK    1  A    between atoms: C_2  and  C_4
REMARK    2  A    between atoms: C_7  and  O_8
REMARK    3  A    between atoms: O_8  and  C_9
REMARK    4  A    between atoms: C_9  and  C_10
REMARK    5  A    between atoms: C_15  and  C_16
REMARK                            x       y       z     vdW  Elec       q    Type
REMARK                         _______ _______ _______ _____ _____    ______ ____
ROOT
ATOM      1  C   UNL     1      44.242   4.268  11.558  0.00  0.00    +0.000 C 
ATOM      2  C   UNL     1      44.951   3.174  12.353  0.00  0.00    +0.000 C 
ATOM      3  C   UNL     1      43.613   3.668  12.797  0.00  0.00    +0.000 C 
ENDROOT
BRANCH   1   4
ATOM      4  C   UNL     1      44.803   5.679  11.604  0.00  0.00    +0.000 A 
ATOM      5  C   UNL     1      44.001   6.800  11.346  0.00  0.00    +0.000 A 
ATOM      6  C   UNL     1      44.514   8.090  11.459  0.00  0.00    +0.000 A 
ATOM      7  C   UNL     1      45.836   8.280  11.852  0.00  0.00    +0.000 A 
ATOM      8  F   UNL     1      46.256   9.546  12.001  0.00  0.00    +0.000 F 
ATOM      9  C   UNL     1      46.698   7.202  12.113  0.00  0.00    +0.000 A 
ATOM     10  C   UNL     1      46.148   5.911  11.961  0.00  0.00    +0.000 A 
BRANCH   9  11
ATOM     11  C   UNL     1      48.101   7.393  12.548  0.00  0.00    +0.000 A 
ATOM     12  C   UNL     1      49.076   7.965  11.729  0.00  0.00    +0.000 A 
ATOM     13  C   UNL     1      50.362   8.125  12.213  0.00  0.00    +0.000 A 
ATOM     14  N   UNL     1      50.733   7.737  13.448  0.00  0.00    +0.000 NA
ATOM     15  N   UNL     1      49.813   7.171  14.261  0.00  0.00    +0.000 NA
ATOM     16  C   UNL     1      48.543   7.017  13.816  0.00  0.00    +0.000 A 
ENDBRANCH   9  11
ENDBRANCH   1   4
BRANCH   1  17
ATOM     17  O   UNL     1      43.871   3.777  10.248  0.00  0.00    +0.000 OA
BRANCH  17  21
ATOM     18  C   UNL     1      46.624   2.726   7.458  0.00  0.00    +0.000 A 
ATOM     19  C   UNL     1      46.314   4.070   7.645  0.00  0.00    +0.000 A 
ATOM     20  N   UNL     1      45.426   4.498   8.585  0.00  0.00    +0.000 NA
ATOM     21  C   UNL     1      44.869   3.514   9.330  0.00  0.00    +0.000 A 
ATOM     22  C   UNL     1      45.211   2.174   9.165  0.00  0.00    +0.000 A 
ATOM     23  N   UNL     1      46.088   1.739   8.226  0.00  0.00    +0.000 NA
BRANCH  18  25
ATOM     24  N   UNL     1      47.403   3.016   5.177  0.00  0.00    +0.000 N 
ATOM     25  C   UNL     1      47.530   2.316   6.346  0.00  0.00    +0.000 C 
ATOM     26  O   UNL     1      48.354   1.423   6.478  0.00  0.00    +0.000 OA
ATOM     27  H   UNL     1      48.028   2.813   4.410  0.00  0.00    +0.000 HD
ATOM     28  H   UNL     1      46.744   3.783   5.110  0.00  0.00    +0.000 HD
ENDBRANCH  18  25
ENDBRANCH  17  21
ENDBRANCH   1  17
TORSDOF 5
ENDMDL
MODEL 4
REMARK VINA RESULT:    -8.084      3.019      7.484
REMARK INTER + INTRA:         -10.305
REMARK INTER:                  -9.582
REMARK INTRA:                  -0.723
REMARK UNBOUND:                 0.142
REMARK  Name = 
REMARK  5 active torsions:
REMARK  status: ('A' for Active; 'I' for Inactive)
REMARK    1  A    between atoms: C_2  and  C_4
REMARK    2  A    between atoms: C_7  and  O_8
REMARK    3  A    between atoms: O_8  and  C_9
REMARK    4  A    between atoms: C_9  and  C_10
REMARK    5  A    between atoms: C_15  and  C_16
REMARK                            x       y       z     vdW  Elec       q    Type
REMARK                         _______ _______ _______ _____ _____    ______ ____
ROOT
ATOM      1  C   UNL     1      45.567   5.886  11.661  0.00  0.00    +0.000 C 
ATOM      2  C   UNL     1      45.087   7.211  11.070  0.00  0.00    +0.000 C 
ATOM      3  C   UNL     1      44.487   6.700  12.340  0.00  0.00    +0.000 C 
ENDROOT
BRANCH   1   4
ATOM      4  C   UNL     1      45.203   4.598  10.944  0.00  0.00    +0.000 A 
ATOM      5  C   UNL     1      44.125   3.802  11.359  0.00  0.00    +0.000 A 
ATOM      6  C   UNL     1      43.762   2.660  10.650  0.00  0.00    +0.000 A 
ATOM      7  C   UNL     1      44.461   2.305   9.499  0.00  0.00    +0.000 A 
ATOM      8  F   UNL     1      44.027   1.228   8.826  0.00  0.00    +0.000 F 
ATOM      9  C   UNL     1      45.558   3.048   9.034  0.00  0.00    +0.000 A 
ATOM     10  C   UNL     1      45.911   4.183   9.796  0.00  0.00    +0.000 A 
BRANCH   9  11
ATOM     11  C   UNL     1      46.297   2.689   7.803  0.00  0.00    +0.000 A 
ATOM     12  C   UNL     1      46.317   3.503   6.668  0.00  0.00    +0.000 A 
ATOM     13  C   UNL     1      47.046   3.108   5.560  0.00  0.00    +0.000 A 
ATOM     14  N   UNL     1      47.735   1.952   5.512  0.00  0.00    +0.000 NA
ATOM     15  N   UNL     1      47.727   1.139   6.592  0.00  0.00    +0.000 NA
ATOM     16  C   UNL     1      47.034   1.510   7.695  0.00  0.00    +0.000 A 
ENDBRANCH   9  11
ENDBRANCH   1   4
BRANCH   1  17
ATOM     17  O   UNL     1      46.942   6.000  12.098  0.00  0.00    +0.000 OA
BRANCH  17  21
ATOM     18  C   UNL     1      47.894   4.962  15.904  0.00  0.00    +0.000 A 
ATOM     19  C   UNL     1      47.126   4.099  15.128  0.00  0.00    +0.000 A 
ATOM     20  N   UNL     1      46.797   4.366  13.833  0.00  0.00    +0.000 NA
ATOM     21  C   UNL     1      47.279   5.536  13.355  0.00  0.00    +0.000 A 
ATOM     22  C   UNL     1      48.080   6.380  14.123  0.00  0.00    +0.000 A 
ATOM     23  N   UNL     1      48.404   6.125  15.415  0.00  0.00    +0.000 NA
BRANCH  18  25
ATOM     24  N   UNL     1      47.231   3.822  17.942  0.00  0.00    +0.000 N 
ATOM     25  C   UNL     1      48.136   4.657  17.344  0.00  0.00    +0.000 C 
ATOM     26  O   UNL     1      49.098   5.108  17.948  0.00  0.00    +0.000 OA
ATOM     27  H   UNL     1      47.378   3.542  18.902  0.00  0.00    +0.000 HD
ATOM     28  H   UNL     1      46.469   3.425  17.405  0.00  0.00    +0.000 HD
ENDBRANCH  18  25
ENDBRANCH  17  21
ENDBRANCH   1  17
TORSDOF 5
ENDMDL
MODEL 5
REMARK VINA RESULT:    -7.611      3.063      7.219
REMARK INTER + INTRA:          -9.694
REMARK INTER:                  -9.227
REMARK INTRA:                  -0.467
REMARK UNBOUND:                 0.142
REMARK  Name = 
REMARK  5 active torsions:
REMARK  status: ('A' for Active; 'I' for Inactive)
REMARK    1  A    between atoms: C_2  and  C_4
REMARK    2  A    between atoms: C_7  and  O_8
REMARK    3  A    between atoms: O_8  and  C_9
REMARK    4  A    between atoms: C_9  and  C_10
REMARK    5  A    between atoms: C_15  and  C_16
REMARK                            x       y       z     vdW  Elec       q    Type
REMARK                         _______ _______ _______ _____ _____    ______ ____
ROOT
ATOM      1  C   UNL     1      46.698   7.507  12.834  0.00  0.00    +0.000 C 
ATOM      2  C   UNL     1      46.896   8.781  12.014  0.00  0.00    +0.000 C 
ATOM      3  C   UNL     1      46.240   8.853  13.355  0.00  0.00    +0.000 C 
ENDROOT
BRANCH   1   4
ATOM      4  C   UNL     1      45.672   6.491  12.362  0.00  0.00    +0.000 A 
ATOM      5  C   UNL     1      44.400   6.401  12.946  0.00  0.00    +0.000 A 
ATOM      6  C   UNL     1      43.447   5.512  12.457  0.00  0.00    +0.000 A 
ATOM      7  C   UNL     1      43.745   4.709  11.358  0.00  0.00    +0.000 A 
ATOM      8  F   UNL     1      42.767   3.915  10.896  0.00  0.00    +0.000 F 
ATOM      9  C   UNL     1      45.002   4.738  10.734  0.00  0.00    +0.000 A 
ATOM     10  C   UNL     1      45.950   5.633  11.276  0.00  0.00    +0.000 A 
BRANCH   9  11
ATOM     11  C   UNL     1      45.325   3.902   9.555  0.00  0.00    +0.000 A 
ATOM     12  C   UNL     1      45.768   4.438   8.345  0.00  0.00    +0.000 A 
ATOM     13  C   UNL     1      46.066   3.590   7.293  0.00  0.00    +0.000 A 
ATOM     14  N   UNL     1      45.933   2.253   7.371  0.00  0.00    +0.000 NA
ATOM     15  N   UNL     1      45.497   1.704   8.527  0.00  0.00    +0.000 NA
ATOM     16  C   UNL     1      45.213   2.512   9.577  0.00  0.00    +0.000 A 
ENDBRANCH   9  11
ENDBRANCH   1   4
BRANCH   1  17
ATOM     17  O   UNL     1      47.977   6.970  13.245  0.00  0.00    +0.000 OA
BRANCH  17  21
ATOM     18  C   UNL     1      47.993   4.532  16.489  0.00  0.00    +0.000 A 
ATOM     19  C   UNL     1      47.496   4.060  15.278  0.00  0.00    +0.000 A 
ATOM     20  N   UNL     1      47.491   4.810  14.141  0.00  0.00    +0.000 NA
ATOM     21  C   UNL     1      48.012   6.052  14.277  0.00  0.00    +0.000 A 
ATOM     22  C   UNL     1      48.543   6.506  15.483  0.00  0.00    +0.000 A 
ATOM     23  N   UNL     1      48.544   5.769  16.621  0.00  0.00    +0.000 NA
BRANCH  18  25
ATOM     24  N   UNL     1      46.871   2.771  17.728  0.00  0.00    +0.000 N 
ATOM     25  C   UNL     1      47.880   3.696  17.720  0.00  0.00    +0.000 C 
ATOM     26  O   UNL     1      48.656   3.814  18.657  0.00  0.00    +0.000 OA
ATOM     27  H   UNL     1      46.783   2.144  18.516  0.00  0.00    +0.000 HD
ATOM     28  H   UNL     1      46.271   2.662  16.919  0.00  0.00    +0.000 HD
ENDBRANCH  18  25
ENDBRANCH  17  21
ENDBRANCH   1  17
TORSDOF 5
ENDMDL
MODEL 6
REMARK VINA RESULT:    -7.231      4.205      8.072
REMARK INTER + INTRA:          -9.203
REMARK INTER:                  -9.029
REMARK INTRA:                  -0.174
REMARK UNBOUND:                 0.142
REMARK  Name = 
REMARK  5 active torsions:
REMARK  status: ('A' for Active; 'I' for Inactive)
REMARK    1  A    between atoms: C_2  and  C_4
REMARK    2  A    between atoms: C_7  and  O_8
REMARK    3  A    between atoms: O_8  and  C_9
REMARK    4  A    between atoms: C_9  and  C_10
REMARK    5  A    between atoms: C_15  and  C_16
REMARK                            x       y       z     vdW  Elec       q    Type
REMARK                         _______ _______ _______ _____ _____    ______ ____
ROOT
ATOM      1  C   UNL     1      48.128   4.583  16.958  0.00  0.00    +0.000 C 
ATOM      2  C   UNL     1      47.150   4.765  18.118  0.00  0.00    +0.000 C 
ATOM      3  C   UNL     1      47.321   3.419  17.492  0.00  0.00    +0.000 C 
ENDROOT
BRANCH   1   4
ATOM      4  C   UNL     1      47.777   5.190  15.611  0.00  0.00    +0.000 A 
ATOM      5  C   UNL     1      48.568   6.188  15.023  0.00  0.00    +0.000 A 
ATOM      6  C   UNL     1      48.271   6.686  13.757  0.00  0.00    +0.000 A 
ATOM      7  C   UNL     1      47.185   6.179  13.048  0.00  0.00    +0.000 A 
ATOM      8  F   UNL     1      46.984   6.656  11.810  0.00  0.00    +0.000 F 
ATOM      9  C   UNL     1      46.343   5.190  13.582  0.00  0.00    +0.000 A 
ATOM     10  C   UNL     1      46.662   4.731  14.878  0.00  0.00    +0.000 A 
BRANCH   9  11
ATOM     11  C   UNL     1      45.195   4.631  12.831  0.00  0.00    +0.000 A 
ATOM     12  C   UNL     1      43.983   5.308  12.689  0.00  0.00    +0.000 A 
ATOM     13  C   UNL     1      42.961   4.728  11.957  0.00  0.00    +0.000 A 
ATOM     14  N   UNL     1      43.072   3.518  11.378  0.00  0.00    +0.000 NA
ATOM     15  N   UNL     1      44.232   2.835  11.505  0.00  0.00    +0.000 NA
ATOM     16  C   UNL     1      45.252   3.387  12.204  0.00  0.00    +0.000 A 
ENDBRANCH   9  11
ENDBRANCH   1   4
BRANCH   1  17
ATOM     17  O   UNL     1      49.487   4.788  17.410  0.00  0.00    +0.000 OA
BRANCH  17  21
ATOM     18  C   UNL     1      52.162   1.745  17.635  0.00  0.00    +0.000 A 
ATOM     19  C   UNL     1      50.941   1.540  17.001  0.00  0.00    +0.000 A 
ATOM     20  N   UNL     1      50.010   2.524  16.858  0.00  0.00    +0.000 NA
ATOM     21  C   UNL     1      50.366   3.722  17.377  0.00  0.00    +0.000 A 
ATOM     22  C   UNL     1      51.605   3.933  17.978  0.00  0.00    +0.000 A 
ATOM     23  N   UNL     1      52.534   2.956  18.131  0.00  0.00    +0.000 NA
BRANCH  18  25
ATOM     24  N   UNL     1      52.568  -0.501  18.461  0.00  0.00    +0.000 N 
ATOM     25  C   UNL     1      53.097   0.601  17.845  0.00  0.00    +0.000 C 
ATOM     26  O   UNL     1      54.259   0.636  17.469  0.00  0.00    +0.000 OA
ATOM     27  H   UNL     1      53.144  -1.323  18.581  0.00  0.00    +0.000 HD
ATOM     28  H   UNL     1      51.589  -0.522  18.721  0.00  0.00    +0.000 HD
ENDBRANCH  18  25
ENDBRANCH  17  21
ENDBRANCH   1  17
TORSDOF 5
ENDMDL
MODEL 7
REMARK VINA RESULT:    -7.168      3.629      7.845
REMARK INTER + INTRA:          -9.122
REMARK INTER:                  -8.236
REMARK INTRA:                  -0.886
REMARK UNBOUND:                 0.142
REMARK  Name = 
REMARK  5 active torsions:
REMARK  status: ('A' for Active; 'I' for Inactive)
REMARK    1  A    between atoms: C_2  and  C_4
REMARK    2  A    between atoms: C_7  and  O_8
REMARK    3  A    between atoms: O_8  and  C_9
REMARK    4  A    between atoms: C_9  and  C_10
REMARK    5  A    between atoms: C_15  and  C_16
REMARK                            x       y       z     vdW  Elec       q    Type
REMARK                         _______ _______ _______ _____ _____    ______ ____
ROOT
ATOM      1  C   UNL     1      48.850   8.376  12.670  0.00  0.00    +0.000 C 
ATOM      2  C   UNL     1      49.668   9.071  11.583  0.00  0.00    +0.000 C 
ATOM      3  C   UNL     1      49.255   9.829  12.803  0.00  0.00    +0.000 C 
ENDROOT
BRANCH   1   4
ATOM      4  C   UNL     1      47.404   8.020  12.374  0.00  0.00    +0.000 A 
ATOM      5  C   UNL     1      46.348   8.879  12.712  0.00  0.00    +0.000 A 
ATOM      6  C   UNL     1      45.033   8.570  12.372  0.00  0.00    +0.000 A 
ATOM      7  C   UNL     1      44.755   7.401  11.669  0.00  0.00    +0.000 A 
ATOM      8  F   UNL     1      43.477   7.186  11.318  0.00  0.00    +0.000 F 
ATOM      9  C   UNL     1      45.761   6.489  11.310  0.00  0.00    +0.000 A 
ATOM     10  C   UNL     1      47.077   6.826  11.697  0.00  0.00    +0.000 A 
BRANCH   9  11
ATOM     11  C   UNL     1      45.478   5.251  10.548  0.00  0.00    +0.000 A 
ATOM     12  C   UNL     1      45.710   5.139   9.176  0.00  0.00    +0.000 A 
ATOM     13  C   UNL     1      45.436   3.943   8.535  0.00  0.00    +0.000 A 
ATOM     14  N   UNL     1      44.934   2.869   9.174  0.00  0.00    +0.000 NA
ATOM     15  N   UNL     1      44.691   2.951  10.501  0.00  0.00    +0.000 NA
ATOM     16  C   UNL     1      44.964   4.106  11.155  0.00  0.00    +0.000 A 
ENDBRANCH   9  11
ENDBRANCH   1   4
BRANCH   1  17
ATOM     17  O   UNL     1      49.637   7.344  13.310  0.00  0.00    +0.000 OA
BRANCH  17  21
ATOM     18  C   UNL     1      48.595   6.536  17.147  0.00  0.00    +0.000 A 
ATOM     19  C   UNL     1      48.243   5.645  16.138  0.00  0.00    +0.000 A 
ATOM     20  N   UNL     1      48.589   5.834  14.834  0.00  0.00    +0.000 NA
ATOM     21  C   UNL     1      49.306   6.956  14.594  0.00  0.00    +0.000 A 
ATOM     22  C   UNL     1      49.689   7.825  15.613  0.00  0.00    +0.000 A 
ATOM     23  N   UNL     1      49.342   7.648  16.912  0.00  0.00    +0.000 NA
BRANCH  18  25
ATOM     24  N   UNL     1      46.811   5.881  18.658  0.00  0.00    +0.000 N 
ATOM     25  C   UNL     1      48.101   6.321  18.539  0.00  0.00    +0.000 C 
ATOM     26  O   UNL     1      48.814   6.505  19.514  0.00  0.00    +0.000 OA
ATOM     27  H   UNL     1      46.444   5.670  19.576  0.00  0.00    +0.000 HD
ATOM     28  H   UNL     1      46.257   5.691  17.831  0.00  0.00    +0.000 HD
ENDBRANCH  18  25
ENDBRANCH  17  21
ENDBRANCH   1  17
TORSDOF 5
ENDMDL
MODEL 8
REMARK VINA RESULT:    -7.114      2.993      4.795
REMARK INTER + INTRA:          -9.051
REMARK INTER:                  -8.421
REMARK INTRA:                  -0.630
REMARK UNBOUND:                 0.142
REMARK  Name = 
REMARK  5 active torsions:
REMARK  status: ('A' for Active; 'I' for Inactive)
REMARK    1  A    between atoms: C_2  and  C_4
REMARK    2  A    between atoms: C_7  and  O_8
REMARK    3  A    between atoms: O_8  and  C_9
REMARK    4  A    between atoms: C_9  and  C_10
REMARK    5  A    between atoms: C_15  and  C_16
REMARK                            x       y       z     vdW  Elec       q    Type
REMARK                         _______ _______ _______ _____ _____    ______ ____
ROOT
ATOM      1  C   UNL     1      48.072   7.937  12.549  0.00  0.00    +0.000 C 
ATOM      2  C   UNL     1      48.963   8.875  11.735  0.00  0.00    +0.000 C 
ATOM      3  C   UNL     1      49.087   7.395  11.564  0.00  0.00    +0.000 C 
ENDROOT
BRANCH   1   4
ATOM      4  C   UNL     1      48.325   7.809  14.040  0.00  0.00    +0.000 A 
ATOM      5  C   UNL     1      48.537   8.932  14.852  0.00  0.00    +0.000 A 
ATOM      6  C   UNL     1      48.699   8.803  16.229  0.00  0.00    +0.000 A 
ATOM      7  C   UNL     1      48.632   7.544  16.821  0.00  0.00    +0.000 A 
ATOM      8  F   UNL     1      48.736   7.489  18.158  0.00  0.00    +0.000 F 
ATOM      9  C   UNL     1      48.436   6.376  16.067  0.00  0.00    +0.000 A 
ATOM     10  C   UNL     1      48.303   6.547  14.672  0.00  0.00    +0.000 A 
BRANCH   9  11
ATOM     11  C   UNL     1      48.347   5.034  16.688  0.00  0.00    +0.000 A 
ATOM     12  C   UNL     1      49.451   4.379  17.236  0.00  0.00    +0.000 A 
ATOM     13  C   UNL     1      49.285   3.133  17.814  0.00  0.00    +0.000 A 
ATOM     14  N   UNL     1      48.097   2.501  17.862  0.00  0.00    +0.000 NA
ATOM     15  N   UNL     1      47.011   3.106  17.331  0.00  0.00    +0.000 NA
ATOM     16  C   UNL     1      47.144   4.333  16.772  0.00  0.00    +0.000 A 
ENDBRANCH   9  11
ENDBRANCH   1   4
BRANCH   1  17
ATOM     17  O   UNL     1      46.689   8.089  12.151  0.00  0.00    +0.000 OA
BRANCH  17  21
ATOM     18  C   UNL     1      44.647   4.624  11.611  0.00  0.00    +0.000 A 
ATOM     19  C   UNL     1      44.547   5.298  12.825  0.00  0.00    +0.000 A 
ATOM     20  N   UNL     1      45.176   6.482  13.064  0.00  0.00    +0.000 NA
ATOM     21  C   UNL     1      45.905   6.958  12.028  0.00  0.00    +0.000 A 
ATOM     22  C   UNL     1      45.972   6.299  10.802  0.00  0.00    +0.000 A 
ATOM     23  N   UNL     1      45.356   5.116  10.558  0.00  0.00    +0.000 NA
BRANCH  18  25
ATOM     24  N   UNL     1      43.794   2.576  12.598  0.00  0.00    +0.000 N 
ATOM     25  C   UNL     1      44.014   3.283  11.447  0.00  0.00    +0.000 C 
ATOM     26  O   UNL     1      43.689   2.851  10.351  0.00  0.00    +0.000 OA
ATOM     27  H   UNL     1      43.321   1.685  12.547  0.00  0.00    +0.000 HD
ATOM     28  H   UNL     1      44.030   2.978  13.498  0.00  0.00    +0.000 HD
ENDBRANCH  18  25
ENDBRANCH  17  21
ENDBRANCH   1  17
TORSDOF 5
ENDMDL
MODEL 9
REMARK VINA RESULT:    -6.514      4.077      6.546
REMARK INTER + INTRA:          -8.277
REMARK INTER:                  -8.304
REMARK INTRA:                   0.027
REMARK UNBOUND:                 0.142
REMARK  Name = 
REMARK  5 active torsions:
REMARK  status: ('A' for Active; 'I' for Inactive)
REMARK    1  A    between atoms: C_2  and  C_4
REMARK    2  A    between atoms: C_7  and  O_8
REMARK    3  A    between atoms: O_8  and  C_9
REMARK    4  A    between atoms: C_9  and  C_10
REMARK    5  A    between atoms: C_15  and  C_16
REMARK                            x       y       z     vdW  Elec       q    Type
REMARK                         _______ _______ _______ _____ _____    ______ ____
ROOT
ATOM      1  C   UNL     1      49.224   7.472  15.290  0.00  0.00    +0.000 C 
ATOM      2  C   UNL     1      48.528   8.831  15.357  0.00  0.00    +0.000 C 
ATOM      3  C   UNL     1      50.020   8.760  15.317  0.00  0.00    +0.000 C 
ENDROOT
BRANCH   1   4
ATOM      4  C   UNL     1      49.193   6.579  16.517  0.00  0.00    +0.000 A 
ATOM      5  C   UNL     1      48.273   6.784  17.556  0.00  0.00    +0.000 A 
ATOM      6  C   UNL     1      48.210   5.915  18.642  0.00  0.00    +0.000 A 
ATOM      7  C   UNL     1      49.059   4.812  18.698  0.00  0.00    +0.000 A 
ATOM      8  F   UNL     1      48.912   3.978  19.740  0.00  0.00    +0.000 F 
ATOM      9  C   UNL     1      50.012   4.553  17.700  0.00  0.00    +0.000 A 
ATOM     10  C   UNL     1      50.062   5.472  16.630  0.00  0.00    +0.000 A 
BRANCH   9  11
ATOM     11  C   UNL     1      50.907   3.374  17.741  0.00  0.00    +0.000 A 
ATOM     12  C   UNL     1      52.207   3.428  18.248  0.00  0.00    +0.000 A 
ATOM     13  C   UNL     1      52.978   2.279  18.268  0.00  0.00    +0.000 A 
ATOM     14  N   UNL     1      52.538   1.095  17.802  0.00  0.00    +0.000 NA
ATOM     15  N   UNL     1      51.287   1.014  17.297  0.00  0.00    +0.000 NA
ATOM     16  C   UNL     1      50.507   2.121  17.280  0.00  0.00    +0.000 A 
ENDBRANCH   9  11
ENDBRANCH   1   4
BRANCH   1  17
ATOM     17  O   UNL     1      48.940   6.824  14.027  0.00  0.00    +0.000 OA
BRANCH  17  21
ATOM     18  C   UNL     1      45.410   4.958  13.304  0.00  0.00    +0.000 A 
ATOM     19  C   UNL     1      46.427   4.272  13.961  0.00  0.00    +0.000 A 
ATOM     20  N   UNL     1      47.624   4.846  14.267  0.00  0.00    +0.000 NA
ATOM     21  C   UNL     1      47.748   6.138  13.887  0.00  0.00    +0.000 A 
ATOM     22  C   UNL     1      46.713   6.833  13.264  0.00  0.00    +0.000 A 
ATOM     23  N   UNL     1      45.522   6.267  12.948  0.00  0.00    +0.000 NA
BRANCH  18  25
ATOM     24  N   UNL     1      44.304   2.929  12.560  0.00  0.00    +0.000 N 
ATOM     25  C   UNL     1      44.160   4.245  12.911  0.00  0.00    +0.000 C 
ATOM     26  O   UNL     1      43.069   4.795  12.923  0.00  0.00    +0.000 OA
ATOM     27  H   UNL     1      43.482   2.386  12.335  0.00  0.00    +0.000 HD
ATOM     28  H   UNL     1      45.213   2.485  12.603  0.00  0.00    +0.000 HD
ENDBRANCH  18  25
ENDBRANCH  17  21
ENDBRANCH   1  17
TORSDOF 5
ENDMDL
