MODEL 1
REMARK VINA RESULT:    -8.202      0.000      0.000
REMARK INTER + INTRA:         -10.130
REMARK INTER:                  -9.640
REMARK INTRA:                  -0.490
REMARK UNBOUND:                -0.490
REMARK  Name = 
REMARK  3 active torsions:
REMARK  status: ('A' for Active; 'I' for Inactive)
REMARK    1  A    between atoms: C_4  and  C_5
REMARK    2  A    between atoms: N_10  and  C_11
REMARK    3  A    between atoms: C_11  and  C_12
REMARK                            x       y       z     vdW  Elec       q    Type
REMARK                         _______ _______ _______ _____ _____    ______ ____
ROOT
ATOM      1  C   UNL     1      45.662   4.528  12.670  0.00  0.00    +0.000 A 
ATOM      2  N   UNL     1      44.727   3.686  13.114  0.00  0.00    +0.000 NA
ATOM      3  C   UNL     1      43.912   3.249  12.166  0.00  0.00    +0.000 A 
ATOM      4  N   UNL     1      43.976   3.545  10.872  0.00  0.00    +0.000 NA
ATOM      5  C   UNL     1      44.947   4.390  10.531  0.00  0.00    +0.000 A 
ATOM      6  N   UNL     1      45.129   4.735   9.198  0.00  0.00    +0.000 N 
ATOM      7  N   UNL     1      45.788   4.924  11.400  0.00  0.00    +0.000 NA
ATOM      8  H   UNL     1      44.759   5.669   9.059  0.00  0.00    +0.000 HD
ENDROOT
BRANCH   1  12
ATOM      9  C   UNL     1      48.429   6.059  15.586  0.00  0.00    +0.000 A 
ATOM     10  C   UNL     1      48.274   6.717  14.370  0.00  0.00    +0.000 A 
ATOM     11  C   UNL     1      47.389   6.215  13.412  0.00  0.00    +0.000 A 
ATOM     12  C   UNL     1      46.635   5.050  13.650  0.00  0.00    +0.000 A 
ATOM     13  C   UNL     1      46.829   4.400  14.884  0.00  0.00    +0.000 A 
ATOM     14  C   UNL     1      47.714   4.894  15.841  0.00  0.00    +0.000 A 
ENDBRANCH   1  12
BRANCH   6  15
ATOM     15  C   UNL     1      44.630   3.759   8.248  0.00  0.00    +0.000 C 
BRANCH  15  16
ATOM     16  C   UNL     1      45.786   2.936   7.732  0.00  0.00    +0.000 A 
ATOM     17  C   UNL     1      45.985   1.628   8.191  0.00  0.00    +0.000 A 
ATOM     18  C   UNL     1      47.026   0.885   7.660  0.00  0.00    +0.000 A 
ATOM     19  N   UNL     1      47.871   1.348   6.712  0.00  0.00    +0.000 NA
ATOM     20  C   UNL     1      47.666   2.611   6.285  0.00  0.00    +0.000 A 
ATOM     21  C   UNL     1      46.653   3.433   6.757  0.00  0.00    +0.000 A 
ENDBRANCH  15  16
ENDBRANCH   6  15
TORSDOF 3
ENDMDL
MODEL 2
REMARK VINA RESULT:    -7.862      1.792      2.320
REMARK INTER + INTRA:          -9.731
REMARK INTER:                  -9.254
REMARK INTRA:                  -0.477
REMARK UNBOUND:                -0.490
REMARK  Name = 
REMARK  3 active torsions:
REMARK  status: ('A' for Active; 'I' for Inactive)
REMARK    1  A    between atoms: C_4  and  C_5
REMARK    2  A    between atoms: N_10  and  C_11
REMARK    3  A    between atoms: C_11  and  C_12
REMARK                            x       y       z     vdW  Elec       q    Type
REMARK                         _______ _______ _______ _____ _____    ______ ____
ROOT
ATOM      1  C   UNL     1      46.358   6.204  11.845  0.00  0.00    +0.000 A 
ATOM      2  N   UNL     1      45.964   5.436  12.862  0.00  0.00    +0.000 NA
ATOM      3  C   UNL     1      45.160   4.448  12.501  0.00  0.00    +0.000 A 
ATOM      4  N   UNL     1      44.766   4.162  11.263  0.00  0.00    +0.000 NA
ATOM      5  C   UNL     1      45.218   4.986  10.321  0.00  0.00    +0.000 A 
ATOM      6  N   UNL     1      44.901   4.755   8.988  0.00  0.00    +0.000 N 
ATOM      7  N   UNL     1      45.988   6.031  10.573  0.00  0.00    +0.000 NA
ATOM      8  H   UNL     1      44.182   5.415   8.714  0.00  0.00    +0.000 HD
ENDROOT
BRANCH   1  12
ATOM      9  C   UNL     1      48.975   9.512  12.690  0.00  0.00    +0.000 A 
ATOM     10  C   UNL     1      49.369   8.536  11.781  0.00  0.00    +0.000 A 
ATOM     11  C   UNL     1      48.529   7.450  11.515  0.00  0.00    +0.000 A 
ATOM     12  C   UNL     1      47.278   7.319  12.145  0.00  0.00    +0.000 A 
ATOM     13  C   UNL     1      46.919   8.316  13.072  0.00  0.00    +0.000 A 
ATOM     14  C   UNL     1      47.753   9.398  13.344  0.00  0.00    +0.000 A 
ENDBRANCH   1  12
BRANCH   6  15
ATOM     15  C   UNL     1      44.582   3.375   8.674  0.00  0.00    +0.000 C 
BRANCH  15  16
ATOM     16  C   UNL     1      45.785   2.722   8.039  0.00  0.00    +0.000 A 
ATOM     17  C   UNL     1      46.020   1.351   8.209  0.00  0.00    +0.000 A 
ATOM     18  C   UNL     1      47.107   0.775   7.572  0.00  0.00    +0.000 A 
ATOM     19  N   UNL     1      47.964   1.461   6.784  0.00  0.00    +0.000 NA
ATOM     20  C   UNL     1      47.725   2.780   6.635  0.00  0.00    +0.000 A 
ATOM     21  C   UNL     1      46.665   3.447   7.232  0.00  0.00    +0.000 A 
ENDBRANCH  15  16
ENDBRANCH   6  15
TORSDOF 3
ENDMDL
MODEL 3
REMARK VINA RESULT:    -7.298      2.334      3.011
REMARK INTER + INTRA:          -9.068
REMARK INTER:                  -8.640
REMARK INTRA:                  -0.428
REMARK UNBOUND:                -0.490
REMARK  Name = 
REMARK  3 active torsions:
REMARK  status: ('A' for Active; 'I' for Inactive)
REMARK    1  A    between atoms: C_4  and  C_5
REMARK    2  A    between atoms: N_10  and  C_11
REMARK    3  A    between atoms: C_11  and  C_12
REMARK                            x       y       z     vdW  Elec       q    Type
REMARK                         _______ _______ _______ _____ _____    ______ ____
ROOT
ATOM      1  C   UNL     1      44.463   5.991  11.757  0.00  0.00    +0.000 A 
ATOM      2  N   UNL     1      44.257   5.283  12.869  0.00  0.00    +0.000 NA
ATOM      3  C   UNL     1      43.978   4.008  12.643  0.00  0.00    +0.000 A 
ATOM      4  N   UNL     1      43.925   3.410  11.457  0.00  0.00    +0.000 NA
ATOM      5  C   UNL     1      44.150   4.202  10.412  0.00  0.00    +0.000 A 
ATOM      6  N   UNL     1      44.159   3.671   9.128  0.00  0.00    +0.000 N 
ATOM      7  N   UNL     1      44.391   5.498  10.518  0.00  0.00    +0.000 NA
ATOM      8  H   UNL     1      43.287   3.922   8.675  0.00  0.00    +0.000 HD
ENDROOT
BRANCH   1  12
ATOM      9  C   UNL     1      45.484  10.155  12.107  0.00  0.00    +0.000 A 
ATOM     10  C   UNL     1      46.150   9.213  12.885  0.00  0.00    +0.000 A 
ATOM     11  C   UNL     1      45.811   7.861  12.788  0.00  0.00    +0.000 A 
ATOM     12  C   UNL     1      44.806   7.419  11.908  0.00  0.00    +0.000 A 
ATOM     13  C   UNL     1      44.140   8.400  11.149  0.00  0.00    +0.000 A 
ATOM     14  C   UNL     1      44.471   9.750  11.245  0.00  0.00    +0.000 A 
ENDBRANCH   1  12
BRANCH   6  15
ATOM     15  C   UNL     1      44.467   2.255   9.063  0.00  0.00    +0.000 C 
BRANCH  15  16
ATOM     16  C   UNL     1      45.723   2.060   8.248  0.00  0.00    +0.000 A 
ATOM     17  C   UNL     1      46.253   0.777   8.060  0.00  0.00    +0.000 A 
ATOM     18  C   UNL     1      47.379   0.629   7.266  0.00  0.00    +0.000 A 
ATOM     19  N   UNL     1      48.004   1.658   6.652  0.00  0.00    +0.000 NA
ATOM     20  C   UNL     1      47.482   2.887   6.849  0.00  0.00    +0.000 A 
ATOM     21  C   UNL     1      46.361   3.136   7.627  0.00  0.00    +0.000 A 
ENDBRANCH  15  16
ENDBRANCH   6  15
TORSDOF 3
ENDMDL
MODEL 4
REMARK VINA RESULT:    -7.227      1.395      6.856
REMARK INTER + INTRA:          -8.985
REMARK INTER:                  -8.571
REMARK INTRA:                  -0.413
REMARK UNBOUND:                -0.490
REMARK  Name = 
REMARK  3 active torsions:
REMARK  status: ('A' for Active; 'I' for Inactive)
REMARK    1  A    between atoms: C_4  and  C_5
REMARK    2  A    between atoms: N_10  and  C_11
REMARK    3  A    between atoms: C_11  and  C_12
REMARK                            x       y       z     vdW  Elec       q    Type
REMARK                         _______ _______ _______ _____ _____    ______ ____
ROOT
ATOM      1  C   UNL     1      45.186   3.349   9.148  0.00  0.00    +0.000 A 
ATOM      2  N   UNL     1      44.250   4.261   8.881  0.00  0.00    +0.000 NA
ATOM      3  C   UNL     1      43.647   4.736   9.959  0.00  0.00    +0.000 A 
ATOM      4  N   UNL     1      43.915   4.412  11.221  0.00  0.00    +0.000 NA
ATOM      5  C   UNL     1      44.869   3.497  11.380  0.00  0.00    +0.000 A 
ATOM      6  N   UNL     1      45.257   3.116  12.658  0.00  0.00    +0.000 N 
ATOM      7  N   UNL     1      45.504   2.922  10.373  0.00  0.00    +0.000 NA
ATOM      8  H   UNL     1      44.851   2.208  12.855  0.00  0.00    +0.000 HD
ENDROOT
BRANCH   1  12
ATOM      9  C   UNL     1      47.434   1.676   5.885  0.00  0.00    +0.000 A 
ATOM     10  C   UNL     1      46.950   2.977   5.793  0.00  0.00    +0.000 A 
ATOM     11  C   UNL     1      46.205   3.520   6.844  0.00  0.00    +0.000 A 
ATOM     12  C   UNL     1      45.933   2.779   8.009  0.00  0.00    +0.000 A 
ATOM     13  C   UNL     1      46.422   1.460   8.060  0.00  0.00    +0.000 A 
ATOM     14  C   UNL     1      47.162   0.912   7.014  0.00  0.00    +0.000 A 
ENDBRANCH   1  12
BRANCH   6  15
ATOM     15  C   UNL     1      45.003   4.106  13.687  0.00  0.00    +0.000 C 
BRANCH  15  16
ATOM     16  C   UNL     1      46.297   4.801  14.036  0.00  0.00    +0.000 A 
ATOM     17  C   UNL     1      46.818   5.793  13.195  0.00  0.00    +0.000 A 
ATOM     18  C   UNL     1      47.982   6.443  13.570  0.00  0.00    +0.000 A 
ATOM     19  N   UNL     1      48.653   6.179  14.713  0.00  0.00    +0.000 NA
ATOM     20  C   UNL     1      48.139   5.217  15.508  0.00  0.00    +0.000 A 
ATOM     21  C   UNL     1      46.982   4.510  15.217  0.00  0.00    +0.000 A 
ENDBRANCH  15  16
ENDBRANCH   6  15
TORSDOF 3
ENDMDL
MODEL 5
REMARK VINA RESULT:    -7.081      3.167      7.214
REMARK INTER + INTRA:          -8.813
REMARK INTER:                  -8.467
REMARK INTRA:                  -0.346
REMARK UNBOUND:                -0.490
REMARK  Name = 
REMARK  3 active torsions:
REMARK  status: ('A' for Active; 'I' for Inactive)
REMARK    1  A    between atoms: C_4  and  C_5
REMARK    2  A    between atoms: N_10  and  C_11
REMARK    3  A    between atoms: C_11  and  C_12
REMARK                            x       y       z     vdW  Elec       q    Type
REMARK                         _______ _______ _______ _____ _____    ______ ____
ROOT
ATOM      1  C   UNL     1      45.211   3.429   9.196  0.00  0.00    +0.000 A 
ATOM      2  N   UNL     1      44.297   2.695   9.833  0.00  0.00    +0.000 NA
ATOM      3  C   UNL     1      43.696   3.336  10.824  0.00  0.00    +0.000 A 
ATOM      4  N   UNL     1      43.902   4.598  11.187  0.00  0.00    +0.000 NA
ATOM      5  C   UNL     1      44.831   5.245  10.486  0.00  0.00    +0.000 A 
ATOM      6  N   UNL     1      45.097   6.581  10.755  0.00  0.00    +0.000 N 
ATOM      7  N   UNL     1      45.526   4.689   9.507  0.00  0.00    +0.000 NA
ATOM      8  H   UNL     1      45.966   6.633  11.275  0.00  0.00    +0.000 HD
ENDROOT
BRANCH   1  12
ATOM      9  C   UNL     1      47.343   1.605   5.936  0.00  0.00    +0.000 A 
ATOM     10  C   UNL     1      46.896   2.917   5.819  0.00  0.00    +0.000 A 
ATOM     11  C   UNL     1      46.188   3.509   6.869  0.00  0.00    +0.000 A 
ATOM     12  C   UNL     1      45.918   2.807   8.059  0.00  0.00    +0.000 A 
ATOM     13  C   UNL     1      46.370   1.476   8.136  0.00  0.00    +0.000 A 
ATOM     14  C   UNL     1      47.072   0.879   7.091  0.00  0.00    +0.000 A 
ENDBRANCH   1  12
BRANCH   6  15
ATOM     15  C   UNL     1      44.001   7.303  11.374  0.00  0.00    +0.000 C 
BRANCH  15  16
ATOM     16  C   UNL     1      44.320   8.778  11.377  0.00  0.00    +0.000 A 
ATOM     17  C   UNL     1      45.518   9.243  11.936  0.00  0.00    +0.000 A 
ATOM     18  C   UNL     1      45.800  10.598  11.878  0.00  0.00    +0.000 A 
ATOM     19  N   UNL     1      44.983  11.511  11.307  0.00  0.00    +0.000 NA
ATOM     20  C   UNL     1      43.832  11.045  10.779  0.00  0.00    +0.000 A 
ATOM     21  C   UNL     1      43.461   9.709  10.789  0.00  0.00    +0.000 A 
ENDBRANCH  15  16
ENDBRANCH   6  15
TORSDOF 3
ENDMDL
MODEL 6
REMARK VINA RESULT:    -6.778      2.047      3.876
REMARK INTER + INTRA:          -8.456
REMARK INTER:                  -8.114
REMARK INTRA:                  -0.342
REMARK UNBOUND:                -0.490
REMARK  Name = 
REMARK  3 active torsions:
REMARK  status: ('A' for Active; 'I' for Inactive)
REMARK    1  A    between atoms: C_4  and  C_5
REMARK    2  A    between atoms: N_10  and  C_11
REMARK    3  A    between atoms: C_11  and  C_12
REMARK                            x       y       z     vdW  Elec       q    Type
REMARK                         _______ _______ _______ _____ _____    ______ ____
ROOT
ATOM      1  C   UNL     1      47.510   4.937  15.197  0.00  0.00    +0.000 A 
ATOM      2  N   UNL     1      48.153   5.931  14.582  0.00  0.00    +0.000 NA
ATOM      3  C   UNL     1      47.718   6.166  13.353  0.00  0.00    +0.000 A 
ATOM      4  N   UNL     1      46.721   5.540  12.736  0.00  0.00    +0.000 NA
ATOM      5  C   UNL     1      46.141   4.569  13.437  0.00  0.00    +0.000 A 
ATOM      6  N   UNL     1      45.061   3.877  12.902  0.00  0.00    +0.000 N 
ATOM      7  N   UNL     1      46.524   4.218  14.653  0.00  0.00    +0.000 NA
ATOM      8  H   UNL     1      45.388   2.969  12.592  0.00  0.00    +0.000 HD
ENDROOT
BRANCH   1  12
ATOM      9  C   UNL     1      48.754   4.028  19.212  0.00  0.00    +0.000 A 
ATOM     10  C   UNL     1      48.167   3.038  18.431  0.00  0.00    +0.000 A 
ATOM     11  C   UNL     1      47.745   3.332  17.131  0.00  0.00    +0.000 A 
ATOM     12  C   UNL     1      47.907   4.617  16.582  0.00  0.00    +0.000 A 
ATOM     13  C   UNL     1      48.489   5.599  17.406  0.00  0.00    +0.000 A 
ATOM     14  C   UNL     1      48.907   5.313  18.704  0.00  0.00    +0.000 A 
ENDBRANCH   1  12
BRANCH   6  15
ATOM     15  C   UNL     1      44.316   4.608  11.894  0.00  0.00    +0.000 C 
BRANCH  15  16
ATOM     16  C   UNL     1      44.630   4.032  10.534  0.00  0.00    +0.000 A 
ATOM     17  C   UNL     1      45.275   4.813   9.566  0.00  0.00    +0.000 A 
ATOM     18  C   UNL     1      45.591   4.238   8.346  0.00  0.00    +0.000 A 
ATOM     19  N   UNL     1      45.315   2.953   8.029  0.00  0.00    +0.000 NA
ATOM     20  C   UNL     1      44.690   2.218   8.972  0.00  0.00    +0.000 A 
ATOM     21  C   UNL     1      44.331   2.705  10.220  0.00  0.00    +0.000 A 
ENDBRANCH  15  16
ENDBRANCH   6  15
TORSDOF 3
ENDMDL
MODEL 7
REMARK VINA RESULT:    -6.714      3.117      6.976
REMARK INTER + INTRA:          -8.381
REMARK INTER:                  -7.953
REMARK INTRA:                  -0.428
REMARK UNBOUND:                -0.490
REMARK  Name = 
REMARK  3 active torsions:
REMARK  status: ('A' for Active; 'I' for Inactive)
REMARK    1  A    between atoms: C_4  and  C_5
REMARK    2  A    between atoms: N_10  and  C_11
REMARK    3  A    between atoms: C_11  and  C_12
REMARK                            x       y       z     vdW  Elec       q    Type
REMARK                         _______ _______ _______ _____ _____    ______ ____
ROOT
ATOM      1  C   UNL     1      44.768   4.674  10.159  0.00  0.00    +0.000 A 
ATOM      2  N   UNL     1      43.440   4.745  10.264  0.00  0.00    +0.000 NA
ATOM      3  C   UNL     1      43.024   5.611  11.174  0.00  0.00    +0.000 A 
ATOM      4  N   UNL     1      43.790   6.397  11.924  0.00  0.00    +0.000 NA
ATOM      5  C   UNL     1      45.100   6.254  11.740  0.00  0.00    +0.000 A 
ATOM      6  N   UNL     1      45.991   7.055  12.444  0.00  0.00    +0.000 N 
ATOM      7  N   UNL     1      45.628   5.386  10.893  0.00  0.00    +0.000 NA
ATOM      8  H   UNL     1      46.398   6.498  13.188  0.00  0.00    +0.000 HD
ENDROOT
BRANCH   1  12
ATOM      9  C   UNL     1      46.453   1.951   7.287  0.00  0.00    +0.000 A 
ATOM     10  C   UNL     1      46.581   3.322   7.095  0.00  0.00    +0.000 A 
ATOM     11  C   UNL     1      46.021   4.213   8.016  0.00  0.00    +0.000 A 
ATOM     12  C   UNL     1      45.328   3.752   9.151  0.00  0.00    +0.000 A 
ATOM     13  C   UNL     1      45.203   2.359   9.305  0.00  0.00    +0.000 A 
ATOM     14  C   UNL     1      45.755   1.467   8.388  0.00  0.00    +0.000 A 
ENDBRANCH   1  12
BRANCH   6  15
ATOM     15  C   UNL     1      45.441   8.320  12.892  0.00  0.00    +0.000 C 
BRANCH  15  16
ATOM     16  C   UNL     1      46.195   9.448  12.232  0.00  0.00    +0.000 A 
ATOM     17  C   UNL     1      47.592   9.406  12.134  0.00  0.00    +0.000 A 
ATOM     18  C   UNL     1      48.248  10.435  11.479  0.00  0.00    +0.000 A 
ATOM     19  N   UNL     1      47.616  11.489  10.918  0.00  0.00    +0.000 NA
ATOM     20  C   UNL     1      46.271  11.516  11.026  0.00  0.00    +0.000 A 
ATOM     21  C   UNL     1      45.527  10.535  11.663  0.00  0.00    +0.000 A 
ENDBRANCH  15  16
ENDBRANCH   6  15
TORSDOF 3
ENDMDL
MODEL 8
REMARK VINA RESULT:    -5.999      3.251      8.568
REMARK INTER + INTRA:          -7.541
REMARK INTER:                  -7.238
REMARK INTRA:                  -0.302
REMARK UNBOUND:                -0.490
REMARK  Name = 
REMARK  3 active torsions:
REMARK  status: ('A' for Active; 'I' for Inactive)
REMARK    1  A    between atoms: C_4  and  C_5
REMARK    2  A    between atoms: N_10  and  C_11
REMARK    3  A    between atoms: C_11  and  C_12
REMARK                            x       y       z     vdW  Elec       q    Type
REMARK                         _______ _______ _______ _____ _____    ______ ____
ROOT
ATOM      1  C   UNL     1      46.374   4.870  13.238  0.00  0.00    +0.000 A 
ATOM      2  N   UNL     1      47.216   5.880  13.013  0.00  0.00    +0.000 NA
ATOM      3  C   UNL     1      48.000   6.158  14.043  0.00  0.00    +0.000 A 
ATOM      4  N   UNL     1      48.031   5.518  15.207  0.00  0.00    +0.000 NA
ATOM      5  C   UNL     1      47.155   4.522  15.329  0.00  0.00    +0.000 A 
ATOM      6  N   UNL     1      47.130   3.760  16.491  0.00  0.00    +0.000 N 
ATOM      7  N   UNL     1      46.293   4.189  14.384  0.00  0.00    +0.000 NA
ATOM      8  H   UNL     1      46.332   4.052  17.044  0.00  0.00    +0.000 HD
ENDROOT
BRANCH   1  12
ATOM      9  C   UNL     1      43.796   3.620  10.030  0.00  0.00    +0.000 A 
ATOM     10  C   UNL     1      44.603   4.741   9.869  0.00  0.00    +0.000 A 
ATOM     11  C   UNL     1      45.431   5.162  10.914  0.00  0.00    +0.000 A 
ATOM     12  C   UNL     1      45.475   4.469  12.138  0.00  0.00    +0.000 A 
ATOM     13  C   UNL     1      44.632   3.349  12.272  0.00  0.00    +0.000 A 
ATOM     14  C   UNL     1      43.802   2.928  11.235  0.00  0.00    +0.000 A 
ENDBRANCH   1  12
BRANCH   6  15
ATOM     15  C   UNL     1      48.379   3.741  17.227  0.00  0.00    +0.000 C 
BRANCH  15  16
ATOM     16  C   UNL     1      48.180   4.427  18.557  0.00  0.00    +0.000 A 
ATOM     17  C   UNL     1      48.903   4.014  19.684  0.00  0.00    +0.000 A 
ATOM     18  C   UNL     1      48.731   4.698  20.876  0.00  0.00    +0.000 A 
ATOM     19  N   UNL     1      47.901   5.754  21.021  0.00  0.00    +0.000 NA
ATOM     20  C   UNL     1      47.209   6.135  19.927  0.00  0.00    +0.000 A 
ATOM     21  C   UNL     1      47.312   5.513  18.691  0.00  0.00    +0.000 A 
ENDBRANCH  15  16
ENDBRANCH   6  15
TORSDOF 3
ENDMDL
MODEL 9
REMARK VINA RESULT:    -5.817      2.631      7.934
REMARK INTER + INTRA:          -7.327
REMARK INTER:                  -6.986
REMARK INTRA:                  -0.341
REMARK UNBOUND:                -0.490
REMARK  Name = 
REMARK  3 active torsions:
REMARK  status: ('A' for Active; 'I' for Inactive)
REMARK    1  A    between atoms: C_4  and  C_5
REMARK    2  A    between atoms: N_10  and  C_11
REMARK    3  A    between atoms: C_11  and  C_12
REMARK                            x       y       z     vdW  Elec       q    Type
REMARK                         _______ _______ _______ _____ _____    ______ ____
ROOT
ATOM      1  C   UNL     1      45.996   5.494  11.680  0.00  0.00    +0.000 A 
ATOM      2  N   UNL     1      46.160   6.783  11.377  0.00  0.00    +0.000 NA
ATOM      3  C   UNL     1      46.655   7.504  12.371  0.00  0.00    +0.000 A 
ATOM      4  N   UNL     1      47.013   7.054  13.570  0.00  0.00    +0.000 NA
ATOM      5  C   UNL     1      46.813   5.754  13.770  0.00  0.00    +0.000 A 
ATOM      6  N   UNL     1      47.189   5.172  14.975  0.00  0.00    +0.000 N 
ATOM      7  N   UNL     1      46.281   4.949  12.866  0.00  0.00    +0.000 NA
ATOM      8  H   UNL     1      46.353   5.019  15.528  0.00  0.00    +0.000 HD
ENDROOT
BRANCH   1  12
ATOM      9  C   UNL     1      44.521   2.833   8.639  0.00  0.00    +0.000 A 
ATOM     10  C   UNL     1      45.156   4.015   8.272  0.00  0.00    +0.000 A 
ATOM     11  C   UNL     1      45.622   4.892   9.256  0.00  0.00    +0.000 A 
ATOM     12  C   UNL     1      45.471   4.604  10.625  0.00  0.00    +0.000 A 
ATOM     13  C   UNL     1      44.809   3.407  10.961  0.00  0.00    +0.000 A 
ATOM     14  C   UNL     1      44.338   2.532   9.984  0.00  0.00    +0.000 A 
ENDBRANCH   1  12
BRANCH   6  15
ATOM     15  C   UNL     1      48.240   5.876  15.684  0.00  0.00    +0.000 C 
BRANCH  15  16
ATOM     16  C   UNL     1      48.397   5.276  17.059  0.00  0.00    +0.000 A 
ATOM     17  C   UNL     1      48.126   6.040  18.202  0.00  0.00    +0.000 A 
ATOM     18  C   UNL     1      48.234   5.442  19.447  0.00  0.00    +0.000 A 
ATOM     19  N   UNL     1      48.585   4.150  19.630  0.00  0.00    +0.000 NA
ATOM     20  C   UNL     1      48.847   3.431  18.519  0.00  0.00    +0.000 A 
ATOM     21  C   UNL     1      48.768   3.941  17.231  0.00  0.00    +0.000 A 
ENDBRANCH  15  16
ENDBRANCH   6  15
TORSDOF 3
ENDMDL
