MODEL 1
REMARK VINA RESULT:    -6.526      0.000      0.000
REMARK INTER + INTRA:          -8.328
REMARK INTER:                  -8.052
REMARK INTRA:                  -0.275
REMARK UNBOUND:                -0.275
REMARK  Name = 
REMARK  4 active torsions:
REMARK  status: ('A' for Active; 'I' for Inactive)
REMARK    1  A    between atoms: C_1  and  C_14
REMARK    2  A    between atoms: C_2  and  C_3
REMARK    3  A    between atoms: C_7  and  N_8
REMARK    4  A    between atoms: N_8  and  C_9
REMARK                            x       y       z     vdW  Elec       q    Type
REMARK                         _______ _______ _______ _____ _____    ______ ____
ROOT
ATOM      1  C   UNL     1      45.040   4.855  12.769  0.00  0.00    +0.000 A 
ATOM      2  C   UNL     1      43.694   5.037  13.055  0.00  0.00    +0.000 A 
ATOM      3  C   UNL     1      42.822   5.203  11.989  0.00  0.00    +0.000 A 
ATOM      4  C   UNL     1      43.327   5.148  10.694  0.00  0.00    +0.000 A 
ATOM      5  C   UNL     1      44.694   4.956  10.493  0.00  0.00    +0.000 A 
ATOM      6  N   UNL     1      45.557   4.819  11.518  0.00  0.00    +0.000 NA
ENDROOT
BRANCH   1   8
ATOM      7  C   UNL     1      46.761   4.565  14.740  0.00  0.00    +0.000 C 
ATOM      8  C   UNL     1      45.991   4.712  13.833  0.00  0.00    +0.000 C 
BRANCH   7   9
ATOM      9  C   UNL     1      47.667   4.381  15.834  0.00  0.00    +0.000 A 
ATOM     10  C   UNL     1      48.370   5.467  16.350  0.00  0.00    +0.000 A 
ATOM     11  C   UNL     1      49.235   5.240  17.406  0.00  0.00    +0.000 A 
ATOM     12  N   UNL     1      49.435   4.027  17.967  0.00  0.00    +0.000 NA
ATOM     13  C   UNL     1      48.736   2.994  17.448  0.00  0.00    +0.000 A 
ATOM     14  C   UNL     1      47.847   3.118  16.393  0.00  0.00    +0.000 A 
ENDBRANCH   7   9
ENDBRANCH   1   8
BRANCH   5  15
ATOM     15  N   UNL     1      45.151   4.890   9.157  0.00  0.00    +0.000 N 
ATOM     16  H   UNL     1      44.829   5.726   8.672  0.00  0.00    +0.000 HD
BRANCH  15  17
ATOM     17  C   UNL     1      45.052   3.699   8.361  0.00  0.00    +0.000 C 
ATOM     18  C   UNL     1      45.291   2.406   9.176  0.00  0.00    +0.000 C 
ATOM     19  N   UNL     1      46.081   1.874   8.039  0.00  0.00    +0.000 NA
ATOM     20  C   UNL     1      46.315   3.275   7.591  0.00  0.00    +0.000 C 
ATOM     21  H   UNL     1      45.512   1.338   7.381  0.00  0.00    +0.000 HD
ENDBRANCH  15  17
ENDBRANCH   5  15
TORSDOF 4
ENDMDL
MODEL 2
REMARK VINA RESULT:    -6.149      2.909      3.337
REMARK INTER + INTRA:          -7.862
REMARK INTER:                  -7.648
REMARK INTRA:                  -0.214
REMARK UNBOUND:                -0.275
REMARK  Name = 
REMARK  4 active torsions:
REMARK  status: ('A' for Active; 'I' for Inactive)
REMARK    1  A    between atoms: C_1  and  C_14
REMARK    2  A    between atoms: C_2  and  C_3
REMARK    3  A    between atoms: C_7  and  N_8
REMARK    4  A    between atoms: N_8  and  C_9
REMARK                            x       y       z     vdW  Elec       q    Type
REMARK                         _______ _______ _______ _____ _____    ______ ____
ROOT
ATOM      1  C   UNL     1      45.612   5.397  11.884  0.00  0.00    +0.000 A 
ATOM      2  C   UNL     1      44.723   4.966  12.859  0.00  0.00    +0.000 A 
ATOM      3  C   UNL     1      43.560   4.335  12.443  0.00  0.00    +0.000 A 
ATOM      4  C   UNL     1      43.355   4.137  11.080  0.00  0.00    +0.000 A 
ATOM      5  C   UNL     1      44.302   4.597  10.165  0.00  0.00    +0.000 A 
ATOM      6  N   UNL     1      45.424   5.235  10.553  0.00  0.00    +0.000 NA
ENDROOT
BRANCH   1   8
ATOM      7  C   UNL     1      47.838   6.624  12.567  0.00  0.00    +0.000 C 
ATOM      8  C   UNL     1      46.813   6.085  12.257  0.00  0.00    +0.000 C 
BRANCH   7   9
ATOM      9  C   UNL     1      49.071   7.251  12.941  0.00  0.00    +0.000 A 
ATOM     10  C   UNL     1      49.877   7.841  11.972  0.00  0.00    +0.000 A 
ATOM     11  C   UNL     1      51.059   8.434  12.381  0.00  0.00    +0.000 A 
ATOM     12  N   UNL     1      51.473   8.476  13.667  0.00  0.00    +0.000 NA
ATOM     13  C   UNL     1      50.668   7.900  14.584  0.00  0.00    +0.000 A 
ATOM     14  C   UNL     1      49.467   7.281  14.275  0.00  0.00    +0.000 A 
ENDBRANCH   7   9
ENDBRANCH   1   8
BRANCH   5  15
ATOM     15  N   UNL     1      44.052   4.354   8.795  0.00  0.00    +0.000 N 
ATOM     16  H   UNL     1      43.058   4.493   8.626  0.00  0.00    +0.000 HD
BRANCH  15  17
ATOM     17  C   UNL     1      44.592   3.221   8.098  0.00  0.00    +0.000 C 
ATOM     18  C   UNL     1      45.259   2.192   9.041  0.00  0.00    +0.000 C 
ATOM     19  N   UNL     1      46.348   2.034   8.047  0.00  0.00    +0.000 NA
ATOM     20  C   UNL     1      46.006   3.380   7.509  0.00  0.00    +0.000 C 
ATOM     21  H   UNL     1      46.166   1.283   7.379  0.00  0.00    +0.000 HD
ENDBRANCH  15  17
ENDBRANCH   5  15
TORSDOF 4
ENDMDL
MODEL 3
REMARK VINA RESULT:    -5.588      2.100      7.992
REMARK INTER + INTRA:          -7.170
REMARK INTER:                  -6.832
REMARK INTRA:                  -0.338
REMARK UNBOUND:                -0.275
REMARK  Name = 
REMARK  4 active torsions:
REMARK  status: ('A' for Active; 'I' for Inactive)
REMARK    1  A    between atoms: C_1  and  C_14
REMARK    2  A    between atoms: C_2  and  C_3
REMARK    3  A    between atoms: C_7  and  N_8
REMARK    4  A    between atoms: N_8  and  C_9
REMARK                            x       y       z     vdW  Elec       q    Type
REMARK                         _______ _______ _______ _____ _____    ______ ____
ROOT
ATOM      1  C   UNL     1      48.236   6.255  14.394  0.00  0.00    +0.000 A 
ATOM      2  C   UNL     1      48.986   7.340  13.962  0.00  0.00    +0.000 A 
ATOM      3  C   UNL     1      49.945   7.849  14.825  0.00  0.00    +0.000 A 
ATOM      4  C   UNL     1      50.131   7.235  16.060  0.00  0.00    +0.000 A 
ATOM      5  C   UNL     1      49.337   6.144  16.415  0.00  0.00    +0.000 A 
ATOM      6  N   UNL     1      48.384   5.655  15.598  0.00  0.00    +0.000 NA
ENDROOT
BRANCH   1   8
ATOM      7  C   UNL     1      46.357   5.215  12.872  0.00  0.00    +0.000 C 
ATOM      8  C   UNL     1      47.208   5.710  13.557  0.00  0.00    +0.000 C 
BRANCH   7   9
ATOM      9  C   UNL     1      45.347   4.609  12.058  0.00  0.00    +0.000 A 
ATOM     10  C   UNL     1      45.173   5.019  10.738  0.00  0.00    +0.000 A 
ATOM     11  C   UNL     1      44.184   4.404   9.990  0.00  0.00    +0.000 A 
ATOM     12  N   UNL     1      43.380   3.427  10.465  0.00  0.00    +0.000 NA
ATOM     13  C   UNL     1      43.575   3.047  11.746  0.00  0.00    +0.000 A 
ATOM     14  C   UNL     1      44.537   3.601  12.575  0.00  0.00    +0.000 A 
ENDBRANCH   7   9
ENDBRANCH   1   8
BRANCH   5  15
ATOM     15  N   UNL     1      49.580   5.547  17.673  0.00  0.00    +0.000 N 
ATOM     16  H   UNL     1      50.463   5.043  17.619  0.00  0.00    +0.000 HD
BRANCH  15  17
ATOM     17  C   UNL     1      48.567   4.839  18.404  0.00  0.00    +0.000 C 
ATOM     18  C   UNL     1      48.909   4.673  19.904  0.00  0.00    +0.000 C 
ATOM     19  N   UNL     1      48.388   3.286  19.836  0.00  0.00    +0.000 NA
ATOM     20  C   UNL     1      48.636   3.301  18.367  0.00  0.00    +0.000 C 
ATOM     21  H   UNL     1      47.396   3.226  20.069  0.00  0.00    +0.000 HD
ENDBRANCH  15  17
ENDBRANCH   5  15
TORSDOF 4
ENDMDL
MODEL 4
REMARK VINA RESULT:    -5.551      2.220      8.261
REMARK INTER + INTRA:          -7.125
REMARK INTER:                  -6.808
REMARK INTRA:                  -0.317
REMARK UNBOUND:                -0.275
REMARK  Name = 
REMARK  4 active torsions:
REMARK  status: ('A' for Active; 'I' for Inactive)
REMARK    1  A    between atoms: C_1  and  C_14
REMARK    2  A    between atoms: C_2  and  C_3
REMARK    3  A    between atoms: C_7  and  N_8
REMARK    4  A    between atoms: N_8  and  C_9
REMARK                            x       y       z     vdW  Elec       q    Type
REMARK                         _______ _______ _______ _____ _____    ______ ____
ROOT
ATOM      1  C   UNL     1      47.776   4.288  16.489  0.00  0.00    +0.000 A 
ATOM      2  C   UNL     1      47.361   5.142  17.502  0.00  0.00    +0.000 A 
ATOM      3  C   UNL     1      47.940   4.992  18.753  0.00  0.00    +0.000 A 
ATOM      4  C   UNL     1      48.925   4.024  18.925  0.00  0.00    +0.000 A 
ATOM      5  C   UNL     1      49.288   3.210  17.852  0.00  0.00    +0.000 A 
ATOM      6  N   UNL     1      48.715   3.325  16.638  0.00  0.00    +0.000 NA
ENDROOT
BRANCH   1   8
ATOM      7  C   UNL     1      46.663   4.473  14.111  0.00  0.00    +0.000 C 
ATOM      8  C   UNL     1      47.186   4.376  15.185  0.00  0.00    +0.000 C 
BRANCH   7   9
ATOM      9  C   UNL     1      46.023   4.595  12.835  0.00  0.00    +0.000 A 
ATOM     10  C   UNL     1      45.294   3.529  12.313  0.00  0.00    +0.000 A 
ATOM     11  C   UNL     1      44.694   3.693  11.077  0.00  0.00    +0.000 A 
ATOM     12  N   UNL     1      44.772   4.830  10.349  0.00  0.00    +0.000 NA
ATOM     13  C   UNL     1      45.480   5.847  10.883  0.00  0.00    +0.000 A 
ATOM     14  C   UNL     1      46.117   5.781  12.112  0.00  0.00    +0.000 A 
ENDBRANCH   7   9
ENDBRANCH   1   8
BRANCH   5  15
ATOM     15  N   UNL     1      50.305   2.255  18.078  0.00  0.00    +0.000 N 
ATOM     16  H   UNL     1      50.338   2.058  19.077  0.00  0.00    +0.000 HD
BRANCH  15  17
ATOM     17  C   UNL     1      51.606   2.350  17.476  0.00  0.00    +0.000 C 
ATOM     18  C   UNL     1      52.392   1.018  17.524  0.00  0.00    +0.000 C 
ATOM     19  N   UNL     1      53.614   1.790  17.860  0.00  0.00    +0.000 NA
ATOM     20  C   UNL     1      52.742   2.885  18.366  0.00  0.00    +0.000 C 
ATOM     21  H   UNL     1      54.148   2.060  17.032  0.00  0.00    +0.000 HD
ENDBRANCH  15  17
ENDBRANCH   5  15
TORSDOF 4
ENDMDL
MODEL 5
REMARK VINA RESULT:    -5.442      2.315      8.113
REMARK INTER + INTRA:          -6.990
REMARK INTER:                  -6.655
REMARK INTRA:                  -0.335
REMARK UNBOUND:                -0.275
REMARK  Name = 
REMARK  4 active torsions:
REMARK  status: ('A' for Active; 'I' for Inactive)
REMARK    1  A    between atoms: C_1  and  C_14
REMARK    2  A    between atoms: C_2  and  C_3
REMARK    3  A    between atoms: C_7  and  N_8
REMARK    4  A    between atoms: N_8  and  C_9
REMARK                            x       y       z     vdW  Elec       q    Type
REMARK                         _______ _______ _______ _____ _____    ______ ____
ROOT
ATOM      1  C   UNL     1      48.443   6.413  14.410  0.00  0.00    +0.000 A 
ATOM      2  C   UNL     1      49.348   7.325  13.886  0.00  0.00    +0.000 A 
ATOM      3  C   UNL     1      50.444   7.671  14.664  0.00  0.00    +0.000 A 
ATOM      4  C   UNL     1      50.600   7.067  15.908  0.00  0.00    +0.000 A 
ATOM      5  C   UNL     1      49.645   6.155  16.358  0.00  0.00    +0.000 A 
ATOM      6  N   UNL     1      48.563   5.829  15.625  0.00  0.00    +0.000 NA
ENDROOT
BRANCH   1   8
ATOM      7  C   UNL     1      46.279   5.773  13.053  0.00  0.00    +0.000 C 
ATOM      8  C   UNL     1      47.275   6.046  13.663  0.00  0.00    +0.000 C 
BRANCH   7   9
ATOM      9  C   UNL     1      45.081   5.459  12.335  0.00  0.00    +0.000 A 
ATOM     10  C   UNL     1      43.841   5.572  12.960  0.00  0.00    +0.000 A 
ATOM     11  C   UNL     1      42.711   5.257  12.226  0.00  0.00    +0.000 A 
ATOM     12  N   UNL     1      42.741   4.850  10.938  0.00  0.00    +0.000 NA
ATOM     13  C   UNL     1      43.956   4.754  10.357  0.00  0.00    +0.000 A 
ATOM     14  C   UNL     1      45.144   5.046  11.007  0.00  0.00    +0.000 A 
ENDBRANCH   7   9
ENDBRANCH   1   8
BRANCH   5  15
ATOM     15  N   UNL     1      49.862   5.559  17.621  0.00  0.00    +0.000 N 
ATOM     16  H   UNL     1      50.690   4.969  17.555  0.00  0.00    +0.000 HD
BRANCH  15  17
ATOM     17  C   UNL     1      48.805   4.966  18.391  0.00  0.00    +0.000 C 
ATOM     18  C   UNL     1      49.196   4.724  19.869  0.00  0.00    +0.000 C 
ATOM     19  N   UNL     1      48.502   3.415  19.804  0.00  0.00    +0.000 NA
ATOM     20  C   UNL     1      48.677   3.433  18.325  0.00  0.00    +0.000 C 
ATOM     21  H   UNL     1      47.522   3.475  20.087  0.00  0.00    +0.000 HD
ENDBRANCH  15  17
ENDBRANCH   5  15
TORSDOF 4
ENDMDL
MODEL 6
REMARK VINA RESULT:    -5.331      2.300      3.443
REMARK INTER + INTRA:          -6.853
REMARK INTER:                  -6.519
REMARK INTRA:                  -0.333
REMARK UNBOUND:                -0.275
REMARK  Name = 
REMARK  4 active torsions:
REMARK  status: ('A' for Active; 'I' for Inactive)
REMARK    1  A    between atoms: C_1  and  C_14
REMARK    2  A    between atoms: C_2  and  C_3
REMARK    3  A    between atoms: C_7  and  N_8
REMARK    4  A    between atoms: N_8  and  C_9
REMARK                            x       y       z     vdW  Elec       q    Type
REMARK                         _______ _______ _______ _____ _____    ______ ____
ROOT
ATOM      1  C   UNL     1      47.665   6.173  13.819  0.00  0.00    +0.000 A 
ATOM      2  C   UNL     1      48.348   7.091  13.034  0.00  0.00    +0.000 A 
ATOM      3  C   UNL     1      47.894   7.303  11.741  0.00  0.00    +0.000 A 
ATOM      4  C   UNL     1      46.766   6.615  11.305  0.00  0.00    +0.000 A 
ATOM      5  C   UNL     1      46.133   5.712  12.160  0.00  0.00    +0.000 A 
ATOM      6  N   UNL     1      46.579   5.477  13.410  0.00  0.00    +0.000 NA
ENDROOT
BRANCH   1   8
ATOM      7  C   UNL     1      48.444   5.650  16.279  0.00  0.00    +0.000 C 
ATOM      8  C   UNL     1      48.111   5.890  15.152  0.00  0.00    +0.000 C 
BRANCH   7   9
ATOM      9  C   UNL     1      48.825   5.368  17.630  0.00  0.00    +0.000 A 
ATOM     10  C   UNL     1      50.135   4.997  17.925  0.00  0.00    +0.000 A 
ATOM     11  C   UNL     1      50.455   4.733  19.245  0.00  0.00    +0.000 A 
ATOM     12  N   UNL     1      49.572   4.818  20.264  0.00  0.00    +0.000 NA
ATOM     13  C   UNL     1      48.312   5.185  19.949  0.00  0.00    +0.000 A 
ATOM     14  C   UNL     1      47.893   5.469  18.659  0.00  0.00    +0.000 A 
ENDBRANCH   7   9
ENDBRANCH   1   8
BRANCH   5  15
ATOM     15  N   UNL     1      44.981   5.054  11.673  0.00  0.00    +0.000 N 
ATOM     16  H   UNL     1      44.168   5.611  11.927  0.00  0.00    +0.000 HD
BRANCH  15  17
ATOM     17  C   UNL     1      44.771   3.642  11.827  0.00  0.00    +0.000 C 
ATOM     18  C   UNL     1      44.040   3.005  10.621  0.00  0.00    +0.000 C 
ATOM     19  N   UNL     1      43.245   2.193  11.574  0.00  0.00    +0.000 NA
ATOM     20  C   UNL     1      43.527   3.210  12.624  0.00  0.00    +0.000 C 
ATOM     21  H   UNL     1      43.674   1.288  11.774  0.00  0.00    +0.000 HD
ENDBRANCH  15  17
ENDBRANCH   5  15
TORSDOF 4
ENDMDL
MODEL 7
REMARK VINA RESULT:    -5.321      2.012      8.122
REMARK INTER + INTRA:          -6.841
REMARK INTER:                  -6.634
REMARK INTRA:                  -0.207
REMARK UNBOUND:                -0.275
REMARK  Name = 
REMARK  4 active torsions:
REMARK  status: ('A' for Active; 'I' for Inactive)
REMARK    1  A    between atoms: C_1  and  C_14
REMARK    2  A    between atoms: C_2  and  C_3
REMARK    3  A    between atoms: C_7  and  N_8
REMARK    4  A    between atoms: N_8  and  C_9
REMARK                            x       y       z     vdW  Elec       q    Type
REMARK                         _______ _______ _______ _____ _____    ______ ____
ROOT
ATOM      1  C   UNL     1      47.668   4.232  15.688  0.00  0.00    +0.000 A 
ATOM      2  C   UNL     1      47.902   2.992  16.267  0.00  0.00    +0.000 A 
ATOM      3  C   UNL     1      48.828   2.923  17.298  0.00  0.00    +0.000 A 
ATOM      4  C   UNL     1      49.449   4.094  17.722  0.00  0.00    +0.000 A 
ATOM      5  C   UNL     1      49.152   5.302  17.089  0.00  0.00    +0.000 A 
ATOM      6  N   UNL     1      48.275   5.380  16.070  0.00  0.00    +0.000 NA
ENDROOT
BRANCH   1   8
ATOM      7  C   UNL     1      45.975   4.501  13.690  0.00  0.00    +0.000 C 
ATOM      8  C   UNL     1      46.746   4.356  14.597  0.00  0.00    +0.000 C 
BRANCH   7   9
ATOM      9  C   UNL     1      45.050   4.691  12.613  0.00  0.00    +0.000 A 
ATOM     10  C   UNL     1      44.299   5.861  12.535  0.00  0.00    +0.000 A 
ATOM     11  C   UNL     1      43.417   6.000  11.477  0.00  0.00    +0.000 A 
ATOM     12  N   UNL     1      43.247   5.067  10.514  0.00  0.00    +0.000 NA
ATOM     13  C   UNL     1      43.992   3.946  10.614  0.00  0.00    +0.000 A 
ATOM     14  C   UNL     1      44.900   3.713  11.634  0.00  0.00    +0.000 A 
ENDBRANCH   7   9
ENDBRANCH   1   8
BRANCH   5  15
ATOM     15  N   UNL     1      49.798   6.463  17.572  0.00  0.00    +0.000 N 
ATOM     16  H   UNL     1      50.719   6.193  17.914  0.00  0.00    +0.000 HD
BRANCH  15  17
ATOM     17  C   UNL     1      49.140   7.423  18.413  0.00  0.00    +0.000 C 
ATOM     18  C   UNL     1      47.774   6.927  18.942  0.00  0.00    +0.000 C 
ATOM     19  N   UNL     1      47.224   8.283  18.700  0.00  0.00    +0.000 NA
ATOM     20  C   UNL     1      48.308   8.508  17.704  0.00  0.00    +0.000 C 
ATOM     21  H   UNL     1      47.305   8.892  19.516  0.00  0.00    +0.000 HD
ENDBRANCH  15  17
ENDBRANCH   5  15
TORSDOF 4
ENDMDL
MODEL 8
REMARK VINA RESULT:    -5.212      5.077      5.744
REMARK INTER + INTRA:          -6.706
REMARK INTER:                  -6.392
REMARK INTRA:                  -0.313
REMARK UNBOUND:                -0.275
REMARK  Name = 
REMARK  4 active torsions:
REMARK  status: ('A' for Active; 'I' for Inactive)
REMARK    1  A    between atoms: C_1  and  C_14
REMARK    2  A    between atoms: C_2  and  C_3
REMARK    3  A    between atoms: C_7  and  N_8
REMARK    4  A    between atoms: N_8  and  C_9
REMARK                            x       y       z     vdW  Elec       q    Type
REMARK                         _______ _______ _______ _____ _____    ______ ____
ROOT
ATOM      1  C   UNL     1      47.525   7.558  11.901  0.00  0.00    +0.000 A 
ATOM      2  C   UNL     1      46.877   8.418  12.777  0.00  0.00    +0.000 A 
ATOM      3  C   UNL     1      45.512   8.252  12.958  0.00  0.00    +0.000 A 
ATOM      4  C   UNL     1      44.868   7.218  12.285  0.00  0.00    +0.000 A 
ATOM      5  C   UNL     1      45.594   6.393  11.426  0.00  0.00    +0.000 A 
ATOM      6  N   UNL     1      46.915   6.560  11.220  0.00  0.00    +0.000 NA
ENDROOT
BRANCH   1   8
ATOM      7  C   UNL     1      50.103   7.793  11.421  0.00  0.00    +0.000 C 
ATOM      8  C   UNL     1      48.929   7.706  11.650  0.00  0.00    +0.000 C 
BRANCH   7   9
ATOM      9  C   UNL     1      51.505   7.879  11.144  0.00  0.00    +0.000 A 
ATOM     10  C   UNL     1      52.035   7.251  10.020  0.00  0.00    +0.000 A 
ATOM     11  C   UNL     1      53.397   7.360   9.794  0.00  0.00    +0.000 A 
ATOM     12  N   UNL     1      54.239   8.044  10.598  0.00  0.00    +0.000 NA
ATOM     13  C   UNL     1      53.696   8.647  11.678  0.00  0.00    +0.000 A 
ATOM     14  C   UNL     1      52.347   8.595  11.990  0.00  0.00    +0.000 A 
ENDBRANCH   7   9
ENDBRANCH   1   8
BRANCH   5  15
ATOM     15  N   UNL     1      44.893   5.349  10.782  0.00  0.00    +0.000 N 
ATOM     16  H   UNL     1      44.024   5.732  10.413  0.00  0.00    +0.000 HD
BRANCH  15  17
ATOM     17  C   UNL     1      44.735   4.046  11.364  0.00  0.00    +0.000 C 
ATOM     18  C   UNL     1      44.282   2.978  10.341  0.00  0.00    +0.000 C 
ATOM     19  N   UNL     1      43.366   2.428  11.369  0.00  0.00    +0.000 NA
ATOM     20  C   UNL     1      43.388   3.753  12.049  0.00  0.00    +0.000 C 
ATOM     21  H   UNL     1      43.799   1.690  11.927  0.00  0.00    +0.000 HD
ENDBRANCH  15  17
ENDBRANCH   5  15
TORSDOF 4
ENDMDL
MODEL 9
REMARK VINA RESULT:    -4.752      3.328      7.856
REMARK INTER + INTRA:          -6.138
REMARK INTER:                  -5.792
REMARK INTRA:                  -0.346
REMARK UNBOUND:                -0.275
REMARK  Name = 
REMARK  4 active torsions:
REMARK  status: ('A' for Active; 'I' for Inactive)
REMARK    1  A    between atoms: C_1  and  C_14
REMARK    2  A    between atoms: C_2  and  C_3
REMARK    3  A    between atoms: C_7  and  N_8
REMARK    4  A    between atoms: N_8  and  C_9
REMARK                            x       y       z     vdW  Elec       q    Type
REMARK                         _______ _______ _______ _____ _____    ______ ____
ROOT
ATOM      1  C   UNL     1      48.575   7.153  12.538  0.00  0.00    +0.000 A 
ATOM      2  C   UNL     1      49.018   8.074  11.600  0.00  0.00    +0.000 A 
ATOM      3  C   UNL     1      50.148   8.818  11.905  0.00  0.00    +0.000 A 
ATOM      4  C   UNL     1      50.797   8.586  13.113  0.00  0.00    +0.000 A 
ATOM      5  C   UNL     1      50.289   7.637  14.001  0.00  0.00    +0.000 A 
ATOM      6  N   UNL     1      49.177   6.925  13.729  0.00  0.00    +0.000 NA
ENDROOT
BRANCH   1   8
ATOM      7  C   UNL     1      46.381   5.769  12.086  0.00  0.00    +0.000 C 
ATOM      8  C   UNL     1      47.392   6.380  12.290  0.00  0.00    +0.000 C 
BRANCH   7   9
ATOM      9  C   UNL     1      45.164   5.053  11.850  0.00  0.00    +0.000 A 
ATOM     10  C   UNL     1      43.937   5.705  11.957  0.00  0.00    +0.000 A 
ATOM     11  C   UNL     1      42.787   4.971  11.720  0.00  0.00    +0.000 A 
ATOM     12  N   UNL     1      42.787   3.661  11.389  0.00  0.00    +0.000 NA
ATOM     13  C   UNL     1      43.991   3.058  11.288  0.00  0.00    +0.000 A 
ATOM     14  C   UNL     1      45.196   3.705  11.505  0.00  0.00    +0.000 A 
ENDBRANCH   7   9
ENDBRANCH   1   8
BRANCH   5  15
ATOM     15  N   UNL     1      50.997   7.430  15.206  0.00  0.00    +0.000 N 
ATOM     16  H   UNL     1      51.841   6.901  14.989  0.00  0.00    +0.000 HD
BRANCH  15  17
ATOM     17  C   UNL     1      50.357   7.004  16.419  0.00  0.00    +0.000 C 
ATOM     18  C   UNL     1      51.097   7.480  17.691  0.00  0.00    +0.000 C 
ATOM     19  N   UNL     1      50.846   6.149  18.296  0.00  0.00    +0.000 NA
ATOM     20  C   UNL     1      50.701   5.591  16.923  0.00  0.00    +0.000 C 
ATOM     21  H   UNL     1      49.976   6.117  18.829  0.00  0.00    +0.000 HD
ENDBRANCH  15  17
ENDBRANCH   5  15
TORSDOF 4
ENDMDL
