MODEL 1
REMARK VINA RESULT:    -8.146      0.000      0.000
REMARK INTER + INTRA:         -11.416
REMARK INTER:                 -10.528
REMARK INTRA:                  -0.889
REMARK UNBOUND:                -0.889
REMARK  Name = 
REMARK  6 active torsions:
REMARK  status: ('A' for Active; 'I' for Inactive)
REMARK    1  A    between atoms: C_1  and  O_2
REMARK    2  A    between atoms: O_2  and  C_3
REMARK    3  A    between atoms: N_8  and  C_9
REMARK    4  A    between atoms: C_9  and  C_10
REMARK    5  A    between atoms: C_13  and  C_14
REMARK    6  A    between atoms: C_14  and  C_15
REMARK                            x       y       z     vdW  Elec       q    Type
REMARK                         _______ _______ _______ _____ _____    ______ ____
ROOT
ATOM      1  C   UNL     1      43.882   4.748  10.289  0.00  0.00    +0.000 C 
ENDROOT
BRANCH   1   7
ATOM      2  C   UNL     1      47.907   6.292  13.355  0.00  0.00    +0.000 A 
ATOM      3  C   UNL     1      47.016   5.409  13.986  0.00  0.00    +0.000 A 
ATOM      4  C   UNL     1      45.881   4.955  13.292  0.00  0.00    +0.000 A 
ATOM      5  N   UNL     1      44.889   4.100  13.701  0.00  0.00    +0.000 NA
ATOM      6  C   UNL     1      44.079   3.990  12.673  0.00  0.00    +0.000 A 
ATOM      7  N   UNL     1      44.510   4.730  11.604  0.00  0.00    +0.000 N 
ATOM      8  C   UNL     1      45.659   5.384  11.984  0.00  0.00    +0.000 A 
ATOM      9  C   UNL     1      46.516   6.279  11.338  0.00  0.00    +0.000 A 
ATOM     10  C   UNL     1      47.639   6.716  12.049  0.00  0.00    +0.000 A 
ATOM     11  F   UNL     1      48.458   7.564  11.409  0.00  0.00    +0.000 F 
BRANCH   2  13
ATOM     12  C   UNL     1      48.760   6.764  15.529  0.00  0.00    +0.000 C 
ATOM     13  O   UNL     1      48.981   6.649  14.129  0.00  0.00    +0.000 OA
ENDBRANCH   2  13
ENDBRANCH   1   7
BRANCH   1  14
ATOM     14  C   UNL     1      44.570   3.798   9.352  0.00  0.00    +0.000 A 
ATOM     15  C   UNL     1      44.457   2.412   9.486  0.00  0.00    +0.000 A 
ATOM     16  C   UNL     1      45.272   1.573   8.729  0.00  0.00    +0.000 A 
ATOM     17  C   UNL     1      46.182   2.144   7.843  0.00  0.00    +0.000 A 
ATOM     18  N   UNL     1      46.236   3.480   7.627  0.00  0.00    +0.000 NA
ATOM     19  C   UNL     1      45.423   4.269   8.363  0.00  0.00    +0.000 A 
BRANCH  17  20
ATOM     20  C   UNL     1      47.220   1.296   7.149  0.00  0.00    +0.000 C 
BRANCH  20  21
ATOM     21  C   UNL     1      48.035   2.039   6.111  0.00  0.00    +0.000 C 
ATOM     22  N   UNL     1      48.943   2.959   6.545  0.00  0.00    +0.000 N 
ATOM     23  O   UNL     1      47.859   1.884   4.905  0.00  0.00    +0.000 OA
ATOM     24  H   UNL     1      49.002   3.223   7.525  0.00  0.00    +0.000 HD
ATOM     25  H   UNL     1      49.437   3.507   5.857  0.00  0.00    +0.000 HD
ENDBRANCH  20  21
ENDBRANCH  17  20
ENDBRANCH   1  14
TORSDOF 5
ENDMDL
MODEL 2
REMARK VINA RESULT:    -7.841      1.670      2.052
REMARK INTER + INTRA:         -11.022
REMARK INTER:                 -10.276
REMARK INTRA:                  -0.746
REMARK UNBOUND:                -0.889
REMARK  Name = 
REMARK  6 active torsions:
REMARK  status: ('A' for Active; 'I' for Inactive)
REMARK    1  A    between atoms: C_1  and  O_2
REMARK    2  A    between atoms: O_2  and  C_3
REMARK    3  A    between atoms: N_8  and  C_9
REMARK    4  A    between atoms: C_9  and  C_10
REMARK    5  A    between atoms: C_13  and  C_14
REMARK    6  A    between atoms: C_14  and  C_15
REMARK                            x       y       z     vdW  Elec       q    Type
REMARK                         _______ _______ _______ _____ _____    ______ ____
ROOT
ATOM      1  C   UNL     1      43.648   5.004  10.799  0.00  0.00    +0.000 C 
ENDROOT
BRANCH   1   7
ATOM      2  C   UNL     1      47.583   5.370  14.316  0.00  0.00    +0.000 A 
ATOM      3  C   UNL     1      47.212   6.599  13.746  0.00  0.00    +0.000 A 
ATOM      4  C   UNL     1      46.205   6.633  12.766  0.00  0.00    +0.000 A 
ATOM      5  N   UNL     1      45.685   7.702  12.083  0.00  0.00    +0.000 NA
ATOM      6  C   UNL     1      44.758   7.198  11.301  0.00  0.00    +0.000 A 
ATOM      7  N   UNL     1      44.644   5.842  11.456  0.00  0.00    +0.000 N 
ATOM      8  C   UNL     1      45.584   5.446  12.378  0.00  0.00    +0.000 A 
ATOM      9  C   UNL     1      45.946   4.207  12.912  0.00  0.00    +0.000 A 
ATOM     10  C   UNL     1      46.950   4.198  13.886  0.00  0.00    +0.000 A 
ATOM     11  F   UNL     1      47.277   3.001  14.398  0.00  0.00    +0.000 F 
BRANCH   2  13
ATOM     12  C   UNL     1      48.175   5.271  16.622  0.00  0.00    +0.000 C 
ATOM     13  O   UNL     1      48.564   5.470  15.269  0.00  0.00    +0.000 OA
ENDBRANCH   2  13
ENDBRANCH   1   7
BRANCH   1  14
ATOM     14  C   UNL     1      44.296   4.071   9.816  0.00  0.00    +0.000 A 
ATOM     15  C   UNL     1      44.189   2.682   9.931  0.00  0.00    +0.000 A 
ATOM     16  C   UNL     1      44.970   1.858   9.125  0.00  0.00    +0.000 A 
ATOM     17  C   UNL     1      45.841   2.445   8.211  0.00  0.00    +0.000 A 
ATOM     18  N   UNL     1      45.886   3.785   8.016  0.00  0.00    +0.000 NA
ATOM     19  C   UNL     1      45.105   4.560   8.800  0.00  0.00    +0.000 A 
BRANCH  17  20
ATOM     20  C   UNL     1      46.848   1.611   7.458  0.00  0.00    +0.000 C 
BRANCH  20  21
ATOM     21  C   UNL     1      47.474   2.314   6.272  0.00  0.00    +0.000 C 
ATOM     22  N   UNL     1      48.755   2.768   6.398  0.00  0.00    +0.000 N 
ATOM     23  O   UNL     1      46.850   2.541   5.239  0.00  0.00    +0.000 OA
ATOM     24  H   UNL     1      49.243   2.736   7.288  0.00  0.00    +0.000 HD
ATOM     25  H   UNL     1      49.152   3.299   5.637  0.00  0.00    +0.000 HD
ENDBRANCH  20  21
ENDBRANCH  17  20
ENDBRANCH   1  14
TORSDOF 5
ENDMDL
MODEL 3
REMARK VINA RESULT:    -7.706      1.671      1.831
REMARK INTER + INTRA:         -10.847
REMARK INTER:                 -10.404
REMARK INTRA:                  -0.443
REMARK UNBOUND:                -0.889
REMARK  Name = 
REMARK  6 active torsions:
REMARK  status: ('A' for Active; 'I' for Inactive)
REMARK    1  A    between atoms: C_1  and  O_2
REMARK    2  A    between atoms: O_2  and  C_3
REMARK    3  A    between atoms: N_8  and  C_9
REMARK    4  A    between atoms: C_9  and  C_10
REMARK    5  A    between atoms: C_13  and  C_14
REMARK    6  A    between atoms: C_14  and  C_15
REMARK                            x       y       z     vdW  Elec       q    Type
REMARK                         _______ _______ _______ _____ _____    ______ ____
ROOT
ATOM      1  C   UNL     1      44.283   4.137  11.852  0.00  0.00    +0.000 C 
ENDROOT
BRANCH   1   7
ATOM      2  C   UNL     1      47.449   7.952  13.698  0.00  0.00    +0.000 A 
ATOM      3  C   UNL     1      47.927   6.652  13.932  0.00  0.00    +0.000 A 
ATOM      4  C   UNL     1      47.159   5.548  13.526  0.00  0.00    +0.000 A 
ATOM      5  N   UNL     1      47.422   4.207  13.647  0.00  0.00    +0.000 NA
ATOM      6  C   UNL     1      46.398   3.600  13.092  0.00  0.00    +0.000 A 
ATOM      7  N   UNL     1      45.482   4.492  12.602  0.00  0.00    +0.000 N 
ATOM      8  C   UNL     1      45.935   5.758  12.891  0.00  0.00    +0.000 A 
ATOM      9  C   UNL     1      45.425   7.039  12.663  0.00  0.00    +0.000 A 
ATOM     10  C   UNL     1      46.208   8.122  13.075  0.00  0.00    +0.000 A 
ATOM     11  F   UNL     1      45.709   9.345  12.837  0.00  0.00    +0.000 F 
BRANCH   2  13
ATOM     12  C   UNL     1      48.380   9.162  15.527  0.00  0.00    +0.000 C 
ATOM     13  O   UNL     1      48.296   8.943  14.125  0.00  0.00    +0.000 OA
ENDBRANCH   2  13
ENDBRANCH   1   7
BRANCH   1  14
ATOM     14  C   UNL     1      44.617   3.835  10.419  0.00  0.00    +0.000 A 
ATOM     15  C   UNL     1      44.502   2.548   9.887  0.00  0.00    +0.000 A 
ATOM     16  C   UNL     1      45.015   2.273   8.621  0.00  0.00    +0.000 A 
ATOM     17  C   UNL     1      45.629   3.301   7.908  0.00  0.00    +0.000 A 
ATOM     18  N   UNL     1      45.660   4.576   8.366  0.00  0.00    +0.000 NA
ATOM     19  C   UNL     1      45.141   4.817   9.590  0.00  0.00    +0.000 A 
BRANCH  17  20
ATOM     20  C   UNL     1      46.372   3.016   6.627  0.00  0.00    +0.000 C 
BRANCH  20  21
ATOM     21  C   UNL     1      47.584   2.124   6.799  0.00  0.00    +0.000 C 
ATOM     22  N   UNL     1      48.804   2.621   6.444  0.00  0.00    +0.000 N 
ATOM     23  O   UNL     1      47.493   0.960   7.182  0.00  0.00    +0.000 OA
ATOM     24  H   UNL     1      48.894   3.520   5.979  0.00  0.00    +0.000 HD
ATOM     25  H   UNL     1      49.603   2.008   6.489  0.00  0.00    +0.000 HD
ENDBRANCH  20  21
ENDBRANCH  17  20
ENDBRANCH   1  14
TORSDOF 5
ENDMDL
MODEL 4
REMARK VINA RESULT:    -7.301      2.437      6.785
REMARK INTER + INTRA:         -10.323
REMARK INTER:                  -9.554
REMARK INTRA:                  -0.770
REMARK UNBOUND:                -0.889
REMARK  Name = 
REMARK  6 active torsions:
REMARK  status: ('A' for Active; 'I' for Inactive)
REMARK    1  A    between atoms: C_1  and  O_2
REMARK    2  A    between atoms: O_2  and  C_3
REMARK    3  A    between atoms: N_8  and  C_9
REMARK    4  A    between atoms: C_9  and  C_10
REMARK    5  A    between atoms: C_13  and  C_14
REMARK    6  A    between atoms: C_14  and  C_15
REMARK                            x       y       z     vdW  Elec       q    Type
REMARK                         _______ _______ _______ _____ _____    ______ ____
ROOT
ATOM      1  C   UNL     1      43.815   6.160  11.652  0.00  0.00    +0.000 C 
ENDROOT
BRANCH   1   7
ATOM      2  C   UNL     1      45.723   2.687   8.148  0.00  0.00    +0.000 A 
ATOM      3  C   UNL     1      44.804   2.134   9.055  0.00  0.00    +0.000 A 
ATOM      4  C   UNL     1      44.253   2.944  10.064  0.00  0.00    +0.000 A 
ATOM      5  N   UNL     1      43.348   2.626  11.045  0.00  0.00    +0.000 NA
ATOM      6  C   UNL     1      43.150   3.741  11.710  0.00  0.00    +0.000 A 
ATOM      7  N   UNL     1      43.882   4.778  11.195  0.00  0.00    +0.000 N 
ATOM      8  C   UNL     1      44.623   4.286  10.146  0.00  0.00    +0.000 A 
ATOM      9  C   UNL     1      45.550   4.858   9.271  0.00  0.00    +0.000 A 
ATOM     10  C   UNL     1      46.084   4.032   8.275  0.00  0.00    +0.000 A 
ATOM     11  F   UNL     1      46.963   4.601   7.435  0.00  0.00    +0.000 F 
BRANCH   2  13
ATOM     12  C   UNL     1      47.536   1.398   7.294  0.00  0.00    +0.000 C 
ATOM     13  O   UNL     1      46.176   1.801   7.204  0.00  0.00    +0.000 OA
ENDBRANCH   2  13
ENDBRANCH   1   7
BRANCH   1  14
ATOM     14  C   UNL     1      45.050   6.533  12.420  0.00  0.00    +0.000 A 
ATOM     15  C   UNL     1      45.656   7.784  12.288  0.00  0.00    +0.000 A 
ATOM     16  C   UNL     1      46.907   8.013  12.857  0.00  0.00    +0.000 A 
ATOM     17  C   UNL     1      47.524   6.978  13.556  0.00  0.00    +0.000 A 
ATOM     18  N   UNL     1      46.909   5.791  13.779  0.00  0.00    +0.000 NA
ATOM     19  C   UNL     1      45.689   5.604  13.230  0.00  0.00    +0.000 A 
BRANCH  17  20
ATOM     20  C   UNL     1      48.954   7.105  14.019  0.00  0.00    +0.000 C 
BRANCH  20  21
ATOM     21  C   UNL     1      49.168   6.755  15.478  0.00  0.00    +0.000 C 
ATOM     22  N   UNL     1      48.172   7.050  16.362  0.00  0.00    +0.000 N 
ATOM     23  O   UNL     1      50.223   6.279  15.890  0.00  0.00    +0.000 OA
ATOM     24  H   UNL     1      47.355   7.584  16.080  0.00  0.00    +0.000 HD
ATOM     25  H   UNL     1      48.338   6.884  17.343  0.00  0.00    +0.000 HD
ENDBRANCH  20  21
ENDBRANCH  17  20
ENDBRANCH   1  14
TORSDOF 5
ENDMDL
MODEL 5
REMARK VINA RESULT:    -7.140      2.784      7.374
REMARK INTER + INTRA:         -10.115
REMARK INTER:                  -9.538
REMARK INTRA:                  -0.577
REMARK UNBOUND:                -0.889
REMARK  Name = 
REMARK  6 active torsions:
REMARK  status: ('A' for Active; 'I' for Inactive)
REMARK    1  A    between atoms: C_1  and  O_2
REMARK    2  A    between atoms: O_2  and  C_3
REMARK    3  A    between atoms: N_8  and  C_9
REMARK    4  A    between atoms: C_9  and  C_10
REMARK    5  A    between atoms: C_13  and  C_14
REMARK    6  A    between atoms: C_14  and  C_15
REMARK                            x       y       z     vdW  Elec       q    Type
REMARK                         _______ _______ _______ _____ _____    ______ ____
ROOT
ATOM      1  C   UNL     1      44.084   3.445  10.890  0.00  0.00    +0.000 C 
ENDROOT
BRANCH   1   7
ATOM      2  C   UNL     1      47.205   1.846   6.930  0.00  0.00    +0.000 A 
ATOM      3  C   UNL     1      47.089   3.242   7.036  0.00  0.00    +0.000 A 
ATOM      4  C   UNL     1      46.255   3.795   8.023  0.00  0.00    +0.000 A 
ATOM      5  N   UNL     1      45.993   5.110   8.310  0.00  0.00    +0.000 NA
ATOM      6  C   UNL     1      45.168   5.086   9.332  0.00  0.00    +0.000 A 
ATOM      7  N   UNL     1      44.891   3.805   9.731  0.00  0.00    +0.000 N 
ATOM      8  C   UNL     1      45.560   2.950   8.888  0.00  0.00    +0.000 A 
ATOM      9  C   UNL     1      45.640   1.558   8.793  0.00  0.00    +0.000 A 
ATOM     10  C   UNL     1      46.476   1.031   7.803  0.00  0.00    +0.000 A 
ATOM     11  F   UNL     1      46.551  -0.307   7.734  0.00  0.00    +0.000 F 
BRANCH   2  13
ATOM     12  C   UNL     1      48.124   2.229   4.765  0.00  0.00    +0.000 C 
ATOM     13  O   UNL     1      48.058   1.431   5.940  0.00  0.00    +0.000 OA
ENDBRANCH   2  13
ENDBRANCH   1   7
BRANCH   1  14
ATOM     14  C   UNL     1      44.821   3.729  12.168  0.00  0.00    +0.000 A 
ATOM     15  C   UNL     1      44.630   4.911  12.887  0.00  0.00    +0.000 A 
ATOM     16  C   UNL     1      45.479   5.223  13.946  0.00  0.00    +0.000 A 
ATOM     17  C   UNL     1      46.502   4.335  14.269  0.00  0.00    +0.000 A 
ATOM     18  N   UNL     1      46.640   3.138  13.649  0.00  0.00    +0.000 NA
ATOM     19  C   UNL     1      45.793   2.855  12.636  0.00  0.00    +0.000 A 
BRANCH  17  20
ATOM     20  C   UNL     1      47.565   4.713  15.270  0.00  0.00    +0.000 C 
BRANCH  20  21
ATOM     21  C   UNL     1      47.207   4.394  16.707  0.00  0.00    +0.000 C 
ATOM     22  N   UNL     1      47.526   5.309  17.667  0.00  0.00    +0.000 N 
ATOM     23  O   UNL     1      46.702   3.323  17.035  0.00  0.00    +0.000 OA
ATOM     24  H   UNL     1      48.082   6.132  17.450  0.00  0.00    +0.000 HD
ATOM     25  H   UNL     1      47.354   5.071  18.632  0.00  0.00    +0.000 HD
ENDBRANCH  20  21
ENDBRANCH  17  20
ENDBRANCH   1  14
TORSDOF 5
ENDMDL
MODEL 6
REMARK VINA RESULT:    -7.058      1.927      2.293
REMARK INTER + INTRA:         -10.010
REMARK INTER:                  -9.776
REMARK INTRA:                  -0.234
REMARK UNBOUND:                -0.889
REMARK  Name = 
REMARK  6 active torsions:
REMARK  status: ('A' for Active; 'I' for Inactive)
REMARK    1  A    between atoms: C_1  and  O_2
REMARK    2  A    between atoms: O_2  and  C_3
REMARK    3  A    between atoms: N_8  and  C_9
REMARK    4  A    between atoms: C_9  and  C_10
REMARK    5  A    between atoms: C_13  and  C_14
REMARK    6  A    between atoms: C_14  and  C_15
REMARK                            x       y       z     vdW  Elec       q    Type
REMARK                         _______ _______ _______ _____ _____    ______ ____
ROOT
ATOM      1  C   UNL     1      44.643   4.708  11.678  0.00  0.00    +0.000 C 
ENDROOT
BRANCH   1   7
ATOM      2  C   UNL     1      47.777   8.274  14.013  0.00  0.00    +0.000 A 
ATOM      3  C   UNL     1      46.724   8.838  13.274  0.00  0.00    +0.000 A 
ATOM      4  C   UNL     1      45.843   7.998  12.571  0.00  0.00    +0.000 A 
ATOM      5  N   UNL     1      44.758   8.321  11.796  0.00  0.00    +0.000 NA
ATOM      6  C   UNL     1      44.269   7.173  11.387  0.00  0.00    +0.000 A 
ATOM      7  N   UNL     1      44.985   6.112  11.875  0.00  0.00    +0.000 N 
ATOM      8  C   UNL     1      46.022   6.616  12.623  0.00  0.00    +0.000 A 
ATOM      9  C   UNL     1      47.073   6.028  13.332  0.00  0.00    +0.000 A 
ATOM     10  C   UNL     1      47.937   6.884  14.024  0.00  0.00    +0.000 A 
ATOM     11  F   UNL     1      48.931   6.302  14.711  0.00  0.00    +0.000 F 
BRANCH   2  13
ATOM     12  C   UNL     1      48.366   9.326  16.067  0.00  0.00    +0.000 C 
ATOM     13  O   UNL     1      48.557   9.194  14.665  0.00  0.00    +0.000 OA
ENDBRANCH   2  13
ENDBRANCH   1   7
BRANCH   1  14
ATOM     14  C   UNL     1      44.875   4.294  10.253  0.00  0.00    +0.000 A 
ATOM     15  C   UNL     1      44.419   3.072   9.752  0.00  0.00    +0.000 A 
ATOM     16  C   UNL     1      44.832   2.641   8.494  0.00  0.00    +0.000 A 
ATOM     17  C   UNL     1      45.691   3.452   7.756  0.00  0.00    +0.000 A 
ATOM     18  N   UNL     1      46.063   4.683   8.182  0.00  0.00    +0.000 NA
ATOM     19  C   UNL     1      45.634   5.083   9.399  0.00  0.00    +0.000 A 
BRANCH  17  20
ATOM     20  C   UNL     1      46.323   2.949   6.482  0.00  0.00    +0.000 C 
BRANCH  20  21
ATOM     21  C   UNL     1      47.547   2.082   6.696  0.00  0.00    +0.000 C 
ATOM     22  N   UNL     1      48.763   2.588   6.343  0.00  0.00    +0.000 N 
ATOM     23  O   UNL     1      47.468   0.929   7.113  0.00  0.00    +0.000 OA
ATOM     24  H   UNL     1      48.845   3.474   5.852  0.00  0.00    +0.000 HD
ATOM     25  H   UNL     1      49.571   1.989   6.417  0.00  0.00    +0.000 HD
ENDBRANCH  20  21
ENDBRANCH  17  20
ENDBRANCH   1  14
TORSDOF 5
ENDMDL
MODEL 7
REMARK VINA RESULT:    -6.229      2.465      6.977
REMARK INTER + INTRA:          -8.938
REMARK INTER:                  -8.916
REMARK INTRA:                  -0.021
REMARK UNBOUND:                -0.889
REMARK  Name = 
REMARK  6 active torsions:
REMARK  status: ('A' for Active; 'I' for Inactive)
REMARK    1  A    between atoms: C_1  and  O_2
REMARK    2  A    between atoms: O_2  and  C_3
REMARK    3  A    between atoms: N_8  and  C_9
REMARK    4  A    between atoms: C_9  and  C_10
REMARK    5  A    between atoms: C_13  and  C_14
REMARK    6  A    between atoms: C_14  and  C_15
REMARK                            x       y       z     vdW  Elec       q    Type
REMARK                         _______ _______ _______ _____ _____    ______ ____
ROOT
ATOM      1  C   UNL     1      44.181   5.859  12.231  0.00  0.00    +0.000 C 
ENDROOT
BRANCH   1   7
ATOM      2  C   UNL     1      45.603   2.992   8.019  0.00  0.00    +0.000 A 
ATOM      3  C   UNL     1      44.674   2.352   8.856  0.00  0.00    +0.000 A 
ATOM      4  C   UNL     1      44.245   2.992  10.032  0.00  0.00    +0.000 A 
ATOM      5  N   UNL     1      43.356   2.565  10.986  0.00  0.00    +0.000 NA
ATOM      6  C   UNL     1      43.293   3.540  11.863  0.00  0.00    +0.000 A 
ATOM      7  N   UNL     1      44.097   4.592  11.514  0.00  0.00    +0.000 N 
ATOM      8  C   UNL     1      44.744   4.255  10.347  0.00  0.00    +0.000 A 
ATOM      9  C   UNL     1      45.684   4.907   9.545  0.00  0.00    +0.000 A 
ATOM     10  C   UNL     1      46.095   4.251   8.380  0.00  0.00    +0.000 A 
ATOM     11  F   UNL     1      46.988   4.896   7.614  0.00  0.00    +0.000 F 
BRANCH   2  13
ATOM     12  C   UNL     1      46.693   2.941   5.901  0.00  0.00    +0.000 C 
ATOM     13  O   UNL     1      45.929   2.274   6.897  0.00  0.00    +0.000 OA
ENDBRANCH   2  13
ENDBRANCH   1   7
BRANCH   1  14
ATOM     14  C   UNL     1      45.542   6.043  12.839  0.00  0.00    +0.000 A 
ATOM     15  C   UNL     1      46.162   5.039  13.587  0.00  0.00    +0.000 A 
ATOM     16  C   UNL     1      47.324   5.324  14.300  0.00  0.00    +0.000 A 
ATOM     17  C   UNL     1      47.847   6.614  14.242  0.00  0.00    +0.000 A 
ATOM     18  N   UNL     1      47.316   7.572  13.444  0.00  0.00    +0.000 NA
ATOM     19  C   UNL     1      46.199   7.263  12.751  0.00  0.00    +0.000 A 
BRANCH  17  20
ATOM     20  C   UNL     1      48.982   7.028  15.146  0.00  0.00    +0.000 C 
BRANCH  20  21
ATOM     21  C   UNL     1      49.068   6.240  16.436  0.00  0.00    +0.000 C 
ATOM     22  N   UNL     1      48.278   6.627  17.479  0.00  0.00    +0.000 N 
ATOM     23  O   UNL     1      49.863   5.316  16.589  0.00  0.00    +0.000 OA
ATOM     24  H   UNL     1      47.726   7.479  17.437  0.00  0.00    +0.000 HD
ATOM     25  H   UNL     1      48.382   6.151  18.362  0.00  0.00    +0.000 HD
ENDBRANCH  20  21
ENDBRANCH  17  20
ENDBRANCH   1  14
TORSDOF 5
ENDMDL
MODEL 8
REMARK VINA RESULT:    -5.802      3.026      4.365
REMARK INTER + INTRA:          -8.387
REMARK INTER:                  -7.578
REMARK INTRA:                  -0.809
REMARK UNBOUND:                -0.889
REMARK  Name = 
REMARK  6 active torsions:
REMARK  status: ('A' for Active; 'I' for Inactive)
REMARK    1  A    between atoms: C_1  and  O_2
REMARK    2  A    between atoms: O_2  and  C_3
REMARK    3  A    between atoms: N_8  and  C_9
REMARK    4  A    between atoms: C_9  and  C_10
REMARK    5  A    between atoms: C_13  and  C_14
REMARK    6  A    between atoms: C_14  and  C_15
REMARK                            x       y       z     vdW  Elec       q    Type
REMARK                         _______ _______ _______ _____ _____    ______ ____
ROOT
ATOM      1  C   UNL     1      45.657   7.641  12.904  0.00  0.00    +0.000 C 
ENDROOT
BRANCH   1   7
ATOM      2  C   UNL     1      50.479   9.385  11.604  0.00  0.00    +0.000 A 
ATOM      3  C   UNL     1      50.487   8.211  12.376  0.00  0.00    +0.000 A 
ATOM      4  C   UNL     1      49.270   7.667  12.822  0.00  0.00    +0.000 A 
ATOM      5  N   UNL     1      49.037   6.544  13.575  0.00  0.00    +0.000 NA
ATOM      6  C   UNL     1      47.731   6.469  13.694  0.00  0.00    +0.000 A 
ATOM      7  N   UNL     1      47.101   7.493  13.037  0.00  0.00    +0.000 N 
ATOM      8  C   UNL     1      48.072   8.296  12.485  0.00  0.00    +0.000 A 
ATOM      9  C   UNL     1      48.034   9.476  11.737  0.00  0.00    +0.000 A 
ATOM     10  C   UNL     1      49.258   9.998  11.304  0.00  0.00    +0.000 A 
ATOM     11  F   UNL     1      49.203  11.123  10.575  0.00  0.00    +0.000 F 
BRANCH   2  13
ATOM     12  C   UNL     1      52.564  10.356  12.227  0.00  0.00    +0.000 C 
ATOM     13  O   UNL     1      51.726   9.807  11.219  0.00  0.00    +0.000 OA
ENDBRANCH   2  13
ENDBRANCH   1   7
BRANCH   1  14
ATOM     14  C   UNL     1      45.055   6.447  12.219  0.00  0.00    +0.000 A 
ATOM     15  C   UNL     1      44.268   5.519  12.904  0.00  0.00    +0.000 A 
ATOM     16  C   UNL     1      43.905   4.326  12.282  0.00  0.00    +0.000 A 
ATOM     17  C   UNL     1      44.335   4.091  10.978  0.00  0.00    +0.000 A 
ATOM     18  N   UNL     1      45.014   5.022  10.265  0.00  0.00    +0.000 NA
ATOM     19  C   UNL     1      45.339   6.176  10.888  0.00  0.00    +0.000 A 
BRANCH  17  20
ATOM     20  C   UNL     1      44.141   2.742  10.332  0.00  0.00    +0.000 C 
BRANCH  20  21
ATOM     21  C   UNL     1      44.858   2.579   9.008  0.00  0.00    +0.000 C 
ATOM     22  N   UNL     1      44.446   3.343   7.956  0.00  0.00    +0.000 N 
ATOM     23  O   UNL     1      45.744   1.745   8.841  0.00  0.00    +0.000 OA
ATOM     24  H   UNL     1      43.616   3.927   8.019  0.00  0.00    +0.000 HD
ATOM     25  H   UNL     1      44.872   3.188   7.055  0.00  0.00    +0.000 HD
ENDBRANCH  20  21
ENDBRANCH  17  20
ENDBRANCH   1  14
TORSDOF 5
ENDMDL
MODEL 9
REMARK VINA RESULT:    -5.552      4.517      6.547
REMARK INTER + INTRA:          -8.063
REMARK INTER:                  -7.228
REMARK INTRA:                  -0.835
REMARK UNBOUND:                -0.889
REMARK  Name = 
REMARK  6 active torsions:
REMARK  status: ('A' for Active; 'I' for Inactive)
REMARK    1  A    between atoms: C_1  and  O_2
REMARK    2  A    between atoms: O_2  and  C_3
REMARK    3  A    between atoms: N_8  and  C_9
REMARK    4  A    between atoms: C_9  and  C_10
REMARK    5  A    between atoms: C_13  and  C_14
REMARK    6  A    between atoms: C_14  and  C_15
REMARK                            x       y       z     vdW  Elec       q    Type
REMARK                         _______ _______ _______ _____ _____    ______ ____
ROOT
ATOM      1  C   UNL     1      48.846   6.991  13.846  0.00  0.00    +0.000 C 
ENDROOT
BRANCH   1   7
ATOM      2  C   UNL     1      48.810   6.685  19.127  0.00  0.00    +0.000 A 
ATOM      3  C   UNL     1      48.489   7.958  18.628  0.00  0.00    +0.000 A 
ATOM      4  C   UNL     1      48.503   8.183  17.241  0.00  0.00    +0.000 A 
ATOM      5  N   UNL     1      48.225   9.326  16.536  0.00  0.00    +0.000 NA
ATOM      6  C   UNL     1      48.363   8.999  15.272  0.00  0.00    +0.000 A 
ATOM      7  N   UNL     1      48.708   7.682  15.122  0.00  0.00    +0.000 N 
ATOM      8  C   UNL     1      48.829   7.136  16.379  0.00  0.00    +0.000 A 
ATOM      9  C   UNL     1      49.173   5.865  16.847  0.00  0.00    +0.000 A 
ATOM     10  C   UNL     1      49.152   5.666  18.232  0.00  0.00    +0.000 A 
ATOM     11  F   UNL     1      49.472   4.437  18.664  0.00  0.00    +0.000 F 
BRANCH   2  13
ATOM     12  C   UNL     1      47.575   6.005  21.048  0.00  0.00    +0.000 C 
ATOM     13  O   UNL     1      48.746   6.590  20.494  0.00  0.00    +0.000 OA
ENDBRANCH   2  13
ENDBRANCH   1   7
BRANCH   1  14
ATOM     14  C   UNL     1      47.538   6.387  13.418  0.00  0.00    +0.000 A 
ATOM     15  C   UNL     1      46.562   7.129  12.750  0.00  0.00    +0.000 A 
ATOM     16  C   UNL     1      45.292   6.591  12.558  0.00  0.00    +0.000 A 
ATOM     17  C   UNL     1      45.028   5.309  13.034  0.00  0.00    +0.000 A 
ATOM     18  N   UNL     1      45.990   4.536  13.595  0.00  0.00    +0.000 NA
ATOM     19  C   UNL     1      47.217   5.079  13.754  0.00  0.00    +0.000 A 
BRANCH  17  20
ATOM     20  C   UNL     1      43.625   4.757  13.030  0.00  0.00    +0.000 C 
BRANCH  20  21
ATOM     21  C   UNL     1      43.428   3.566  12.115  0.00  0.00    +0.000 C 
ATOM     22  N   UNL     1      43.858   2.346  12.546  0.00  0.00    +0.000 N 
ATOM     23  O   UNL     1      42.958   3.678  10.985  0.00  0.00    +0.000 OA
ATOM     24  H   UNL     1      44.391   2.246  13.406  0.00  0.00    +0.000 HD
ATOM     25  H   UNL     1      43.794   1.563  11.913  0.00  0.00    +0.000 HD
ENDBRANCH  20  21
ENDBRANCH  17  20
ENDBRANCH   1  14
TORSDOF 5
ENDMDL
