MODEL 1
REMARK VINA RESULT:    -7.945      0.000      0.000
REMARK INTER + INTRA:         -10.319
REMARK INTER:                  -9.803
REMARK INTRA:                  -0.515
REMARK UNBOUND:                -0.515
REMARK  Name = 
REMARK  5 active torsions:
REMARK  status: ('A' for Active; 'I' for Inactive)
REMARK    1  A    between atoms: C_1  and  N_2
REMARK    2  A    between atoms: N_5  and  C_6
REMARK    3  A    between atoms: C_10  and  C_11
REMARK    4  A    between atoms: C_11  and  C_12
REMARK    5  A    between atoms: C_12  and  N_13
REMARK                            x       y       z     vdW  Elec       q    Type
REMARK                         _______ _______ _______ _____ _____    ______ ____
ROOT
ATOM      1  C   UNL     1      45.928   5.535  13.078  0.00  0.00    +0.000 A 
ATOM      2  C   UNL     1      45.522   6.805  12.646  0.00  0.00    +0.000 A 
ATOM      3  C   UNL     1      44.439   6.978  11.783  0.00  0.00    +0.000 A 
ATOM      4  C   UNL     1      43.739   5.873  11.313  0.00  0.00    +0.000 A 
ATOM      5  C   UNL     1      44.117   4.581  11.692  0.00  0.00    +0.000 A 
ATOM      6  C   UNL     1      45.202   4.439  12.578  0.00  0.00    +0.000 A 
ENDROOT
BRANCH   1  11
ATOM      7  C   UNL     1      49.090   5.463  17.654  0.00  0.00    +0.000 C 
ATOM      8  N   UNL     1      48.763   5.187  16.258  0.00  0.00    +0.000 NA
ATOM      9  C   UNL     1      47.544   4.349  16.164  0.00  0.00    +0.000 C 
ATOM     10  C   UNL     1      47.132   4.075  14.699  0.00  0.00    +0.000 C 
ATOM     11  N   UNL     1      46.942   5.356  13.998  0.00  0.00    +0.000 N 
ATOM     12  C   UNL     1      48.125   6.226  14.044  0.00  0.00    +0.000 C 
ATOM     13  C   UNL     1      48.540   6.452  15.519  0.00  0.00    +0.000 C 
ENDBRANCH   1  11
BRANCH   5  14
ATOM     14  C   UNL     1      43.420   3.324  11.202  0.00  0.00    +0.000 C 
BRANCH  14  15
ATOM     15  C   UNL     1      44.196   2.549  10.136  0.00  0.00    +0.000 C 
BRANCH  15  16
ATOM     16  N   UNL     1      44.589   3.395   9.008  0.00  0.00    +0.000 N 
ATOM     17  C   UNL     1      45.552   2.750   8.199  0.00  0.00    +0.000 A 
ATOM     18  C   UNL     1      46.039   3.415   7.081  0.00  0.00    +0.000 A 
ATOM     19  C   UNL     1      46.979   2.786   6.262  0.00  0.00    +0.000 A 
ATOM     20  C   UNL     1      47.409   1.505   6.582  0.00  0.00    +0.000 A 
ATOM     21  C   UNL     1      46.873   0.906   7.705  0.00  0.00    +0.000 A 
ATOM     22  N   UNL     1      45.960   1.496   8.503  0.00  0.00    +0.000 NA
ATOM     23  H   UNL     1      44.973   4.286   9.308  0.00  0.00    +0.000 HD
ENDBRANCH  15  16
ENDBRANCH  14  15
ENDBRANCH   5  14
TORSDOF 4
ENDMDL
MODEL 2
REMARK VINA RESULT:    -7.776      1.167      1.644
REMARK INTER + INTRA:         -10.110
REMARK INTER:                  -9.568
REMARK INTRA:                  -0.542
REMARK UNBOUND:                -0.515
REMARK  Name = 
REMARK  5 active torsions:
REMARK  status: ('A' for Active; 'I' for Inactive)
REMARK    1  A    between atoms: C_1  and  N_2
REMARK    2  A    between atoms: N_5  and  C_6
REMARK    3  A    between atoms: C_10  and  C_11
REMARK    4  A    between atoms: C_11  and  C_12
REMARK    5  A    between atoms: C_12  and  N_13
REMARK                            x       y       z     vdW  Elec       q    Type
REMARK                         _______ _______ _______ _____ _____    ______ ____
ROOT
ATOM      1  C   UNL     1      46.965   5.332  13.844  0.00  0.00    +0.000 A 
ATOM      2  C   UNL     1      47.249   6.434  13.026  0.00  0.00    +0.000 A 
ATOM      3  C   UNL     1      46.600   6.631  11.806  0.00  0.00    +0.000 A 
ATOM      4  C   UNL     1      45.655   5.713  11.363  0.00  0.00    +0.000 A 
ATOM      5  C   UNL     1      45.353   4.581  12.128  0.00  0.00    +0.000 A 
ATOM      6  C   UNL     1      46.010   4.420  13.362  0.00  0.00    +0.000 A 
ENDROOT
BRANCH   1  11
ATOM      7  C   UNL     1      48.108   5.400  19.288  0.00  0.00    +0.000 C 
ATOM      8  N   UNL     1      48.334   5.063  17.885  0.00  0.00    +0.000 NA
ATOM      9  C   UNL     1      47.209   4.257  17.355  0.00  0.00    +0.000 C 
ATOM     10  C   UNL     1      47.382   3.921  15.856  0.00  0.00    +0.000 C 
ATOM     11  N   UNL     1      47.537   5.170  15.091  0.00  0.00    +0.000 N 
ATOM     12  C   UNL     1      48.649   6.007  15.561  0.00  0.00    +0.000 C 
ATOM     13  C   UNL     1      48.472   6.295  17.073  0.00  0.00    +0.000 C 
ENDBRANCH   1  11
BRANCH   5  14
ATOM     14  C   UNL     1      44.353   3.522  11.700  0.00  0.00    +0.000 C 
BRANCH  14  15
ATOM     15  C   UNL     1      44.256   3.322  10.187  0.00  0.00    +0.000 C 
BRANCH  15  16
ATOM     16  N   UNL     1      44.882   2.074   9.749  0.00  0.00    +0.000 N 
ATOM     17  C   UNL     1      45.676   2.279   8.598  0.00  0.00    +0.000 A 
ATOM     18  C   UNL     1      46.344   1.193   8.044  0.00  0.00    +0.000 A 
ATOM     19  C   UNL     1      47.145   1.381   6.916  0.00  0.00    +0.000 A 
ATOM     20  C   UNL     1      47.259   2.651   6.369  0.00  0.00    +0.000 A 
ATOM     21  C   UNL     1      46.571   3.682   6.980  0.00  0.00    +0.000 A 
ATOM     22  N   UNL     1      45.799   3.520   8.073  0.00  0.00    +0.000 NA
ATOM     23  H   UNL     1      44.200   1.352   9.538  0.00  0.00    +0.000 HD
ENDBRANCH  15  16
ENDBRANCH  14  15
ENDBRANCH   5  14
TORSDOF 4
ENDMDL
MODEL 3
REMARK VINA RESULT:    -7.551      2.057      3.471
REMARK INTER + INTRA:          -9.832
REMARK INTER:                  -9.253
REMARK INTRA:                  -0.578
REMARK UNBOUND:                -0.515
REMARK  Name = 
REMARK  5 active torsions:
REMARK  status: ('A' for Active; 'I' for Inactive)
REMARK    1  A    between atoms: C_1  and  N_2
REMARK    2  A    between atoms: N_5  and  C_6
REMARK    3  A    between atoms: C_10  and  C_11
REMARK    4  A    between atoms: C_11  and  C_12
REMARK    5  A    between atoms: C_12  and  N_13
REMARK                            x       y       z     vdW  Elec       q    Type
REMARK                         _______ _______ _______ _____ _____    ______ ____
ROOT
ATOM      1  C   UNL     1      46.320   6.035  12.821  0.00  0.00    +0.000 A 
ATOM      2  C   UNL     1      47.077   5.125  13.572  0.00  0.00    +0.000 A 
ATOM      3  C   UNL     1      46.810   3.756  13.553  0.00  0.00    +0.000 A 
ATOM      4  C   UNL     1      45.760   3.260  12.790  0.00  0.00    +0.000 A 
ATOM      5  C   UNL     1      44.957   4.127  12.042  0.00  0.00    +0.000 A 
ATOM      6  C   UNL     1      45.262   5.500  12.065  0.00  0.00    +0.000 A 
ENDROOT
BRANCH   1  11
ATOM      7  C   UNL     1      47.459  11.227  11.178  0.00  0.00    +0.000 C 
ATOM      8  N   UNL     1      47.225  10.158  12.146  0.00  0.00    +0.000 NA
ATOM      9  C   UNL     1      45.868   9.588  11.974  0.00  0.00    +0.000 C 
ATOM     10  C   UNL     1      45.595   8.417  12.946  0.00  0.00    +0.000 C 
ATOM     11  N   UNL     1      46.626   7.381  12.762  0.00  0.00    +0.000 N 
ATOM     12  C   UNL     1      47.996   7.884  12.936  0.00  0.00    +0.000 C 
ATOM     13  C   UNL     1      48.229   9.081  11.980  0.00  0.00    +0.000 C 
ENDBRANCH   1  11
BRANCH   5  14
ATOM     14  C   UNL     1      43.778   3.665  11.205  0.00  0.00    +0.000 C 
BRANCH  14  15
ATOM     15  C   UNL     1      44.162   2.827   9.984  0.00  0.00    +0.000 C 
BRANCH  15  16
ATOM     16  N   UNL     1      44.730   3.640   8.908  0.00  0.00    +0.000 N 
ATOM     17  C   UNL     1      45.667   2.900   8.151  0.00  0.00    +0.000 A 
ATOM     18  C   UNL     1      46.307   3.522   7.086  0.00  0.00    +0.000 A 
ATOM     19  C   UNL     1      47.224   2.800   6.319  0.00  0.00    +0.000 A 
ATOM     20  C   UNL     1      47.477   1.473   6.634  0.00  0.00    +0.000 A 
ATOM     21  C   UNL     1      46.797   0.922   7.703  0.00  0.00    +0.000 A 
ATOM     22  N   UNL     1      45.904   1.602   8.451  0.00  0.00    +0.000 NA
ATOM     23  H   UNL     1      45.194   4.474   9.255  0.00  0.00    +0.000 HD
ENDBRANCH  15  16
ENDBRANCH  14  15
ENDBRANCH   5  14
TORSDOF 4
ENDMDL
MODEL 4
REMARK VINA RESULT:    -7.535      1.233      7.632
REMARK INTER + INTRA:          -9.813
REMARK INTER:                  -9.329
REMARK INTRA:                  -0.484
REMARK UNBOUND:                -0.515
REMARK  Name = 
REMARK  5 active torsions:
REMARK  status: ('A' for Active; 'I' for Inactive)
REMARK    1  A    between atoms: C_1  and  N_2
REMARK    2  A    between atoms: N_5  and  C_6
REMARK    3  A    between atoms: C_10  and  C_11
REMARK    4  A    between atoms: C_11  and  C_12
REMARK    5  A    between atoms: C_12  and  N_13
REMARK                            x       y       z     vdW  Elec       q    Type
REMARK                         _______ _______ _______ _____ _____    ______ ____
ROOT
ATOM      1  C   UNL     1      44.661   4.136  10.589  0.00  0.00    +0.000 A 
ATOM      2  C   UNL     1      43.333   4.045  11.025  0.00  0.00    +0.000 A 
ATOM      3  C   UNL     1      42.893   4.690  12.181  0.00  0.00    +0.000 A 
ATOM      4  C   UNL     1      43.783   5.436  12.946  0.00  0.00    +0.000 A 
ATOM      5  C   UNL     1      45.126   5.538  12.570  0.00  0.00    +0.000 A 
ATOM      6  C   UNL     1      45.536   4.892  11.389  0.00  0.00    +0.000 A 
ENDROOT
BRANCH   1  11
ATOM      7  C   UNL     1      47.630   1.788   6.512  0.00  0.00    +0.000 C 
ATOM      8  N   UNL     1      46.430   2.337   7.138  0.00  0.00    +0.000 NA
ATOM      9  C   UNL     1      46.087   1.576   8.363  0.00  0.00    +0.000 C 
ATOM     10  C   UNL     1      44.851   2.155   9.088  0.00  0.00    +0.000 C 
ATOM     11  N   UNL     1      45.090   3.574   9.403  0.00  0.00    +0.000 N 
ATOM     12  C   UNL     1      45.421   4.385   8.222  0.00  0.00    +0.000 C 
ATOM     13  C   UNL     1      46.637   3.760   7.493  0.00  0.00    +0.000 C 
ENDBRANCH   1  11
BRANCH   5  14
ATOM     14  C   UNL     1      46.163   6.312  13.365  0.00  0.00    +0.000 C 
BRANCH  14  15
ATOM     15  C   UNL     1      47.237   5.438  14.014  0.00  0.00    +0.000 C 
BRANCH  15  16
ATOM     16  N   UNL     1      46.675   4.481  14.968  0.00  0.00    +0.000 N 
ATOM     17  C   UNL     1      47.528   4.311  16.083  0.00  0.00    +0.000 A 
ATOM     18  C   UNL     1      47.147   3.431  17.088  0.00  0.00    +0.000 A 
ATOM     19  C   UNL     1      47.970   3.264  18.203  0.00  0.00    +0.000 A 
ATOM     20  C   UNL     1      49.155   3.982  18.286  0.00  0.00    +0.000 A 
ATOM     21  C   UNL     1      49.462   4.844  17.250  0.00  0.00    +0.000 A 
ATOM     22  N   UNL     1      48.676   5.022  16.169  0.00  0.00    +0.000 NA
ATOM     23  H   UNL     1      46.514   3.568  14.551  0.00  0.00    +0.000 HD
ENDBRANCH  15  16
ENDBRANCH  14  15
ENDBRANCH   5  14
TORSDOF 4
ENDMDL
MODEL 5
REMARK VINA RESULT:    -7.338      2.020      2.827
REMARK INTER + INTRA:          -9.569
REMARK INTER:                  -9.034
REMARK INTRA:                  -0.536
REMARK UNBOUND:                -0.515
REMARK  Name = 
REMARK  5 active torsions:
REMARK  status: ('A' for Active; 'I' for Inactive)
REMARK    1  A    between atoms: C_1  and  N_2
REMARK    2  A    between atoms: N_5  and  C_6
REMARK    3  A    between atoms: C_10  and  C_11
REMARK    4  A    between atoms: C_11  and  C_12
REMARK    5  A    between atoms: C_12  and  N_13
REMARK                            x       y       z     vdW  Elec       q    Type
REMARK                         _______ _______ _______ _____ _____    ______ ____
ROOT
ATOM      1  C   UNL     1      46.933   6.136  12.892  0.00  0.00    +0.000 A 
ATOM      2  C   UNL     1      47.174   4.969  13.631  0.00  0.00    +0.000 A 
ATOM      3  C   UNL     1      46.426   3.808  13.436  0.00  0.00    +0.000 A 
ATOM      4  C   UNL     1      45.398   3.788  12.501  0.00  0.00    +0.000 A 
ATOM      5  C   UNL     1      45.098   4.932  11.755  0.00  0.00    +0.000 A 
ATOM      6  C   UNL     1      45.882   6.083  11.960  0.00  0.00    +0.000 A 
ENDROOT
BRANCH   1  11
ATOM      7  C   UNL     1      50.617   9.976  14.512  0.00  0.00    +0.000 C 
ATOM      8  N   UNL     1      49.581   9.403  13.657  0.00  0.00    +0.000 NA
ATOM      9  C   UNL     1      50.031   8.111  13.087  0.00  0.00    +0.000 C 
ATOM     10  C   UNL     1      48.944   7.443  12.215  0.00  0.00    +0.000 C 
ATOM     11  N   UNL     1      47.720   7.264  13.014  0.00  0.00    +0.000 N 
ATOM     12  C   UNL     1      47.215   8.516  13.595  0.00  0.00    +0.000 C 
ATOM     13  C   UNL     1      48.336   9.184  14.429  0.00  0.00    +0.000 C 
ENDBRANCH   1  11
BRANCH   5  14
ATOM     14  C   UNL     1      43.976   4.998  10.734  0.00  0.00    +0.000 C 
BRANCH  14  15
ATOM     15  C   UNL     1      44.069   3.946   9.628  0.00  0.00    +0.000 C 
BRANCH  15  16
ATOM     16  N   UNL     1      44.864   4.405   8.488  0.00  0.00    +0.000 N 
ATOM     17  C   UNL     1      45.684   3.367   7.989  0.00  0.00    +0.000 A 
ATOM     18  C   UNL     1      46.510   3.632   6.903  0.00  0.00    +0.000 A 
ATOM     19  C   UNL     1      47.315   2.614   6.387  0.00  0.00    +0.000 A 
ATOM     20  C   UNL     1      47.273   1.355   6.969  0.00  0.00    +0.000 A 
ATOM     21  C   UNL     1      46.421   1.166   8.041  0.00  0.00    +0.000 A 
ATOM     22  N   UNL     1      45.633   2.136   8.548  0.00  0.00    +0.000 NA
ATOM     23  H   UNL     1      45.460   5.192   8.724  0.00  0.00    +0.000 HD
ENDBRANCH  15  16
ENDBRANCH  14  15
ENDBRANCH   5  14
TORSDOF 4
ENDMDL
MODEL 6
REMARK VINA RESULT:    -7.121      2.094      2.514
REMARK INTER + INTRA:          -9.301
REMARK INTER:                  -8.793
REMARK INTRA:                  -0.508
REMARK UNBOUND:                -0.515
REMARK  Name = 
REMARK  5 active torsions:
REMARK  status: ('A' for Active; 'I' for Inactive)
REMARK    1  A    between atoms: C_1  and  N_2
REMARK    2  A    between atoms: N_5  and  C_6
REMARK    3  A    between atoms: C_10  and  C_11
REMARK    4  A    between atoms: C_11  and  C_12
REMARK    5  A    between atoms: C_12  and  N_13
REMARK                            x       y       z     vdW  Elec       q    Type
REMARK                         _______ _______ _______ _____ _____    ______ ____
ROOT
ATOM      1  C   UNL     1      45.938   6.970  12.023  0.00  0.00    +0.000 A 
ATOM      2  C   UNL     1      44.786   7.714  11.733  0.00  0.00    +0.000 A 
ATOM      3  C   UNL     1      43.595   7.102  11.340  0.00  0.00    +0.000 A 
ATOM      4  C   UNL     1      43.532   5.720  11.208  0.00  0.00    +0.000 A 
ATOM      5  C   UNL     1      44.659   4.931  11.460  0.00  0.00    +0.000 A 
ATOM      6  C   UNL     1      45.840   5.575  11.874  0.00  0.00    +0.000 A 
ENDROOT
BRANCH   1  11
ATOM      7  C   UNL     1      50.738   8.078  14.608  0.00  0.00    +0.000 C 
ATOM      8  N   UNL     1      49.609   8.352  13.723  0.00  0.00    +0.000 NA
ATOM      9  C   UNL     1      49.547   7.351  12.632  0.00  0.00    +0.000 C 
ATOM     10  C   UNL     1      48.335   7.572  11.699  0.00  0.00    +0.000 C 
ATOM     11  N   UNL     1      47.096   7.555  12.496  0.00  0.00    +0.000 N 
ATOM     12  C   UNL     1      47.092   8.540  13.587  0.00  0.00    +0.000 C 
ATOM     13  C   UNL     1      48.337   8.320  14.482  0.00  0.00    +0.000 C 
ENDBRANCH   1  11
BRANCH   5  14
ATOM     14  C   UNL     1      44.677   3.421  11.315  0.00  0.00    +0.000 C 
BRANCH  14  15
ATOM     15  C   UNL     1      44.217   2.915   9.947  0.00  0.00    +0.000 C 
BRANCH  15  16
ATOM     16  N   UNL     1      44.973   1.743   9.504  0.00  0.00    +0.000 N 
ATOM     17  C   UNL     1      45.796   2.056   8.397  0.00  0.00    +0.000 A 
ATOM     18  C   UNL     1      46.584   1.053   7.845  0.00  0.00    +0.000 A 
ATOM     19  C   UNL     1      47.414   1.350   6.762  0.00  0.00    +0.000 A 
ATOM     20  C   UNL     1      47.436   2.642   6.258  0.00  0.00    +0.000 A 
ATOM     21  C   UNL     1      46.630   3.586   6.864  0.00  0.00    +0.000 A 
ATOM     22  N   UNL     1      45.827   3.320   7.915  0.00  0.00    +0.000 NA
ATOM     23  H   UNL     1      44.370   0.969   9.240  0.00  0.00    +0.000 HD
ENDBRANCH  15  16
ENDBRANCH  14  15
ENDBRANCH   5  14
TORSDOF 4
ENDMDL
MODEL 7
REMARK VINA RESULT:    -6.902      2.025      6.918
REMARK INTER + INTRA:          -9.031
REMARK INTER:                  -8.420
REMARK INTRA:                  -0.611
REMARK UNBOUND:                -0.515
REMARK  Name = 
REMARK  5 active torsions:
REMARK  status: ('A' for Active; 'I' for Inactive)
REMARK    1  A    between atoms: C_1  and  N_2
REMARK    2  A    between atoms: N_5  and  C_6
REMARK    3  A    between atoms: C_10  and  C_11
REMARK    4  A    between atoms: C_11  and  C_12
REMARK    5  A    between atoms: C_12  and  N_13
REMARK                            x       y       z     vdW  Elec       q    Type
REMARK                         _______ _______ _______ _____ _____    ______ ____
ROOT
ATOM      1  C   UNL     1      44.568   4.055  10.592  0.00  0.00    +0.000 A 
ATOM      2  C   UNL     1      43.284   4.601  10.724  0.00  0.00    +0.000 A 
ATOM      3  C   UNL     1      42.867   5.224  11.901  0.00  0.00    +0.000 A 
ATOM      4  C   UNL     1      43.726   5.302  12.991  0.00  0.00    +0.000 A 
ATOM      5  C   UNL     1      45.010   4.750  12.922  0.00  0.00    +0.000 A 
ATOM      6  C   UNL     1      45.408   4.145  11.716  0.00  0.00    +0.000 A 
ENDROOT
BRANCH   1  11
ATOM      7  C   UNL     1      47.626   1.776   6.542  0.00  0.00    +0.000 C 
ATOM      8  N   UNL     1      46.411   2.313   7.151  0.00  0.00    +0.000 NA
ATOM      9  C   UNL     1      46.046   1.532   8.358  0.00  0.00    +0.000 C 
ATOM     10  C   UNL     1      44.793   2.097   9.066  0.00  0.00    +0.000 C 
ATOM     11  N   UNL     1      45.022   3.512   9.407  0.00  0.00    +0.000 N 
ATOM     12  C   UNL     1      45.375   4.341   8.246  0.00  0.00    +0.000 C 
ATOM     13  C   UNL     1      46.607   3.731   7.532  0.00  0.00    +0.000 C 
ENDBRANCH   1  11
BRANCH   5  14
ATOM     14  C   UNL     1      45.996   4.773  14.076  0.00  0.00    +0.000 C 
BRANCH  14  15
ATOM     15  C   UNL     1      47.268   5.576  13.802  0.00  0.00    +0.000 C 
BRANCH  15  16
ATOM     16  N   UNL     1      47.041   7.020  13.878  0.00  0.00    +0.000 N 
ATOM     17  C   UNL     1      47.984   7.726  13.095  0.00  0.00    +0.000 A 
ATOM     18  C   UNL     1      47.916   9.113  13.056  0.00  0.00    +0.000 A 
ATOM     19  C   UNL     1      48.830   9.824  12.275  0.00  0.00    +0.000 A 
ATOM     20  C   UNL     1      49.789   9.130  11.552  0.00  0.00    +0.000 A 
ATOM     21  C   UNL     1      49.789   7.751  11.636  0.00  0.00    +0.000 A 
ATOM     22  N   UNL     1      48.911   7.048  12.380  0.00  0.00    +0.000 NA
ATOM     23  H   UNL     1      47.095   7.371  14.830  0.00  0.00    +0.000 HD
ENDBRANCH  15  16
ENDBRANCH  14  15
ENDBRANCH   5  14
TORSDOF 4
ENDMDL
MODEL 8
REMARK VINA RESULT:    -6.750      1.513      7.557
REMARK INTER + INTRA:          -8.843
REMARK INTER:                  -8.372
REMARK INTRA:                  -0.471
REMARK UNBOUND:                -0.515
REMARK  Name = 
REMARK  5 active torsions:
REMARK  status: ('A' for Active; 'I' for Inactive)
REMARK    1  A    between atoms: C_1  and  N_2
REMARK    2  A    between atoms: N_5  and  C_6
REMARK    3  A    between atoms: C_10  and  C_11
REMARK    4  A    between atoms: C_11  and  C_12
REMARK    5  A    between atoms: C_12  and  N_13
REMARK                            x       y       z     vdW  Elec       q    Type
REMARK                         _______ _______ _______ _____ _____    ______ ____
ROOT
ATOM      1  C   UNL     1      44.637   4.110  10.573  0.00  0.00    +0.000 A 
ATOM      2  C   UNL     1      43.528   3.616  11.273  0.00  0.00    +0.000 A 
ATOM      3  C   UNL     1      43.044   4.244  12.421  0.00  0.00    +0.000 A 
ATOM      4  C   UNL     1      43.673   5.382  12.912  0.00  0.00    +0.000 A 
ATOM      5  C   UNL     1      44.799   5.903  12.266  0.00  0.00    +0.000 A 
ATOM      6  C   UNL     1      45.253   5.259  11.100  0.00  0.00    +0.000 A 
ENDROOT
BRANCH   1  11
ATOM      7  C   UNL     1      47.636   1.773   6.512  0.00  0.00    +0.000 C 
ATOM      8  N   UNL     1      46.430   2.316   7.132  0.00  0.00    +0.000 NA
ATOM      9  C   UNL     1      46.087   1.555   8.357  0.00  0.00    +0.000 C 
ATOM     10  C   UNL     1      44.844   2.128   9.076  0.00  0.00    +0.000 C 
ATOM     11  N   UNL     1      45.074   3.549   9.389  0.00  0.00    +0.000 N 
ATOM     12  C   UNL     1      45.405   4.360   8.209  0.00  0.00    +0.000 C 
ATOM     13  C   UNL     1      46.627   3.741   7.486  0.00  0.00    +0.000 C 
ENDBRANCH   1  11
BRANCH   5  14
ATOM     14  C   UNL     1      45.555   7.125  12.754  0.00  0.00    +0.000 C 
BRANCH  14  15
ATOM     15  C   UNL     1      47.036   6.876  13.041  0.00  0.00    +0.000 C 
BRANCH  15  16
ATOM     16  N   UNL     1      47.255   6.290  14.365  0.00  0.00    +0.000 N 
ATOM     17  C   UNL     1      48.540   6.613  14.859  0.00  0.00    +0.000 A 
ATOM     18  C   UNL     1      48.916   6.134  16.107  0.00  0.00    +0.000 A 
ATOM     19  C   UNL     1      50.176   6.457  16.616  0.00  0.00    +0.000 A 
ATOM     20  C   UNL     1      51.028   7.253  15.865  0.00  0.00    +0.000 A 
ATOM     21  C   UNL     1      50.580   7.698  14.635  0.00  0.00    +0.000 A 
ATOM     22  N   UNL     1      49.365   7.401  14.131  0.00  0.00    +0.000 NA
ATOM     23  H   UNL     1      47.164   5.279  14.361  0.00  0.00    +0.000 HD
ENDBRANCH  15  16
ENDBRANCH  14  15
ENDBRANCH   5  14
TORSDOF 4
ENDMDL
MODEL 9
REMARK VINA RESULT:    -6.598      1.690      7.474
REMARK INTER + INTRA:          -8.656
REMARK INTER:                  -8.161
REMARK INTRA:                  -0.495
REMARK UNBOUND:                -0.515
REMARK  Name = 
REMARK  5 active torsions:
REMARK  status: ('A' for Active; 'I' for Inactive)
REMARK    1  A    between atoms: C_1  and  N_2
REMARK    2  A    between atoms: N_5  and  C_6
REMARK    3  A    between atoms: C_10  and  C_11
REMARK    4  A    between atoms: C_11  and  C_12
REMARK    5  A    between atoms: C_12  and  N_13
REMARK                            x       y       z     vdW  Elec       q    Type
REMARK                         _______ _______ _______ _____ _____    ______ ____
ROOT
ATOM      1  C   UNL     1      45.617   6.328  11.390  0.00  0.00    +0.000 A 
ATOM      2  C   UNL     1      44.921   7.529  11.584  0.00  0.00    +0.000 A 
ATOM      3  C   UNL     1      45.450   8.571  12.346  0.00  0.00    +0.000 A 
ATOM      4  C   UNL     1      46.692   8.430  12.954  0.00  0.00    +0.000 A 
ATOM      5  C   UNL     1      47.418   7.243  12.815  0.00  0.00    +0.000 A 
ATOM      6  C   UNL     1      46.868   6.217  12.025  0.00  0.00    +0.000 A 
ENDROOT
BRANCH   1  11
ATOM      7  C   UNL     1      44.681   1.501   8.789  0.00  0.00    +0.000 C 
ATOM      8  N   UNL     1      44.469   2.915   9.087  0.00  0.00    +0.000 NA
ATOM      9  C   UNL     1      44.093   3.097  10.509  0.00  0.00    +0.000 C 
ATOM     10  C   UNL     1      43.909   4.585  10.883  0.00  0.00    +0.000 C 
ATOM     11  N   UNL     1      45.145   5.323  10.569  0.00  0.00    +0.000 N 
ATOM     12  C   UNL     1      45.562   5.193   9.166  0.00  0.00    +0.000 C 
ATOM     13  C   UNL     1      45.699   3.692   8.808  0.00  0.00    +0.000 C 
ENDBRANCH   1  11
BRANCH   5  14
ATOM     14  C   UNL     1      48.768   7.003  13.467  0.00  0.00    +0.000 C 
BRANCH  14  15
ATOM     15  C   UNL     1      48.707   6.795  14.981  0.00  0.00    +0.000 C 
BRANCH  15  16
ATOM     16  N   UNL     1      47.629   5.886  15.375  0.00  0.00    +0.000 N 
ATOM     17  C   UNL     1      48.096   4.904  16.280  0.00  0.00    +0.000 A 
ATOM     18  C   UNL     1      47.201   3.954  16.755  0.00  0.00    +0.000 A 
ATOM     19  C   UNL     1      47.642   2.988  17.662  0.00  0.00    +0.000 A 
ATOM     20  C   UNL     1      48.968   2.995  18.071  0.00  0.00    +0.000 A 
ATOM     21  C   UNL     1      49.796   3.976  17.559  0.00  0.00    +0.000 A 
ATOM     22  N   UNL     1      49.386   4.921  16.689  0.00  0.00    +0.000 NA
ATOM     23  H   UNL     1      47.214   5.410  14.580  0.00  0.00    +0.000 HD
ENDBRANCH  15  16
ENDBRANCH  14  15
ENDBRANCH   5  14
TORSDOF 4
ENDMDL
