MODEL 1
REMARK VINA RESULT:    -7.332      0.000      0.000
REMARK INTER + INTRA:         -10.338
REMARK INTER:                  -9.904
REMARK INTRA:                  -0.434
REMARK UNBOUND:                -0.434
REMARK  Name = 
REMARK  7 active torsions:
REMARK  status: ('A' for Active; 'I' for Inactive)
REMARK    1  A    between atoms: C_1  and  O_2
REMARK    2  A    between atoms: O_2  and  C_3
REMARK    3  A    between atoms: C_3  and  C_4
REMARK    4  A    between atoms: C_4  and  N_5
REMARK    5  A    between atoms: C_4  and  C_15
REMARK    6  A    between atoms: N_5  and  C_6
REMARK    7  A    between atoms: C_9  and  C_10
REMARK                            x       y       z     vdW  Elec       q    Type
REMARK                         _______ _______ _______ _____ _____    ______ ____
ROOT
ATOM      1  N   UNL     1      44.261   5.081  10.041  0.00  0.00    +0.000 N 
ATOM      2  H   UNL     1      43.761   5.753   9.467  0.00  0.00    +0.000 HD
ENDROOT
BRANCH   1   3
ATOM      3  C   UNL     1      45.040   4.211   9.297  0.00  0.00    +0.000 A 
ATOM      4  C   UNL     1      44.934   2.825   9.347  0.00  0.00    +0.000 A 
ATOM      5  C   UNL     1      45.728   2.029   8.520  0.00  0.00    +0.000 A 
ATOM      6  C   UNL     1      46.594   2.647   7.630  0.00  0.00    +0.000 A 
ATOM      7  N   UNL     1      46.716   3.995   7.510  0.00  0.00    +0.000 NA
ATOM      8  C   UNL     1      45.928   4.725   8.338  0.00  0.00    +0.000 A 
BRANCH   6   9
ATOM      9  C   UNL     1      47.443   1.816   6.725  0.00  0.00    +0.000 C 
ATOM     10  N   UNL     1      48.466   2.464   6.097  0.00  0.00    +0.000 N 
ATOM     11  O   UNL     1      47.239   0.617   6.550  0.00  0.00    +0.000 OA
ATOM     12  H   UNL     1      48.596   3.460   6.245  0.00  0.00    +0.000 HD
ATOM     13  H   UNL     1      49.056   1.956   5.455  0.00  0.00    +0.000 HD
ENDBRANCH   6   9
ENDBRANCH   1   3
BRANCH   1  14
ATOM     14  C   UNL     1      44.560   5.545  11.405  0.00  0.00    +0.000 C 
BRANCH  14  15
ATOM     15  C   UNL     1      45.506   6.788  11.322  0.00  0.00    +0.000 C 
ATOM     16  C   UNL     1      46.912   6.429  11.846  0.00  0.00    +0.000 C 
ATOM     17  C   UNL     1      47.849   7.632  11.863  0.00  0.00    +0.000 C 
ATOM     18  C   UNL     1      47.248   8.788  12.651  0.00  0.00    +0.000 C 
ATOM     19  C   UNL     1      45.907   9.206  12.063  0.00  0.00    +0.000 C 
ATOM     20  C   UNL     1      44.934   8.032  12.036  0.00  0.00    +0.000 C 
ENDBRANCH  14  15
BRANCH  14  21
ATOM     21  C   UNL     1      45.161   4.405  12.257  0.00  0.00    +0.000 C 
BRANCH  21  23
ATOM     22  C   UNL     1      43.035   4.757  13.220  0.00  0.00    +0.000 C 
ATOM     23  O   UNL     1      44.207   3.951  13.222  0.00  0.00    +0.000 OA
ENDBRANCH  21  23
ENDBRANCH  14  21
ENDBRANCH   1  14
TORSDOF 6
ENDMDL
MODEL 2
REMARK VINA RESULT:    -7.009      1.899      2.748
REMARK INTER + INTRA:          -9.901
REMARK INTER:                  -9.219
REMARK INTRA:                  -0.682
REMARK UNBOUND:                -0.434
REMARK  Name = 
REMARK  7 active torsions:
REMARK  status: ('A' for Active; 'I' for Inactive)
REMARK    1  A    between atoms: C_1  and  O_2
REMARK    2  A    between atoms: O_2  and  C_3
REMARK    3  A    between atoms: C_3  and  C_4
REMARK    4  A    between atoms: C_4  and  N_5
REMARK    5  A    between atoms: C_4  and  C_15
REMARK    6  A    between atoms: N_5  and  C_6
REMARK    7  A    between atoms: C_9  and  C_10
REMARK                            x       y       z     vdW  Elec       q    Type
REMARK                         _______ _______ _______ _____ _____    ______ ____
ROOT
ATOM      1  N   UNL     1      44.462   5.109  10.137  0.00  0.00    +0.000 N 
ATOM      2  H   UNL     1      43.487   5.247   9.890  0.00  0.00    +0.000 HD
ENDROOT
BRANCH   1   3
ATOM      3  C   UNL     1      45.089   4.160   9.348  0.00  0.00    +0.000 A 
ATOM      4  C   UNL     1      45.871   4.456   8.236  0.00  0.00    +0.000 A 
ATOM      5  C   UNL     1      46.507   3.433   7.531  0.00  0.00    +0.000 A 
ATOM      6  C   UNL     1      46.371   2.128   7.981  0.00  0.00    +0.000 A 
ATOM      7  N   UNL     1      45.651   1.781   9.079  0.00  0.00    +0.000 NA
ATOM      8  C   UNL     1      45.048   2.808   9.727  0.00  0.00    +0.000 A 
BRANCH   6   9
ATOM      9  C   UNL     1      47.054   1.019   7.251  0.00  0.00    +0.000 C 
ATOM     10  N   UNL     1      46.784  -0.245   7.687  0.00  0.00    +0.000 N 
ATOM     11  O   UNL     1      47.818   1.223   6.309  0.00  0.00    +0.000 OA
ATOM     12  H   UNL     1      46.166  -0.381   8.481  0.00  0.00    +0.000 HD
ATOM     13  H   UNL     1      47.237  -1.031   7.246  0.00  0.00    +0.000 HD
ENDBRANCH   6   9
ENDBRANCH   1   3
BRANCH   1  14
ATOM     14  C   UNL     1      45.111   6.283  10.743  0.00  0.00    +0.000 C 
BRANCH  14  15
ATOM     15  C   UNL     1      46.268   5.797  11.675  0.00  0.00    +0.000 C 
ATOM     16  C   UNL     1      45.707   5.352  13.042  0.00  0.00    +0.000 C 
ATOM     17  C   UNL     1      46.806   4.947  14.018  0.00  0.00    +0.000 C 
ATOM     18  C   UNL     1      47.834   6.059  14.182  0.00  0.00    +0.000 C 
ATOM     19  C   UNL     1      48.460   6.421  12.843  0.00  0.00    +0.000 C 
ATOM     20  C   UNL     1      47.394   6.842  11.838  0.00  0.00    +0.000 C 
ENDBRANCH  14  15
BRANCH  14  21
ATOM     21  C   UNL     1      44.081   7.158  11.491  0.00  0.00    +0.000 C 
BRANCH  21  23
ATOM     22  C   UNL     1      44.782   9.343  12.042  0.00  0.00    +0.000 C 
ATOM     23  O   UNL     1      44.175   8.517  11.056  0.00  0.00    +0.000 OA
ENDBRANCH  21  23
ENDBRANCH  14  21
ENDBRANCH   1  14
TORSDOF 6
ENDMDL
MODEL 3
REMARK VINA RESULT:    -6.790      2.975      6.459
REMARK INTER + INTRA:          -9.605
REMARK INTER:                  -8.916
REMARK INTRA:                  -0.689
REMARK UNBOUND:                -0.434
REMARK  Name = 
REMARK  7 active torsions:
REMARK  status: ('A' for Active; 'I' for Inactive)
REMARK    1  A    between atoms: C_1  and  O_2
REMARK    2  A    between atoms: O_2  and  C_3
REMARK    3  A    between atoms: C_3  and  C_4
REMARK    4  A    between atoms: C_4  and  N_5
REMARK    5  A    between atoms: C_4  and  C_15
REMARK    6  A    between atoms: N_5  and  C_6
REMARK    7  A    between atoms: C_9  and  C_10
REMARK                            x       y       z     vdW  Elec       q    Type
REMARK                         _______ _______ _______ _____ _____    ______ ____
ROOT
ATOM      1  N   UNL     1      45.549   6.162  10.878  0.00  0.00    +0.000 N 
ATOM      2  H   UNL     1      45.373   6.969  10.287  0.00  0.00    +0.000 HD
ENDROOT
BRANCH   1   3
ATOM      3  C   UNL     1      46.433   6.432  11.908  0.00  0.00    +0.000 A 
ATOM      4  C   UNL     1      46.991   7.682  12.156  0.00  0.00    +0.000 A 
ATOM      5  C   UNL     1      47.834   7.871  13.253  0.00  0.00    +0.000 A 
ATOM      6  C   UNL     1      48.074   6.802  14.102  0.00  0.00    +0.000 A 
ATOM      7  N   UNL     1      47.530   5.568  13.933  0.00  0.00    +0.000 NA
ATOM      8  C   UNL     1      46.724   5.432  12.851  0.00  0.00    +0.000 A 
BRANCH   6   9
ATOM      9  C   UNL     1      48.961   6.984  15.290  0.00  0.00    +0.000 C 
ATOM     10  N   UNL     1      48.415   7.638  16.354  0.00  0.00    +0.000 N 
ATOM     11  O   UNL     1      50.119   6.571  15.315  0.00  0.00    +0.000 OA
ATOM     12  H   UNL     1      47.462   7.986  16.296  0.00  0.00    +0.000 HD
ATOM     13  H   UNL     1      48.977   7.810  17.174  0.00  0.00    +0.000 HD
ENDBRANCH   6   9
ENDBRANCH   1   3
BRANCH   1  14
ATOM     14  C   UNL     1      44.447   5.188  10.927  0.00  0.00    +0.000 C 
BRANCH  14  15
ATOM     15  C   UNL     1      44.535   4.260   9.672  0.00  0.00    +0.000 C 
ATOM     16  C   UNL     1      44.619   2.780  10.101  0.00  0.00    +0.000 C 
ATOM     17  C   UNL     1      44.791   1.839   8.914  0.00  0.00    +0.000 C 
ATOM     18  C   UNL     1      45.993   2.234   8.066  0.00  0.00    +0.000 C 
ATOM     19  C   UNL     1      45.853   3.663   7.559  0.00  0.00    +0.000 C 
ATOM     20  C   UNL     1      45.689   4.640   8.718  0.00  0.00    +0.000 C 
ENDBRANCH  14  15
BRANCH  14  21
ATOM     21  C   UNL     1      43.083   5.903  11.035  0.00  0.00    +0.000 C 
BRANCH  21  23
ATOM     22  C   UNL     1      43.024   4.786  13.113  0.00  0.00    +0.000 C 
ATOM     23  O   UNL     1      42.260   5.256  12.010  0.00  0.00    +0.000 OA
ENDBRANCH  21  23
ENDBRANCH  14  21
ENDBRANCH   1  14
TORSDOF 6
ENDMDL
MODEL 4
REMARK VINA RESULT:    -6.543      1.060      1.732
REMARK INTER + INTRA:          -9.271
REMARK INTER:                  -9.112
REMARK INTRA:                  -0.159
REMARK UNBOUND:                -0.434
REMARK  Name = 
REMARK  7 active torsions:
REMARK  status: ('A' for Active; 'I' for Inactive)
REMARK    1  A    between atoms: C_1  and  O_2
REMARK    2  A    between atoms: O_2  and  C_3
REMARK    3  A    between atoms: C_3  and  C_4
REMARK    4  A    between atoms: C_4  and  N_5
REMARK    5  A    between atoms: C_4  and  C_15
REMARK    6  A    between atoms: N_5  and  C_6
REMARK    7  A    between atoms: C_9  and  C_10
REMARK                            x       y       z     vdW  Elec       q    Type
REMARK                         _______ _______ _______ _____ _____    ______ ____
ROOT
ATOM      1  N   UNL     1      44.269   5.146  10.150  0.00  0.00    +0.000 N 
ATOM      2  H   UNL     1      44.064   6.081   9.811  0.00  0.00    +0.000 HD
ENDROOT
BRANCH   1   3
ATOM      3  C   UNL     1      45.020   4.402   9.257  0.00  0.00    +0.000 A 
ATOM      4  C   UNL     1      46.009   4.929   8.433  0.00  0.00    +0.000 A 
ATOM      5  C   UNL     1      46.752   4.090   7.600  0.00  0.00    +0.000 A 
ATOM      6  C   UNL     1      46.506   2.726   7.637  0.00  0.00    +0.000 A 
ATOM      7  N   UNL     1      45.580   2.149   8.445  0.00  0.00    +0.000 NA
ATOM      8  C   UNL     1      44.880   3.004   9.231  0.00  0.00    +0.000 A 
BRANCH   6   9
ATOM      9  C   UNL     1      47.298   1.808   6.765  0.00  0.00    +0.000 C 
ATOM     10  N   UNL     1      48.348   2.367   6.098  0.00  0.00    +0.000 N 
ATOM     11  O   UNL     1      47.026   0.614   6.650  0.00  0.00    +0.000 OA
ATOM     12  H   UNL     1      48.534   3.361   6.198  0.00  0.00    +0.000 HD
ATOM     13  H   UNL     1      48.902   1.798   5.476  0.00  0.00    +0.000 HD
ENDBRANCH   6   9
ENDBRANCH   1   3
BRANCH   1  14
ATOM     14  C   UNL     1      44.312   5.023  11.616  0.00  0.00    +0.000 C 
BRANCH  14  15
ATOM     15  C   UNL     1      44.717   6.405  12.228  0.00  0.00    +0.000 C 
ATOM     16  C   UNL     1      44.453   7.539  11.217  0.00  0.00    +0.000 C 
ATOM     17  C   UNL     1      44.910   8.898  11.735  0.00  0.00    +0.000 C 
ATOM     18  C   UNL     1      46.374   8.865  12.154  0.00  0.00    +0.000 C 
ATOM     19  C   UNL     1      46.607   7.812  13.229  0.00  0.00    +0.000 C 
ATOM     20  C   UNL     1      46.171   6.433  12.746  0.00  0.00    +0.000 C 
ENDBRANCH  14  15
BRANCH  14  21
ATOM     21  C   UNL     1      45.265   3.887  12.047  0.00  0.00    +0.000 C 
BRANCH  21  23
ATOM     22  C   UNL     1      43.393   2.483  12.350  0.00  0.00    +0.000 C 
ATOM     23  O   UNL     1      44.593   2.983  12.928  0.00  0.00    +0.000 OA
ENDBRANCH  21  23
ENDBRANCH  14  21
ENDBRANCH   1  14
TORSDOF 6
ENDMDL
MODEL 5
REMARK VINA RESULT:    -6.353      3.448      6.504
REMARK INTER + INTRA:          -9.015
REMARK INTER:                  -8.412
REMARK INTRA:                  -0.603
REMARK UNBOUND:                -0.434
REMARK  Name = 
REMARK  7 active torsions:
REMARK  status: ('A' for Active; 'I' for Inactive)
REMARK    1  A    between atoms: C_1  and  O_2
REMARK    2  A    between atoms: O_2  and  C_3
REMARK    3  A    between atoms: C_3  and  C_4
REMARK    4  A    between atoms: C_4  and  N_5
REMARK    5  A    between atoms: C_4  and  C_15
REMARK    6  A    between atoms: N_5  and  C_6
REMARK    7  A    between atoms: C_9  and  C_10
REMARK                            x       y       z     vdW  Elec       q    Type
REMARK                         _______ _______ _______ _____ _____    ______ ____
ROOT
ATOM      1  N   UNL     1      46.003   5.504  11.801  0.00  0.00    +0.000 N 
ATOM      2  H   UNL     1      46.426   6.370  11.482  0.00  0.00    +0.000 HD
ENDROOT
BRANCH   1   3
ATOM      3  C   UNL     1      46.561   5.031  12.976  0.00  0.00    +0.000 A 
ATOM      4  C   UNL     1      46.979   5.840  14.027  0.00  0.00    +0.000 A 
ATOM      5  C   UNL     1      47.484   5.269  15.197  0.00  0.00    +0.000 A 
ATOM      6  C   UNL     1      47.527   3.887  15.299  0.00  0.00    +0.000 A 
ATOM      7  N   UNL     1      47.101   3.045  14.321  0.00  0.00    +0.000 NA
ATOM      8  C   UNL     1      46.625   3.647  13.203  0.00  0.00    +0.000 A 
BRANCH   6   9
ATOM      9  C   UNL     1      48.050   3.253  16.546  0.00  0.00    +0.000 C 
ATOM     10  N   UNL     1      47.126   2.963  17.506  0.00  0.00    +0.000 N 
ATOM     11  O   UNL     1      49.243   3.004  16.706  0.00  0.00    +0.000 OA
ATOM     12  H   UNL     1      46.151   3.200  17.353  0.00  0.00    +0.000 HD
ATOM     13  H   UNL     1      47.427   2.556  18.379  0.00  0.00    +0.000 HD
ENDBRANCH   6   9
ENDBRANCH   1   3
BRANCH   1  14
ATOM     14  C   UNL     1      44.604   5.317  11.381  0.00  0.00    +0.000 C 
BRANCH  14  15
ATOM     15  C   UNL     1      44.581   4.491  10.053  0.00  0.00    +0.000 C 
ATOM     16  C   UNL     1      44.522   2.980  10.361  0.00  0.00    +0.000 C 
ATOM     17  C   UNL     1      44.582   2.127   9.099  0.00  0.00    +0.000 C 
ATOM     18  C   UNL     1      45.805   2.469   8.259  0.00  0.00    +0.000 C 
ATOM     19  C   UNL     1      45.802   3.941   7.871  0.00  0.00    +0.000 C 
ATOM     20  C   UNL     1      45.753   4.832   9.107  0.00  0.00    +0.000 C 
ENDBRANCH  14  15
BRANCH  14  21
ATOM     21  C   UNL     1      43.884   6.676  11.240  0.00  0.00    +0.000 C 
BRANCH  21  23
ATOM     22  C   UNL     1      44.240   9.007  11.122  0.00  0.00    +0.000 C 
ATOM     23  O   UNL     1      44.798   7.749  11.485  0.00  0.00    +0.000 OA
ENDBRANCH  21  23
ENDBRANCH  14  21
ENDBRANCH   1  14
TORSDOF 6
ENDMDL
MODEL 6
REMARK VINA RESULT:    -6.272      1.450      1.590
REMARK INTER + INTRA:          -8.905
REMARK INTER:                  -8.444
REMARK INTRA:                  -0.461
REMARK UNBOUND:                -0.434
REMARK  Name = 
REMARK  7 active torsions:
REMARK  status: ('A' for Active; 'I' for Inactive)
REMARK    1  A    between atoms: C_1  and  O_2
REMARK    2  A    between atoms: O_2  and  C_3
REMARK    3  A    between atoms: C_3  and  C_4
REMARK    4  A    between atoms: C_4  and  N_5
REMARK    5  A    between atoms: C_4  and  C_15
REMARK    6  A    between atoms: N_5  and  C_6
REMARK    7  A    between atoms: C_9  and  C_10
REMARK                            x       y       z     vdW  Elec       q    Type
REMARK                         _______ _______ _______ _____ _____    ______ ____
ROOT
ATOM      1  N   UNL     1      44.532   5.106  11.339  0.00  0.00    +0.000 N 
ATOM      2  H   UNL     1      43.725   5.665  11.081  0.00  0.00    +0.000 HD
ENDROOT
BRANCH   1   3
ATOM      3  C   UNL     1      45.041   4.373  10.280  0.00  0.00    +0.000 A 
ATOM      4  C   UNL     1      44.895   2.998  10.134  0.00  0.00    +0.000 A 
ATOM      5  C   UNL     1      45.399   2.352   9.004  0.00  0.00    +0.000 A 
ATOM      6  C   UNL     1      46.014   3.112   8.020  0.00  0.00    +0.000 A 
ATOM      7  N   UNL     1      46.155   4.462   8.089  0.00  0.00    +0.000 NA
ATOM      8  C   UNL     1      45.655   5.042   9.208  0.00  0.00    +0.000 A 
BRANCH   6   9
ATOM      9  C   UNL     1      46.548   2.445   6.796  0.00  0.00    +0.000 C 
ATOM     10  N   UNL     1      47.085   1.204   6.972  0.00  0.00    +0.000 N 
ATOM     11  O   UNL     1      46.511   2.977   5.688  0.00  0.00    +0.000 OA
ATOM     12  H   UNL     1      47.121   0.800   7.903  0.00  0.00    +0.000 HD
ATOM     13  H   UNL     1      47.483   0.717   6.183  0.00  0.00    +0.000 HD
ENDBRANCH   6   9
ENDBRANCH   1   3
BRANCH   1  14
ATOM     14  C   UNL     1      45.315   5.645  12.462  0.00  0.00    +0.000 C 
BRANCH  14  15
ATOM     15  C   UNL     1      46.039   6.950  11.995  0.00  0.00    +0.000 C 
ATOM     16  C   UNL     1      47.567   6.798  12.138  0.00  0.00    +0.000 C 
ATOM     17  C   UNL     1      48.315   8.076  11.773  0.00  0.00    +0.000 C 
ATOM     18  C   UNL     1      47.803   9.263  12.579  0.00  0.00    +0.000 C 
ATOM     19  C   UNL     1      46.312   9.471  12.351  0.00  0.00    +0.000 C 
ATOM     20  C   UNL     1      45.525   8.217  12.714  0.00  0.00    +0.000 C 
ENDBRANCH  14  15
BRANCH  14  21
ATOM     21  C   UNL     1      46.302   4.588  13.004  0.00  0.00    +0.000 C 
BRANCH  21  23
ATOM     22  C   UNL     1      47.059   4.385  15.230  0.00  0.00    +0.000 C 
ATOM     23  O   UNL     1      45.957   4.229  14.345  0.00  0.00    +0.000 OA
ENDBRANCH  21  23
ENDBRANCH  14  21
ENDBRANCH   1  14
TORSDOF 6
ENDMDL
MODEL 7
REMARK VINA RESULT:    -6.015      3.933      5.367
REMARK INTER + INTRA:          -8.558
REMARK INTER:                  -7.913
REMARK INTRA:                  -0.645
REMARK UNBOUND:                -0.434
REMARK  Name = 
REMARK  7 active torsions:
REMARK  status: ('A' for Active; 'I' for Inactive)
REMARK    1  A    between atoms: C_1  and  O_2
REMARK    2  A    between atoms: O_2  and  C_3
REMARK    3  A    between atoms: C_3  and  C_4
REMARK    4  A    between atoms: C_4  and  N_5
REMARK    5  A    between atoms: C_4  and  C_15
REMARK    6  A    between atoms: N_5  and  C_6
REMARK    7  A    between atoms: C_9  and  C_10
REMARK                            x       y       z     vdW  Elec       q    Type
REMARK                         _______ _______ _______ _____ _____    ______ ____
ROOT
ATOM      1  N   UNL     1      46.246   5.507  14.017  0.00  0.00    +0.000 N 
ATOM      2  H   UNL     1      45.781   6.358  14.317  0.00  0.00    +0.000 HD
ENDROOT
BRANCH   1   3
ATOM      3  C   UNL     1      45.783   5.041  12.799  0.00  0.00    +0.000 A 
ATOM      4  C   UNL     1      45.712   5.809  11.641  0.00  0.00    +0.000 A 
ATOM      5  C   UNL     1      45.279   5.237  10.443  0.00  0.00    +0.000 A 
ATOM      6  C   UNL     1      44.956   3.888  10.426  0.00  0.00    +0.000 A 
ATOM      7  N   UNL     1      45.040   3.080  11.515  0.00  0.00    +0.000 NA
ATOM      8  C   UNL     1      45.459   3.682  12.655  0.00  0.00    +0.000 A 
BRANCH   6   9
ATOM      9  C   UNL     1      44.504   3.252   9.153  0.00  0.00    +0.000 C 
ATOM     10  N   UNL     1      44.132   4.102   8.154  0.00  0.00    +0.000 N 
ATOM     11  O   UNL     1      44.467   2.032   9.006  0.00  0.00    +0.000 OA
ATOM     12  H   UNL     1      44.155   5.104   8.313  0.00  0.00    +0.000 HD
ATOM     13  H   UNL     1      43.796   3.725   7.280  0.00  0.00    +0.000 HD
ENDBRANCH   6   9
ENDBRANCH   1   3
BRANCH   1  14
ATOM     14  C   UNL     1      47.615   5.344  14.533  0.00  0.00    +0.000 C 
BRANCH  14  15
ATOM     15  C   UNL     1      47.542   4.887  16.027  0.00  0.00    +0.000 C 
ATOM     16  C   UNL     1      48.645   5.580  16.855  0.00  0.00    +0.000 C 
ATOM     17  C   UNL     1      48.669   5.103  18.303  0.00  0.00    +0.000 C 
ATOM     18  C   UNL     1      48.792   3.588  18.384  0.00  0.00    +0.000 C 
ATOM     19  C   UNL     1      47.641   2.911  17.652  0.00  0.00    +0.000 C 
ATOM     20  C   UNL     1      47.587   3.353  16.194  0.00  0.00    +0.000 C 
ENDBRANCH  14  15
BRANCH  14  21
ATOM     21  C   UNL     1      48.431   6.643  14.354  0.00  0.00    +0.000 C 
BRANCH  21  23
ATOM     22  C   UNL     1      48.863   7.729  12.304  0.00  0.00    +0.000 C 
ATOM     23  O   UNL     1      49.160   6.605  13.124  0.00  0.00    +0.000 OA
ENDBRANCH  21  23
ENDBRANCH  14  21
ENDBRANCH   1  14
TORSDOF 6
ENDMDL
MODEL 8
REMARK VINA RESULT:    -5.568      3.697      5.244
REMARK INTER + INTRA:          -7.954
REMARK INTER:                  -7.136
REMARK INTRA:                  -0.819
REMARK UNBOUND:                -0.434
REMARK  Name = 
REMARK  7 active torsions:
REMARK  status: ('A' for Active; 'I' for Inactive)
REMARK    1  A    between atoms: C_1  and  O_2
REMARK    2  A    between atoms: O_2  and  C_3
REMARK    3  A    between atoms: C_3  and  C_4
REMARK    4  A    between atoms: C_4  and  N_5
REMARK    5  A    between atoms: C_4  and  C_15
REMARK    6  A    between atoms: N_5  and  C_6
REMARK    7  A    between atoms: C_9  and  C_10
REMARK                            x       y       z     vdW  Elec       q    Type
REMARK                         _______ _______ _______ _____ _____    ______ ____
ROOT
ATOM      1  N   UNL     1      48.270   6.452  13.402  0.00  0.00    +0.000 N 
ATOM      2  H   UNL     1      49.106   5.880  13.475  0.00  0.00    +0.000 HD
ENDROOT
BRANCH   1   3
ATOM      3  C   UNL     1      47.172   5.745  12.942  0.00  0.00    +0.000 A 
ATOM      4  C   UNL     1      46.407   6.113  11.841  0.00  0.00    +0.000 A 
ATOM      5  C   UNL     1      45.347   5.308  11.420  0.00  0.00    +0.000 A 
ATOM      6  C   UNL     1      45.097   4.125  12.099  0.00  0.00    +0.000 A 
ATOM      7  N   UNL     1      45.831   3.695  13.158  0.00  0.00    +0.000 NA
ATOM      8  C   UNL     1      46.846   4.513  13.533  0.00  0.00    +0.000 A 
BRANCH   6   9
ATOM      9  C   UNL     1      43.978   3.241  11.658  0.00  0.00    +0.000 C 
ATOM     10  N   UNL     1      43.676   2.196  12.481  0.00  0.00    +0.000 N 
ATOM     11  O   UNL     1      43.359   3.436  10.614  0.00  0.00    +0.000 OA
ATOM     12  H   UNL     1      44.219   2.049  13.326  0.00  0.00    +0.000 HD
ATOM     13  H   UNL     1      42.944   1.553  12.220  0.00  0.00    +0.000 HD
ENDBRANCH   6   9
ENDBRANCH   1   3
BRANCH   1  14
ATOM     14  C   UNL     1      48.227   7.593  14.331  0.00  0.00    +0.000 C 
BRANCH  14  15
ATOM     15  C   UNL     1      48.687   8.881  13.572  0.00  0.00    +0.000 C 
ATOM     16  C   UNL     1      47.478   9.579  12.915  0.00  0.00    +0.000 C 
ATOM     17  C   UNL     1      47.886  10.795  12.092  0.00  0.00    +0.000 C 
ATOM     18  C   UNL     1      48.940  10.432  11.055  0.00  0.00    +0.000 C 
ATOM     19  C   UNL     1      50.175   9.839  11.721  0.00  0.00    +0.000 C 
ATOM     20  C   UNL     1      49.811   8.611  12.548  0.00  0.00    +0.000 C 
ENDBRANCH  14  15
BRANCH  14  21
ATOM     21  C   UNL     1      49.082   7.314  15.587  0.00  0.00    +0.000 C 
BRANCH  21  23
ATOM     22  C   UNL     1      48.683   5.389  16.893  0.00  0.00    +0.000 C 
ATOM     23  O   UNL     1      49.312   5.909  15.728  0.00  0.00    +0.000 OA
ENDBRANCH  21  23
ENDBRANCH  14  21
ENDBRANCH   1  14
TORSDOF 6
ENDMDL
MODEL 9
REMARK VINA RESULT:    -5.540      4.271      7.208
REMARK INTER + INTRA:          -7.916
REMARK INTER:                  -7.309
REMARK INTRA:                  -0.607
REMARK UNBOUND:                -0.434
REMARK  Name = 
REMARK  7 active torsions:
REMARK  status: ('A' for Active; 'I' for Inactive)
REMARK    1  A    between atoms: C_1  and  O_2
REMARK    2  A    between atoms: O_2  and  C_3
REMARK    3  A    between atoms: C_3  and  C_4
REMARK    4  A    between atoms: C_4  and  N_5
REMARK    5  A    between atoms: C_4  and  C_15
REMARK    6  A    between atoms: N_5  and  C_6
REMARK    7  A    between atoms: C_9  and  C_10
REMARK                            x       y       z     vdW  Elec       q    Type
REMARK                         _______ _______ _______ _____ _____    ______ ____
ROOT
ATOM      1  N   UNL     1      46.648   5.546  12.715  0.00  0.00    +0.000 N 
ATOM      2  H   UNL     1      47.359   5.654  11.998  0.00  0.00    +0.000 HD
ENDROOT
BRANCH   1   3
ATOM      3  C   UNL     1      47.180   5.414  13.987  0.00  0.00    +0.000 A 
ATOM      4  C   UNL     1      46.872   4.379  14.863  0.00  0.00    +0.000 A 
ATOM      5  C   UNL     1      47.499   4.300  16.108  0.00  0.00    +0.000 A 
ATOM      6  C   UNL     1      48.454   5.252  16.435  0.00  0.00    +0.000 A 
ATOM      7  N   UNL     1      48.822   6.265  15.607  0.00  0.00    +0.000 NA
ATOM      8  C   UNL     1      48.181   6.302  14.413  0.00  0.00    +0.000 A 
BRANCH   6   9
ATOM      9  C   UNL     1      49.148   5.181  17.755  0.00  0.00    +0.000 C 
ATOM     10  N   UNL     1      49.428   3.930  18.221  0.00  0.00    +0.000 N 
ATOM     11  O   UNL     1      49.454   6.187  18.392  0.00  0.00    +0.000 OA
ATOM     12  H   UNL     1      49.144   3.118  17.681  0.00  0.00    +0.000 HD
ATOM     13  H   UNL     1      49.874   3.822  19.119  0.00  0.00    +0.000 HD
ENDBRANCH   6   9
ENDBRANCH   1   3
BRANCH   1  14
ATOM     14  C   UNL     1      45.352   6.162  12.389  0.00  0.00    +0.000 C 
BRANCH  14  15
ATOM     15  C   UNL     1      44.571   5.216  11.419  0.00  0.00    +0.000 C 
ATOM     16  C   UNL     1      44.347   3.838  12.077  0.00  0.00    +0.000 C 
ATOM     17  C   UNL     1      43.663   2.851  11.138  0.00  0.00    +0.000 C 
ATOM     18  C   UNL     1      44.425   2.716   9.827  0.00  0.00    +0.000 C 
ATOM     19  C   UNL     1      44.552   4.065   9.132  0.00  0.00    +0.000 C 
ATOM     20  C   UNL     1      45.242   5.081  10.035  0.00  0.00    +0.000 C 
ENDBRANCH  14  15
BRANCH  14  21
ATOM     21  C   UNL     1      45.547   7.577  11.799  0.00  0.00    +0.000 C 
BRANCH  21  23
ATOM     22  C   UNL     1      45.026   9.838  12.229  0.00  0.00    +0.000 C 
ATOM     23  O   UNL     1      45.313   8.569  12.803  0.00  0.00    +0.000 OA
ENDBRANCH  21  23
ENDBRANCH  14  21
ENDBRANCH   1  14
TORSDOF 6
ENDMDL
