MODEL 1
REMARK VINA RESULT:    -6.452      0.000      0.000
REMARK INTER + INTRA:          -8.797
REMARK INTER:                  -7.960
REMARK INTRA:                  -0.837
REMARK UNBOUND:                -0.837
REMARK  Name = 
REMARK  7 active torsions:
REMARK  status: ('A' for Active; 'I' for Inactive)
REMARK    1  A    between atoms: C_1  and  C_2
REMARK    2  A    between atoms: C_2  and  C_3
REMARK    3  A    between atoms: C_2  and  C_4
REMARK    4  A    between atoms: C_2  and  C_5
REMARK    5  A    between atoms: C_10  and  C_11
REMARK    6  A    between atoms: N_16  and  C_17
REMARK    7  A    between atoms: C_17  and  C_18
REMARK                            x       y       z     vdW  Elec       q    Type
REMARK                         _______ _______ _______ _____ _____    ______ ____
ROOT
ATOM      1  C   UNL     1      45.071   4.638  12.272  0.00  0.00    +0.000 A 
ATOM      2  N   UNL     1      45.369   3.758  13.216  0.00  0.00    +0.000 NA
ATOM      3  C   UNL     1      46.306   4.322  13.996  0.00  0.00    +0.000 A 
ATOM      4  N   UNL     1      46.782   3.789  15.144  0.00  0.00    +0.000 NA
ATOM      5  C   UNL     1      47.680   4.591  15.758  0.00  0.00    +0.000 A 
ATOM      6  C   UNL     1      48.088   5.821  15.248  0.00  0.00    +0.000 A 
ATOM      7  N   UNL     1      47.626   6.385  14.073  0.00  0.00    +0.000 NA
ATOM      8  C   UNL     1      46.709   5.560  13.497  0.00  0.00    +0.000 A 
ATOM      9  N   UNL     1      45.953   5.730  12.346  0.00  0.00    +0.000 N 
ENDROOT
BRANCH   6  10
ATOM     10  C   UNL     1      49.114   6.567  16.029  0.00  0.00    +0.000 C 
ATOM     11  N   UNL     1      48.666   7.620  16.777  0.00  0.00    +0.000 N 
ATOM     12  O   UNL     1      50.299   6.268  16.006  0.00  0.00    +0.000 OA
ATOM     13  H   UNL     1      47.680   7.866  16.780  0.00  0.00    +0.000 HD
ATOM     14  H   UNL     1      49.331   8.165  17.304  0.00  0.00    +0.000 HD
ENDBRANCH   6  10
BRANCH   1  16
ATOM     15  C   UNL     1      43.409   2.878  11.650  0.00  0.00    +0.000 C 
ATOM     16  C   UNL     1      43.887   4.331  11.338  0.00  0.00    +0.000 C 
ATOM     17  C   UNL     1      44.368   4.351   9.877  0.00  0.00    +0.000 C 
ATOM     18  C   UNL     1      42.652   5.223  11.492  0.00  0.00    +0.000 C 
ENDBRANCH   1  16
BRANCH   9  19
ATOM     19  C   UNL     1      45.990   6.932  11.534  0.00  0.00    +0.000 C 
BRANCH  19  20
ATOM     20  C   UNL     1      45.313   8.241  12.051  0.00  0.00    +0.000 C 
ATOM     21  C   UNL     1      44.094   8.548  11.140  0.00  0.00    +0.000 C 
ATOM     22  C   UNL     1      43.800  10.018  10.869  0.00  0.00    +0.000 C 
ATOM     23  O   UNL     1      45.003  10.747  10.674  0.00  0.00    +0.000 OA
ATOM     24  C   UNL     1      45.769  10.775  11.871  0.00  0.00    +0.000 C 
ATOM     25  C   UNL     1      46.326   9.392  12.169  0.00  0.00    +0.000 C 
ENDBRANCH  19  20
ENDBRANCH   9  19
TORSDOF 4
ENDMDL
MODEL 2
REMARK VINA RESULT:    -6.264      2.363      4.970
REMARK INTER + INTRA:          -8.566
REMARK INTER:                  -7.716
REMARK INTRA:                  -0.850
REMARK UNBOUND:                -0.837
REMARK  Name = 
REMARK  7 active torsions:
REMARK  status: ('A' for Active; 'I' for Inactive)
REMARK    1  A    between atoms: C_1  and  C_2
REMARK    2  A    between atoms: C_2  and  C_3
REMARK    3  A    between atoms: C_2  and  C_4
REMARK    4  A    between atoms: C_2  and  C_5
REMARK    5  A    between atoms: C_10  and  C_11
REMARK    6  A    between atoms: N_16  and  C_17
REMARK    7  A    between atoms: C_17  and  C_18
REMARK                            x       y       z     vdW  Elec       q    Type
REMARK                         _______ _______ _______ _____ _____    ______ ____
ROOT
ATOM      1  C   UNL     1      47.954   6.748  13.846  0.00  0.00    +0.000 A 
ATOM      2  N   UNL     1      47.841   5.558  14.416  0.00  0.00    +0.000 NA
ATOM      3  C   UNL     1      46.973   4.849  13.675  0.00  0.00    +0.000 A 
ATOM      4  N   UNL     1      46.686   3.540  13.859  0.00  0.00    +0.000 NA
ATOM      5  C   UNL     1      45.820   3.062  12.938  0.00  0.00    +0.000 A 
ATOM      6  C   UNL     1      45.266   3.841  11.926  0.00  0.00    +0.000 A 
ATOM      7  N   UNL     1      45.534   5.183  11.720  0.00  0.00    +0.000 NA
ATOM      8  C   UNL     1      46.426   5.620  12.651  0.00  0.00    +0.000 A 
ATOM      9  N   UNL     1      47.015   6.867  12.807  0.00  0.00    +0.000 N 
ENDROOT
BRANCH   6  10
ATOM     10  C   UNL     1      44.299   3.170  11.013  0.00  0.00    +0.000 C 
ATOM     11  N   UNL     1      44.832   2.421  10.001  0.00  0.00    +0.000 N 
ATOM     12  O   UNL     1      43.088   3.282  11.146  0.00  0.00    +0.000 OA
ATOM     13  H   UNL     1      45.840   2.345   9.894  0.00  0.00    +0.000 HD
ATOM     14  H   UNL     1      44.212   1.968   9.348  0.00  0.00    +0.000 HD
ENDBRANCH   6  10
BRANCH   1  16
ATOM     15  C   UNL     1      49.791   6.976  15.525  0.00  0.00    +0.000 C 
ATOM     16  C   UNL     1      49.028   7.713  14.380  0.00  0.00    +0.000 C 
ATOM     17  C   UNL     1      48.347   8.943  15.002  0.00  0.00    +0.000 C 
ATOM     18  C   UNL     1      50.097   8.159  13.380  0.00  0.00    +0.000 C 
ENDBRANCH   1  16
BRANCH   9  19
ATOM     19  C   UNL     1      46.791   7.977  11.899  0.00  0.00    +0.000 C 
BRANCH  19  20
ATOM     20  C   UNL     1      45.662   9.013  12.202  0.00  0.00    +0.000 C 
ATOM     21  C   UNL     1      44.426   8.651  11.336  0.00  0.00    +0.000 C 
ATOM     22  C   UNL     1      43.598   9.815  10.809  0.00  0.00    +0.000 C 
ATOM     23  O   UNL     1      44.435  10.885  10.395  0.00  0.00    +0.000 OA
ATOM     24  C   UNL     1      45.123  11.441  11.509  0.00  0.00    +0.000 C 
ATOM     25  C   UNL     1      46.161  10.458  12.027  0.00  0.00    +0.000 C 
ENDBRANCH  19  20
ENDBRANCH   9  19
TORSDOF 4
ENDMDL
MODEL 3
REMARK VINA RESULT:    -6.106      2.549      4.901
REMARK INTER + INTRA:          -8.370
REMARK INTER:                  -7.543
REMARK INTRA:                  -0.827
REMARK UNBOUND:                -0.837
REMARK  Name = 
REMARK  7 active torsions:
REMARK  status: ('A' for Active; 'I' for Inactive)
REMARK    1  A    between atoms: C_1  and  C_2
REMARK    2  A    between atoms: C_2  and  C_3
REMARK    3  A    between atoms: C_2  and  C_4
REMARK    4  A    between atoms: C_2  and  C_5
REMARK    5  A    between atoms: C_10  and  C_11
REMARK    6  A    between atoms: N_16  and  C_17
REMARK    7  A    between atoms: C_17  and  C_18
REMARK                            x       y       z     vdW  Elec       q    Type
REMARK                         _______ _______ _______ _____ _____    ______ ____
ROOT
ATOM      1  C   UNL     1      48.449   7.473  13.770  0.00  0.00    +0.000 A 
ATOM      2  N   UNL     1      49.019   7.767  14.929  0.00  0.00    +0.000 NA
ATOM      3  C   UNL     1      48.750   6.752  15.767  0.00  0.00    +0.000 A 
ATOM      4  N   UNL     1      49.263   6.617  17.011  0.00  0.00    +0.000 NA
ATOM      5  C   UNL     1      48.869   5.475  17.616  0.00  0.00    +0.000 A 
ATOM      6  C   UNL     1      48.008   4.550  17.030  0.00  0.00    +0.000 A 
ATOM      7  N   UNL     1      47.462   4.667  15.764  0.00  0.00    +0.000 NA
ATOM      8  C   UNL     1      47.900   5.816  15.180  0.00  0.00    +0.000 A 
ATOM      9  N   UNL     1      47.656   6.321  13.910  0.00  0.00    +0.000 N 
ENDROOT
BRANCH   6  10
ATOM     10  C   UNL     1      47.643   3.359  17.845  0.00  0.00    +0.000 C 
ATOM     11  N   UNL     1      48.407   3.119  18.954  0.00  0.00    +0.000 N 
ATOM     12  O   UNL     1      46.715   2.621  17.546  0.00  0.00    +0.000 OA
ATOM     13  H   UNL     1      49.184   3.733  19.186  0.00  0.00    +0.000 HD
ATOM     14  H   UNL     1      48.207   2.310  19.521  0.00  0.00    +0.000 HD
ENDBRANCH   6  10
BRANCH   1  16
ATOM     15  C   UNL     1      49.753   9.475  13.035  0.00  0.00    +0.000 C 
ATOM     16  C   UNL     1      48.747   8.378  12.562  0.00  0.00    +0.000 C 
ATOM     17  C   UNL     1      47.458   9.097  12.129  0.00  0.00    +0.000 C 
ATOM     18  C   UNL     1      49.398   7.703  11.352  0.00  0.00    +0.000 C 
ENDBRANCH   1  16
BRANCH   9  19
ATOM     19  C   UNL     1      46.870   5.624  12.909  0.00  0.00    +0.000 C 
BRANCH  19  20
ATOM     20  C   UNL     1      45.311   5.627  13.004  0.00  0.00    +0.000 C 
ATOM     21  C   UNL     1      44.821   4.154  12.979  0.00  0.00    +0.000 C 
ATOM     22  C   UNL     1      43.506   3.887  12.260  0.00  0.00    +0.000 C 
ATOM     23  O   UNL     1      43.410   4.661  11.074  0.00  0.00    +0.000 OA
ATOM     24  C   UNL     1      43.343   6.046  11.386  0.00  0.00    +0.000 C 
ATOM     25  C   UNL     1      44.682   6.526  11.926  0.00  0.00    +0.000 C 
ENDBRANCH  19  20
ENDBRANCH   9  19
TORSDOF 4
ENDMDL
MODEL 4
REMARK VINA RESULT:    -5.803      2.278      2.980
REMARK INTER + INTRA:          -7.997
REMARK INTER:                  -7.273
REMARK INTRA:                  -0.724
REMARK UNBOUND:                -0.837
REMARK  Name = 
REMARK  7 active torsions:
REMARK  status: ('A' for Active; 'I' for Inactive)
REMARK    1  A    between atoms: C_1  and  C_2
REMARK    2  A    between atoms: C_2  and  C_3
REMARK    3  A    between atoms: C_2  and  C_4
REMARK    4  A    between atoms: C_2  and  C_5
REMARK    5  A    between atoms: C_10  and  C_11
REMARK    6  A    between atoms: N_16  and  C_17
REMARK    7  A    between atoms: C_17  and  C_18
REMARK                            x       y       z     vdW  Elec       q    Type
REMARK                         _______ _______ _______ _____ _____    ______ ____
ROOT
ATOM      1  C   UNL     1      46.189   4.918  13.001  0.00  0.00    +0.000 A 
ATOM      2  N   UNL     1      46.420   3.767  13.614  0.00  0.00    +0.000 NA
ATOM      3  C   UNL     1      47.188   4.039  14.682  0.00  0.00    +0.000 A 
ATOM      4  N   UNL     1      47.536   3.144  15.633  0.00  0.00    +0.000 NA
ATOM      5  C   UNL     1      48.271   3.696  16.625  0.00  0.00    +0.000 A 
ATOM      6  C   UNL     1      48.647   5.036  16.648  0.00  0.00    +0.000 A 
ATOM      7  N   UNL     1      48.313   5.971  15.685  0.00  0.00    +0.000 NA
ATOM      8  C   UNL     1      47.557   5.383  14.718  0.00  0.00    +0.000 A 
ATOM      9  N   UNL     1      46.961   5.933  13.592  0.00  0.00    +0.000 N 
ENDROOT
BRANCH   6  10
ATOM     10  C   UNL     1      49.488   5.479  17.795  0.00  0.00    +0.000 C 
ATOM     11  N   UNL     1      50.107   4.495  18.516  0.00  0.00    +0.000 N 
ATOM     12  O   UNL     1      49.621   6.658  18.092  0.00  0.00    +0.000 OA
ATOM     13  H   UNL     1      49.981   3.518  18.265  0.00  0.00    +0.000 HD
ATOM     14  H   UNL     1      50.668   4.751  19.313  0.00  0.00    +0.000 HD
ENDBRANCH   6  10
BRANCH   1  16
ATOM     15  C   UNL     1      43.922   5.726  12.324  0.00  0.00    +0.000 C 
ATOM     16  C   UNL     1      45.179   4.936  11.840  0.00  0.00    +0.000 C 
ATOM     17  C   UNL     1      44.726   3.499  11.533  0.00  0.00    +0.000 C 
ATOM     18  C   UNL     1      45.638   5.624  10.551  0.00  0.00    +0.000 C 
ENDBRANCH   1  16
BRANCH   9  19
ATOM     19  C   UNL     1      47.017   7.347  13.267  0.00  0.00    +0.000 C 
BRANCH  19  20
ATOM     20  C   UNL     1      47.863   7.830  12.046  0.00  0.00    +0.000 C 
ATOM     21  C   UNL     1      49.256   7.150  12.121  0.00  0.00    +0.000 C 
ATOM     22  C   UNL     1      50.444   7.978  11.648  0.00  0.00    +0.000 C 
ATOM     23  O   UNL     1      50.318   9.329  12.065  0.00  0.00    +0.000 OA
ATOM     24  C   UNL     1      49.207   9.946  11.428  0.00  0.00    +0.000 C 
ATOM     25  C   UNL     1      47.907   9.366  11.963  0.00  0.00    +0.000 C 
ENDBRANCH  19  20
ENDBRANCH   9  19
TORSDOF 4
ENDMDL
MODEL 5
REMARK VINA RESULT:    -5.801      2.742      5.646
REMARK INTER + INTRA:          -7.994
REMARK INTER:                  -7.352
REMARK INTRA:                  -0.643
REMARK UNBOUND:                -0.837
REMARK  Name = 
REMARK  7 active torsions:
REMARK  status: ('A' for Active; 'I' for Inactive)
REMARK    1  A    between atoms: C_1  and  C_2
REMARK    2  A    between atoms: C_2  and  C_3
REMARK    3  A    between atoms: C_2  and  C_4
REMARK    4  A    between atoms: C_2  and  C_5
REMARK    5  A    between atoms: C_10  and  C_11
REMARK    6  A    between atoms: N_16  and  C_17
REMARK    7  A    between atoms: C_17  and  C_18
REMARK                            x       y       z     vdW  Elec       q    Type
REMARK                         _______ _______ _______ _____ _____    ______ ____
ROOT
ATOM      1  C   UNL     1      48.105   6.415  14.740  0.00  0.00    +0.000 A 
ATOM      2  N   UNL     1      47.761   5.148  14.918  0.00  0.00    +0.000 NA
ATOM      3  C   UNL     1      46.916   4.828  13.925  0.00  0.00    +0.000 A 
ATOM      4  N   UNL     1      46.437   3.587  13.684  0.00  0.00    +0.000 NA
ATOM      5  C   UNL     1      45.648   3.536  12.588  0.00  0.00    +0.000 A 
ATOM      6  C   UNL     1      45.342   4.648  11.808  0.00  0.00    +0.000 A 
ATOM      7  N   UNL     1      45.809   5.930  12.036  0.00  0.00    +0.000 NA
ATOM      8  C   UNL     1      46.617   5.936  13.132  0.00  0.00    +0.000 A 
ATOM      9  N   UNL     1      47.339   6.974  13.704  0.00  0.00    +0.000 N 
ENDROOT
BRANCH   6  10
ATOM     10  C   UNL     1      44.426   4.430  10.653  0.00  0.00    +0.000 C 
ATOM     11  N   UNL     1      43.629   5.482  10.297  0.00  0.00    +0.000 N 
ATOM     12  O   UNL     1      44.375   3.367  10.051  0.00  0.00    +0.000 OA
ATOM     13  H   UNL     1      43.673   6.358  10.812  0.00  0.00    +0.000 HD
ATOM     14  H   UNL     1      42.980   5.369   9.534  0.00  0.00    +0.000 HD
ENDBRANCH   6  10
BRANCH   1  16
ATOM     15  C   UNL     1      49.616   5.899  16.664  0.00  0.00    +0.000 C 
ATOM     16  C   UNL     1      49.215   7.000  15.633  0.00  0.00    +0.000 C 
ATOM     17  C   UNL     1      48.657   8.191  16.429  0.00  0.00    +0.000 C 
ATOM     18  C   UNL     1      50.510   7.407  14.926  0.00  0.00    +0.000 C 
ENDBRANCH   1  16
BRANCH   9  19
ATOM     19  C   UNL     1      47.387   8.315  13.152  0.00  0.00    +0.000 C 
BRANCH  19  20
ATOM     20  C   UNL     1      48.255   8.604  11.885  0.00  0.00    +0.000 C 
ATOM     21  C   UNL     1      49.278   7.447  11.725  0.00  0.00    +0.000 C 
ATOM     22  C   UNL     1      50.652   7.823  11.187  0.00  0.00    +0.000 C 
ATOM     23  O   UNL     1      51.092   9.055  11.740  0.00  0.00    +0.000 OA
ATOM     24  C   UNL     1      50.260  10.123  11.304  0.00  0.00    +0.000 C 
ATOM     25  C   UNL     1      48.883  10.007  11.941  0.00  0.00    +0.000 C 
ENDBRANCH  19  20
ENDBRANCH   9  19
TORSDOF 4
ENDMDL
MODEL 6
REMARK VINA RESULT:    -5.408      2.666      6.001
REMARK INTER + INTRA:          -7.510
REMARK INTER:                  -6.734
REMARK INTRA:                  -0.775
REMARK UNBOUND:                -0.837
REMARK  Name = 
REMARK  7 active torsions:
REMARK  status: ('A' for Active; 'I' for Inactive)
REMARK    1  A    between atoms: C_1  and  C_2
REMARK    2  A    between atoms: C_2  and  C_3
REMARK    3  A    between atoms: C_2  and  C_4
REMARK    4  A    between atoms: C_2  and  C_5
REMARK    5  A    between atoms: C_10  and  C_11
REMARK    6  A    between atoms: N_16  and  C_17
REMARK    7  A    between atoms: C_17  and  C_18
REMARK                            x       y       z     vdW  Elec       q    Type
REMARK                         _______ _______ _______ _____ _____    ______ ____
ROOT
ATOM      1  C   UNL     1      48.101   4.752  15.999  0.00  0.00    +0.000 A 
ATOM      2  N   UNL     1      47.333   3.775  15.541  0.00  0.00    +0.000 NA
ATOM      3  C   UNL     1      46.820   4.194  14.372  0.00  0.00    +0.000 A 
ATOM      4  N   UNL     1      46.083   3.433  13.532  0.00  0.00    +0.000 NA
ATOM      5  C   UNL     1      45.740   4.089  12.401  0.00  0.00    +0.000 A 
ATOM      6  C   UNL     1      46.086   5.413  12.143  0.00  0.00    +0.000 A 
ATOM      7  N   UNL     1      46.830   6.217  12.988  0.00  0.00    +0.000 NA
ATOM      8  C   UNL     1      47.176   5.515  14.103  0.00  0.00    +0.000 A 
ATOM      9  N   UNL     1      47.951   5.891  15.190  0.00  0.00    +0.000 N 
ENDROOT
BRANCH   6  10
ATOM     10  C   UNL     1      45.598   6.000  10.865  0.00  0.00    +0.000 C 
ATOM     11  N   UNL     1      44.805   7.110  10.965  0.00  0.00    +0.000 N 
ATOM     12  O   UNL     1      45.878   5.521   9.775  0.00  0.00    +0.000 OA
ATOM     13  H   UNL     1      44.570   7.494  11.877  0.00  0.00    +0.000 HD
ATOM     14  H   UNL     1      44.436   7.526  10.125  0.00  0.00    +0.000 HD
ENDBRANCH   6  10
BRANCH   1  16
ATOM     15  C   UNL     1      48.945   2.935  17.494  0.00  0.00    +0.000 C 
ATOM     16  C   UNL     1      48.966   4.476  17.241  0.00  0.00    +0.000 C 
ATOM     17  C   UNL     1      48.331   5.150  18.469  0.00  0.00    +0.000 C 
ATOM     18  C   UNL     1      50.443   4.866  17.139  0.00  0.00    +0.000 C 
ENDBRANCH   1  16
BRANCH   9  19
ATOM     19  C   UNL     1      48.607   7.181  15.298  0.00  0.00    +0.000 C 
BRANCH  19  20
ATOM     20  C   UNL     1      50.001   7.403  14.628  0.00  0.00    +0.000 C 
ATOM     21  C   UNL     1      50.865   8.269  15.583  0.00  0.00    +0.000 C 
ATOM     22  C   UNL     1      51.815   9.263  14.928  0.00  0.00    +0.000 C 
ATOM     23  O   UNL     1      51.205   9.882  13.806  0.00  0.00    +0.000 OA
ATOM     24  C   UNL     1      50.963   8.927  12.780  0.00  0.00    +0.000 C 
ATOM     25  C   UNL     1      49.860   7.970  13.206  0.00  0.00    +0.000 C 
ENDBRANCH  19  20
ENDBRANCH   9  19
TORSDOF 4
ENDMDL
MODEL 7
REMARK VINA RESULT:    -5.402      3.065      6.743
REMARK INTER + INTRA:          -7.502
REMARK INTER:                  -6.833
REMARK INTRA:                  -0.668
REMARK UNBOUND:                -0.837
REMARK  Name = 
REMARK  7 active torsions:
REMARK  status: ('A' for Active; 'I' for Inactive)
REMARK    1  A    between atoms: C_1  and  C_2
REMARK    2  A    between atoms: C_2  and  C_3
REMARK    3  A    between atoms: C_2  and  C_4
REMARK    4  A    between atoms: C_2  and  C_5
REMARK    5  A    between atoms: C_10  and  C_11
REMARK    6  A    between atoms: N_16  and  C_17
REMARK    7  A    between atoms: C_17  and  C_18
REMARK                            x       y       z     vdW  Elec       q    Type
REMARK                         _______ _______ _______ _____ _____    ______ ____
ROOT
ATOM      1  C   UNL     1      47.234   8.341  12.489  0.00  0.00    +0.000 A 
ATOM      2  N   UNL     1      47.047   9.646  12.616  0.00  0.00    +0.000 NA
ATOM      3  C   UNL     1      45.838   9.921  12.100  0.00  0.00    +0.000 A 
ATOM      4  N   UNL     1      45.228  11.126  12.154  0.00  0.00    +0.000 NA
ATOM      5  C   UNL     1      43.994  11.111  11.604  0.00  0.00    +0.000 A 
ATOM      6  C   UNL     1      43.424   9.981  11.023  0.00  0.00    +0.000 A 
ATOM      7  N   UNL     1      44.028   8.739  10.945  0.00  0.00    +0.000 NA
ATOM      8  C   UNL     1      45.257   8.790  11.529  0.00  0.00    +0.000 A 
ATOM      9  N   UNL     1      46.194   7.785  11.727  0.00  0.00    +0.000 N 
ENDROOT
BRANCH   6  10
ATOM     10  C   UNL     1      42.068  10.141  10.428  0.00  0.00    +0.000 C 
ATOM     11  N   UNL     1      41.035   9.532  11.087  0.00  0.00    +0.000 N 
ATOM     12  O   UNL     1      41.875  10.775   9.400  0.00  0.00    +0.000 OA
ATOM     13  H   UNL     1      41.210   8.999  11.935  0.00  0.00    +0.000 HD
ATOM     14  H   UNL     1      40.105   9.598  10.706  0.00  0.00    +0.000 HD
ENDBRANCH   6  10
BRANCH   1  16
ATOM     15  C   UNL     1      49.187   8.842  13.967  0.00  0.00    +0.000 C 
ATOM     16  C   UNL     1      48.467   7.713  13.164  0.00  0.00    +0.000 C 
ATOM     17  C   UNL     1      49.447   7.222  12.086  0.00  0.00    +0.000 C 
ATOM     18  C   UNL     1      48.192   6.591  14.169  0.00  0.00    +0.000 C 
ENDBRANCH   1  16
BRANCH   9  19
ATOM     19  C   UNL     1      45.972   6.400  11.353  0.00  0.00    +0.000 C 
BRANCH  19  20
ATOM     20  C   UNL     1      45.355   5.405  12.387  0.00  0.00    +0.000 C 
ATOM     21  C   UNL     1      45.325   3.993  11.743  0.00  0.00    +0.000 C 
ATOM     22  C   UNL     1      44.138   3.107  12.099  0.00  0.00    +0.000 C 
ATOM     23  O   UNL     1      42.938   3.864  12.147  0.00  0.00    +0.000 OA
ATOM     24  C   UNL     1      42.983   4.805  13.212  0.00  0.00    +0.000 C 
ATOM     25  C   UNL     1      43.992   5.900  12.901  0.00  0.00    +0.000 C 
ENDBRANCH  19  20
ENDBRANCH   9  19
TORSDOF 4
ENDMDL
MODEL 8
REMARK VINA RESULT:    -5.328      2.883      5.404
REMARK INTER + INTRA:          -7.411
REMARK INTER:                  -6.513
REMARK INTRA:                  -0.899
REMARK UNBOUND:                -0.837
REMARK  Name = 
REMARK  7 active torsions:
REMARK  status: ('A' for Active; 'I' for Inactive)
REMARK    1  A    between atoms: C_1  and  C_2
REMARK    2  A    between atoms: C_2  and  C_3
REMARK    3  A    between atoms: C_2  and  C_4
REMARK    4  A    between atoms: C_2  and  C_5
REMARK    5  A    between atoms: C_10  and  C_11
REMARK    6  A    between atoms: N_16  and  C_17
REMARK    7  A    between atoms: C_17  and  C_18
REMARK                            x       y       z     vdW  Elec       q    Type
REMARK                         _______ _______ _______ _____ _____    ______ ____
ROOT
ATOM      1  C   UNL     1      49.776   7.951  13.837  0.00  0.00    +0.000 A 
ATOM      2  N   UNL     1      50.836   7.897  14.629  0.00  0.00    +0.000 NA
ATOM      3  C   UNL     1      50.562   6.998  15.589  0.00  0.00    +0.000 A 
ATOM      4  N   UNL     1      51.443   6.566  16.520  0.00  0.00    +0.000 NA
ATOM      5  C   UNL     1      50.921   5.620  17.332  0.00  0.00    +0.000 A 
ATOM      6  C   UNL     1      49.610   5.160  17.234  0.00  0.00    +0.000 A 
ATOM      7  N   UNL     1      48.686   5.590  16.299  0.00  0.00    +0.000 NA
ATOM      8  C   UNL     1      49.256   6.524  15.487  0.00  0.00    +0.000 A 
ATOM      9  N   UNL     1      48.731   7.193  14.390  0.00  0.00    +0.000 N 
ENDROOT
BRANCH   6  10
ATOM     10  C   UNL     1      49.179   4.140  18.229  0.00  0.00    +0.000 C 
ATOM     11  N   UNL     1      49.736   2.896  18.112  0.00  0.00    +0.000 N 
ATOM     12  O   UNL     1      48.363   4.385  19.106  0.00  0.00    +0.000 OA
ATOM     13  H   UNL     1      50.405   2.701  17.371  0.00  0.00    +0.000 HD
ATOM     14  H   UNL     1      49.455   2.171  18.752  0.00  0.00    +0.000 HD
ENDBRANCH   6  10
BRANCH   1  16
ATOM     15  C   UNL     1      50.051   7.759  11.360  0.00  0.00    +0.000 C 
ATOM     16  C   UNL     1      49.879   8.770  12.537  0.00  0.00    +0.000 C 
ATOM     17  C   UNL     1      51.145   9.642  12.580  0.00  0.00    +0.000 C 
ATOM     18  C   UNL     1      48.665   9.631  12.180  0.00  0.00    +0.000 C 
ENDBRANCH   1  16
BRANCH   9  19
ATOM     19  C   UNL     1      47.400   6.948  13.865  0.00  0.00    +0.000 C 
BRANCH  19  20
ATOM     20  C   UNL     1      47.169   5.790  12.843  0.00  0.00    +0.000 C 
ATOM     21  C   UNL     1      46.517   6.391  11.568  0.00  0.00    +0.000 C 
ATOM     22  C   UNL     1      45.497   5.518  10.849  0.00  0.00    +0.000 C 
ATOM     23  O   UNL     1      44.675   4.830  11.779  0.00  0.00    +0.000 OA
ATOM     24  C   UNL     1      45.442   3.896  12.528  0.00  0.00    +0.000 C 
ATOM     25  C   UNL     1      46.381   4.630  13.475  0.00  0.00    +0.000 C 
ENDBRANCH  19  20
ENDBRANCH   9  19
TORSDOF 4
ENDMDL
MODEL 9
REMARK VINA RESULT:    -5.213      2.754      4.543
REMARK INTER + INTRA:          -7.270
REMARK INTER:                  -6.472
REMARK INTRA:                  -0.797
REMARK UNBOUND:                -0.837
REMARK  Name = 
REMARK  7 active torsions:
REMARK  status: ('A' for Active; 'I' for Inactive)
REMARK    1  A    between atoms: C_1  and  C_2
REMARK    2  A    between atoms: C_2  and  C_3
REMARK    3  A    between atoms: C_2  and  C_4
REMARK    4  A    between atoms: C_2  and  C_5
REMARK    5  A    between atoms: C_10  and  C_11
REMARK    6  A    between atoms: N_16  and  C_17
REMARK    7  A    between atoms: C_17  and  C_18
REMARK                            x       y       z     vdW  Elec       q    Type
REMARK                         _______ _______ _______ _____ _____    ______ ____
ROOT
ATOM      1  C   UNL     1      47.388   6.271  13.669  0.00  0.00    +0.000 A 
ATOM      2  N   UNL     1      46.753   5.157  14.000  0.00  0.00    +0.000 NA
ATOM      3  C   UNL     1      47.267   4.746  15.171  0.00  0.00    +0.000 A 
ATOM      4  N   UNL     1      46.796   3.711  15.903  0.00  0.00    +0.000 NA
ATOM      5  C   UNL     1      47.465   3.548  17.066  0.00  0.00    +0.000 A 
ATOM      6  C   UNL     1      48.538   4.346  17.454  0.00  0.00    +0.000 A 
ATOM      7  N   UNL     1      49.046   5.404  16.722  0.00  0.00    +0.000 NA
ATOM      8  C   UNL     1      48.333   5.550  15.572  0.00  0.00    +0.000 A 
ATOM      9  N   UNL     1      48.448   6.496  14.563  0.00  0.00    +0.000 N 
ENDROOT
BRANCH   6  10
ATOM     10  C   UNL     1      49.191   4.012  18.751  0.00  0.00    +0.000 C 
ATOM     11  N   UNL     1      48.451   3.278  19.637  0.00  0.00    +0.000 N 
ATOM     12  O   UNL     1      50.326   4.375  19.025  0.00  0.00    +0.000 OA
ATOM     13  H   UNL     1      47.504   2.991  19.402  0.00  0.00    +0.000 HD
ATOM     14  H   UNL     1      48.847   3.049  20.535  0.00  0.00    +0.000 HD
ENDBRANCH   6  10
BRANCH   1  16
ATOM     15  C   UNL     1      45.965   6.114  11.619  0.00  0.00    +0.000 C 
ATOM     16  C   UNL     1      46.877   7.068  12.455  0.00  0.00    +0.000 C 
ATOM     17  C   UNL     1      48.066   7.462  11.563  0.00  0.00    +0.000 C 
ATOM     18  C   UNL     1      46.025   8.302  12.763  0.00  0.00    +0.000 C 
ENDBRANCH   1  16
BRANCH   9  19
ATOM     19  C   UNL     1      49.394   7.596  14.602  0.00  0.00    +0.000 C 
BRANCH  19  20
ATOM     20  C   UNL     1      48.899   9.034  14.957  0.00  0.00    +0.000 C 
ATOM     21  C   UNL     1      50.111  10.001  14.863  0.00  0.00    +0.000 C 
ATOM     22  C   UNL     1      50.149  11.144  15.868  0.00  0.00    +0.000 C 
ATOM     23  O   UNL     1      49.719  10.707  17.148  0.00  0.00    +0.000 OA
ATOM     24  C   UNL     1      48.346  10.339  17.115  0.00  0.00    +0.000 C 
ATOM     25  C   UNL     1      48.166   9.061  16.308  0.00  0.00    +0.000 C 
ENDBRANCH  19  20
ENDBRANCH   9  19
TORSDOF 4
ENDMDL
