MODEL 1
REMARK VINA RESULT:    -5.954      0.000      0.000
REMARK INTER + INTRA:          -9.302
REMARK INTER:                  -8.043
REMARK INTRA:                  -1.259
REMARK UNBOUND:                -1.259
REMARK  Name = 
REMARK  7 active torsions:
REMARK  status: ('A' for Active; 'I' for Inactive)
REMARK    1  A    between atoms: C_1  and  O_2
REMARK    2  A    between atoms: O_2  and  C_3
REMARK    3  A    between atoms: C_10  and  C_11
REMARK    4  A    between atoms: N_13  and  C_14
REMARK    5  A    between atoms: C_14  and  C_15
REMARK    6  A    between atoms: C_18  and  C_19
REMARK    7  A    between atoms: C_20  and  C_21
REMARK                            x       y       z     vdW  Elec       q    Type
REMARK                         _______ _______ _______ _____ _____    ______ ____
ROOT
ATOM      1  C   UNL     1      47.946   7.959  13.857  0.00  0.00    +0.000 C 
ATOM      2  O   UNL     1      48.867   8.530  13.282  0.00  0.00    +0.000 OA
ATOM      3  N   UNL     1      47.918   7.836  15.220  0.00  0.00    +0.000 N 
ATOM      4  H   UNL     1      47.100   7.451  15.671  0.00  0.00    +0.000 HD
ENDROOT
BRANCH   1  12
ATOM      5  C   UNL     1      46.706   4.752  13.614  0.00  0.00    +0.000 A 
ATOM      6  N   UNL     1      46.055   3.613  13.314  0.00  0.00    +0.000 NA
ATOM      7  C   UNL     1      45.047   3.675  12.443  0.00  0.00    +0.000 A 
ATOM      8  N   UNL     1      44.594   4.760  11.821  0.00  0.00    +0.000 NA
ATOM      9  C   UNL     1      45.268   5.875  12.150  0.00  0.00    +0.000 A 
ATOM     10  S   UNL     1      44.817   7.360  11.461  0.00  0.00    +0.000 S 
ATOM     11  C   UNL     1      46.046   8.183  12.301  0.00  0.00    +0.000 A 
ATOM     12  C   UNL     1      46.821   7.362  13.113  0.00  0.00    +0.000 A 
ATOM     13  C   UNL     1      46.339   5.980  13.033  0.00  0.00    +0.000 A 
BRANCH   5  15
ATOM     14  C   UNL     1      47.294   4.007  15.744  0.00  0.00    +0.000 C 
ATOM     15  O   UNL     1      47.706   4.687  14.562  0.00  0.00    +0.000 OA
ENDBRANCH   5  15
ENDBRANCH   1  12
BRANCH   3  16
ATOM     16  C   UNL     1      48.952   8.357  16.077  0.00  0.00    +0.000 C 
BRANCH  16  17
ATOM     17  C   UNL     1      49.853   7.254  16.580  0.00  0.00    +0.000 A 
ATOM     18  C   UNL     1      49.389   6.330  17.525  0.00  0.00    +0.000 A 
ATOM     19  C   UNL     1      50.218   5.298  17.986  0.00  0.00    +0.000 A 
ATOM     20  C   UNL     1      51.531   5.168  17.518  0.00  0.00    +0.000 A 
ATOM     21  C   UNL     1      52.005   6.117  16.602  0.00  0.00    +0.000 A 
ATOM     22  C   UNL     1      51.178   7.149  16.139  0.00  0.00    +0.000 A 
BRANCH  20  23
ATOM     23  C   UNL     1      52.450   4.127  18.012  0.00  0.00    +0.000 C 
ATOM     24  C   UNL     1      52.334   2.812  17.754  0.00  0.00    +0.000 C 
BRANCH  24  25
ATOM     25  C   UNL     1      53.233   1.780  18.296  0.00  0.00    +0.000 A 
ATOM     26  C   UNL     1      53.306   0.484  17.777  0.00  0.00    +0.000 A 
ATOM     27  C   UNL     1      54.232  -0.426  18.288  0.00  0.00    +0.000 A 
ATOM     28  C   UNL     1      55.071  -0.007  19.305  0.00  0.00    +0.000 A 
ATOM     29  N   UNL     1      55.044   1.234  19.832  0.00  0.00    +0.000 NA
ATOM     30  C   UNL     1      54.133   2.095  19.315  0.00  0.00    +0.000 A 
ENDBRANCH  24  25
ENDBRANCH  20  23
ENDBRANCH  16  17
ENDBRANCH   3  16
TORSDOF 6
ENDMDL
MODEL 2
REMARK VINA RESULT:    -5.681      3.418      8.863
REMARK INTER + INTRA:          -8.933
REMARK INTER:                  -7.906
REMARK INTRA:                  -1.027
REMARK UNBOUND:                -1.259
REMARK  Name = 
REMARK  7 active torsions:
REMARK  status: ('A' for Active; 'I' for Inactive)
REMARK    1  A    between atoms: C_1  and  O_2
REMARK    2  A    between atoms: O_2  and  C_3
REMARK    3  A    between atoms: C_10  and  C_11
REMARK    4  A    between atoms: N_13  and  C_14
REMARK    5  A    between atoms: C_14  and  C_15
REMARK    6  A    between atoms: C_18  and  C_19
REMARK    7  A    between atoms: C_20  and  C_21
REMARK                            x       y       z     vdW  Elec       q    Type
REMARK                         _______ _______ _______ _____ _____    ______ ____
ROOT
ATOM      1  C   UNL     1      52.435   5.688  18.009  0.00  0.00    +0.000 C 
ATOM      2  O   UNL     1      51.809   6.289  18.878  0.00  0.00    +0.000 OA
ATOM      3  N   UNL     1      52.570   6.192  16.744  0.00  0.00    +0.000 N 
ATOM      4  H   UNL     1      53.173   5.726  16.082  0.00  0.00    +0.000 HD
ENDROOT
BRANCH   1  12
ATOM      5  C   UNL     1      51.451   2.428  17.481  0.00  0.00    +0.000 A 
ATOM      6  N   UNL     1      51.304   1.091  17.426  0.00  0.00    +0.000 NA
ATOM      7  C   UNL     1      52.279   0.328  17.922  0.00  0.00    +0.000 A 
ATOM      8  N   UNL     1      53.413   0.745  18.478  0.00  0.00    +0.000 NA
ATOM      9  C   UNL     1      53.523   2.084  18.511  0.00  0.00    +0.000 A 
ATOM     10  S   UNL     1      54.916   2.794  19.175  0.00  0.00    +0.000 S 
ATOM     11  C   UNL     1      54.323   4.359  18.876  0.00  0.00    +0.000 A 
ATOM     12  C   UNL     1      53.069   4.383  18.276  0.00  0.00    +0.000 A 
ATOM     13  C   UNL     1      52.601   3.014  18.043  0.00  0.00    +0.000 A 
BRANCH   5  15
ATOM     14  C   UNL     1      49.301   3.298  17.726  0.00  0.00    +0.000 C 
ATOM     15  O   UNL     1      50.465   3.204  16.910  0.00  0.00    +0.000 OA
ENDBRANCH   5  15
ENDBRANCH   1  12
BRANCH   3  16
ATOM     16  C   UNL     1      51.996   7.447  16.333  0.00  0.00    +0.000 C 
BRANCH  16  17
ATOM     17  C   UNL     1      50.701   7.238  15.586  0.00  0.00    +0.000 A 
ATOM     18  C   UNL     1      49.631   6.564  16.188  0.00  0.00    +0.000 A 
ATOM     19  C   UNL     1      48.422   6.378  15.503  0.00  0.00    +0.000 A 
ATOM     20  C   UNL     1      48.256   6.856  14.198  0.00  0.00    +0.000 A 
ATOM     21  C   UNL     1      49.341   7.496  13.583  0.00  0.00    +0.000 A 
ATOM     22  C   UNL     1      50.550   7.683  14.267  0.00  0.00    +0.000 A 
BRANCH  20  23
ATOM     23  C   UNL     1      47.020   6.641  13.425  0.00  0.00    +0.000 C 
ATOM     24  C   UNL     1      46.386   5.461  13.298  0.00  0.00    +0.000 C 
BRANCH  24  25
ATOM     25  C   UNL     1      45.180   5.253  12.482  0.00  0.00    +0.000 A 
ATOM     26  C   UNL     1      45.223   4.829  11.150  0.00  0.00    +0.000 A 
ATOM     27  C   UNL     1      44.040   4.579  10.454  0.00  0.00    +0.000 A 
ATOM     28  C   UNL     1      42.839   4.753  11.117  0.00  0.00    +0.000 A 
ATOM     29  N   UNL     1      42.745   5.153  12.402  0.00  0.00    +0.000 NA
ATOM     30  C   UNL     1      43.912   5.388  13.051  0.00  0.00    +0.000 A 
ENDBRANCH  24  25
ENDBRANCH  20  23
ENDBRANCH  16  17
ENDBRANCH   3  16
TORSDOF 6
ENDMDL
MODEL 3
REMARK VINA RESULT:    -5.147      5.195      7.685
REMARK INTER + INTRA:          -8.212
REMARK INTER:                  -7.089
REMARK INTRA:                  -1.123
REMARK UNBOUND:                -1.259
REMARK  Name = 
REMARK  7 active torsions:
REMARK  status: ('A' for Active; 'I' for Inactive)
REMARK    1  A    between atoms: C_1  and  O_2
REMARK    2  A    between atoms: O_2  and  C_3
REMARK    3  A    between atoms: C_10  and  C_11
REMARK    4  A    between atoms: N_13  and  C_14
REMARK    5  A    between atoms: C_14  and  C_15
REMARK    6  A    between atoms: C_18  and  C_19
REMARK    7  A    between atoms: C_20  and  C_21
REMARK                            x       y       z     vdW  Elec       q    Type
REMARK                         _______ _______ _______ _____ _____    ______ ____
ROOT
ATOM      1  C   UNL     1      48.994   7.902  16.541  0.00  0.00    +0.000 C 
ATOM      2  O   UNL     1      49.830   8.778  16.743  0.00  0.00    +0.000 OA
ATOM      3  N   UNL     1      48.142   7.958  15.470  0.00  0.00    +0.000 N 
ATOM      4  H   UNL     1      47.535   7.176  15.274  0.00  0.00    +0.000 HD
ENDROOT
BRANCH   1  12
ATOM      5  C   UNL     1      47.860   4.678  16.096  0.00  0.00    +0.000 A 
ATOM      6  N   UNL     1      47.443   3.404  16.209  0.00  0.00    +0.000 NA
ATOM      7  C   UNL     1      47.498   2.826  17.410  0.00  0.00    +0.000 A 
ATOM      8  N   UNL     1      47.932   3.377  18.540  0.00  0.00    +0.000 NA
ATOM      9  C   UNL     1      48.343   4.646  18.385  0.00  0.00    +0.000 A 
ATOM     10  S   UNL     1      48.943   5.503  19.723  0.00  0.00    +0.000 S 
ATOM     11  C   UNL     1      49.208   6.893  18.781  0.00  0.00    +0.000 A 
ATOM     12  C   UNL     1      48.850   6.746  17.445  0.00  0.00    +0.000 A 
ATOM     13  C   UNL     1      48.347   5.390  17.209  0.00  0.00    +0.000 A 
BRANCH   5  15
ATOM     14  C   UNL     1      46.754   4.809  14.047  0.00  0.00    +0.000 C 
ATOM     15  O   UNL     1      47.856   5.244  14.839  0.00  0.00    +0.000 OA
ENDBRANCH   5  15
ENDBRANCH   1  12
BRANCH   3  16
ATOM     16  C   UNL     1      48.156   9.032  14.511  0.00  0.00    +0.000 C 
BRANCH  16  17
ATOM     17  C   UNL     1      49.187   8.791  13.434  0.00  0.00    +0.000 A 
ATOM     18  C   UNL     1      50.358   9.559  13.385  0.00  0.00    +0.000 A 
ATOM     19  C   UNL     1      51.324   9.332  12.395  0.00  0.00    +0.000 A 
ATOM     20  C   UNL     1      51.140   8.337  11.428  0.00  0.00    +0.000 A 
ATOM     21  C   UNL     1      49.950   7.597  11.455  0.00  0.00    +0.000 A 
ATOM     22  C   UNL     1      48.984   7.822  12.445  0.00  0.00    +0.000 A 
BRANCH  20  23
ATOM     23  C   UNL     1      52.108   8.098  10.342  0.00  0.00    +0.000 C 
ATOM     24  C   UNL     1      52.088   7.040   9.512  0.00  0.00    +0.000 C 
BRANCH  24  25
ATOM     25  C   UNL     1      53.091   6.791   8.464  0.00  0.00    +0.000 A 
ATOM     26  C   UNL     1      54.442   7.124   8.607  0.00  0.00    +0.000 A 
ATOM     27  C   UNL     1      55.356   6.794   7.606  0.00  0.00    +0.000 A 
ATOM     28  C   UNL     1      54.892   6.128   6.486  0.00  0.00    +0.000 A 
ATOM     29  N   UNL     1      53.601   5.779   6.306  0.00  0.00    +0.000 NA
ATOM     30  C   UNL     1      52.738   6.114   7.296  0.00  0.00    +0.000 A 
ENDBRANCH  24  25
ENDBRANCH  20  23
ENDBRANCH  16  17
ENDBRANCH   3  16
TORSDOF 6
ENDMDL
MODEL 4
REMARK VINA RESULT:    -4.882      1.528      2.480
REMARK INTER + INTRA:          -7.853
REMARK INTER:                  -6.965
REMARK INTRA:                  -0.888
REMARK UNBOUND:                -1.259
REMARK  Name = 
REMARK  7 active torsions:
REMARK  status: ('A' for Active; 'I' for Inactive)
REMARK    1  A    between atoms: C_1  and  O_2
REMARK    2  A    between atoms: O_2  and  C_3
REMARK    3  A    between atoms: C_10  and  C_11
REMARK    4  A    between atoms: N_13  and  C_14
REMARK    5  A    between atoms: C_14  and  C_15
REMARK    6  A    between atoms: C_18  and  C_19
REMARK    7  A    between atoms: C_20  and  C_21
REMARK                            x       y       z     vdW  Elec       q    Type
REMARK                         _______ _______ _______ _____ _____    ______ ____
ROOT
ATOM      1  C   UNL     1      46.862   8.005  12.356  0.00  0.00    +0.000 C 
ATOM      2  O   UNL     1      47.867   7.636  11.757  0.00  0.00    +0.000 OA
ATOM      3  N   UNL     1      46.908   9.010  13.284  0.00  0.00    +0.000 N 
ATOM      4  H   UNL     1      46.051   9.360  13.686  0.00  0.00    +0.000 HD
ENDROOT
BRANCH   1  12
ATOM      5  C   UNL     1      45.513   4.945  13.191  0.00  0.00    +0.000 A 
ATOM      6  N   UNL     1      44.768   3.836  13.349  0.00  0.00    +0.000 NA
ATOM      7  C   UNL     1      43.545   3.816  12.817  0.00  0.00    +0.000 A 
ATOM      8  N   UNL     1      42.958   4.793  12.131  0.00  0.00    +0.000 NA
ATOM      9  C   UNL     1      43.732   5.883  11.999  0.00  0.00    +0.000 A 
ATOM     10  S   UNL     1      43.137   7.236  11.162  0.00  0.00    +0.000 S 
ATOM     11  C   UNL     1      44.586   8.091  11.409  0.00  0.00    +0.000 A 
ATOM     12  C   UNL     1      45.547   7.380  12.120  0.00  0.00    +0.000 A 
ATOM     13  C   UNL     1      45.023   6.061  12.487  0.00  0.00    +0.000 A 
BRANCH   5  15
ATOM     14  C   UNL     1      47.215   3.679  14.159  0.00  0.00    +0.000 C 
ATOM     15  O   UNL     1      46.750   4.977  13.798  0.00  0.00    +0.000 OA
ENDBRANCH   5  15
ENDBRANCH   1  12
BRANCH   3  16
ATOM     16  C   UNL     1      48.122   9.705  13.629  0.00  0.00    +0.000 C 
BRANCH  16  17
ATOM     17  C   UNL     1      49.052   8.820  14.425  0.00  0.00    +0.000 A 
ATOM     18  C   UNL     1      50.397   8.687  14.057  0.00  0.00    +0.000 A 
ATOM     19  C   UNL     1      51.267   7.877  14.800  0.00  0.00    +0.000 A 
ATOM     20  C   UNL     1      50.812   7.177  15.924  0.00  0.00    +0.000 A 
ATOM     21  C   UNL     1      49.457   7.281  16.267  0.00  0.00    +0.000 A 
ATOM     22  C   UNL     1      48.586   8.091  15.526  0.00  0.00    +0.000 A 
BRANCH  20  23
ATOM     23  C   UNL     1      51.681   6.278  16.704  0.00  0.00    +0.000 C 
ATOM     24  C   UNL     1      51.289   5.118  17.259  0.00  0.00    +0.000 C 
BRANCH  24  25
ATOM     25  C   UNL     1      52.158   4.256  18.077  0.00  0.00    +0.000 A 
ATOM     26  C   UNL     1      52.348   2.896  17.815  0.00  0.00    +0.000 A 
ATOM     27  C   UNL     1      53.243   2.151  18.584  0.00  0.00    +0.000 A 
ATOM     28  C   UNL     1      53.934   2.794  19.594  0.00  0.00    +0.000 A 
ATOM     29  N   UNL     1      53.791   4.105  19.881  0.00  0.00    +0.000 NA
ATOM     30  C   UNL     1      52.914   4.801  19.116  0.00  0.00    +0.000 A 
ENDBRANCH  24  25
ENDBRANCH  20  23
ENDBRANCH  16  17
ENDBRANCH   3  16
TORSDOF 6
ENDMDL
MODEL 5
REMARK VINA RESULT:    -4.807     10.522     11.863
REMARK INTER + INTRA:          -7.752
REMARK INTER:                  -6.666
REMARK INTRA:                  -1.086
REMARK UNBOUND:                -1.259
REMARK  Name = 
REMARK  7 active torsions:
REMARK  status: ('A' for Active; 'I' for Inactive)
REMARK    1  A    between atoms: C_1  and  O_2
REMARK    2  A    between atoms: O_2  and  C_3
REMARK    3  A    between atoms: C_10  and  C_11
REMARK    4  A    between atoms: N_13  and  C_14
REMARK    5  A    between atoms: C_14  and  C_15
REMARK    6  A    between atoms: C_18  and  C_19
REMARK    7  A    between atoms: C_20  and  C_21
REMARK                            x       y       z     vdW  Elec       q    Type
REMARK                         _______ _______ _______ _____ _____    ______ ____
ROOT
ATOM      1  C   UNL     1      37.936  -1.248  18.190  0.00  0.00    +0.000 C 
ATOM      2  O   UNL     1      37.001  -2.027  18.353  0.00  0.00    +0.000 OA
ATOM      3  N   UNL     1      39.159  -1.467  18.764  0.00  0.00    +0.000 N 
ATOM      4  H   UNL     1      39.935  -0.864  18.531  0.00  0.00    +0.000 HD
ENDROOT
BRANCH   1  12
ATOM      5  C   UNL     1      38.623   2.078  18.774  0.00  0.00    +0.000 A 
ATOM      6  N   UNL     1      38.759   3.417  18.749  0.00  0.00    +0.000 NA
ATOM      7  C   UNL     1      38.369   4.070  17.654  0.00  0.00    +0.000 A 
ATOM      8  N   UNL     1      37.851   3.538  16.550  0.00  0.00    +0.000 NA
ATOM      9  C   UNL     1      37.735   2.201  16.613  0.00  0.00    +0.000 A 
ATOM     10  S   UNL     1      37.104   1.351  15.285  0.00  0.00    +0.000 S 
ATOM     11  C   UNL     1      37.265  -0.136  16.094  0.00  0.00    +0.000 A 
ATOM     12  C   UNL     1      37.792  -0.026  17.376  0.00  0.00    +0.000 A 
ATOM     13  C   UNL     1      38.089   1.377  17.677  0.00  0.00    +0.000 A 
BRANCH   5  15
ATOM     14  C   UNL     1      39.697   2.280  20.834  0.00  0.00    +0.000 C 
ATOM     15  O   UNL     1      39.086   1.409  19.887  0.00  0.00    +0.000 OA
ENDBRANCH   5  15
ENDBRANCH   1  12
BRANCH   3  16
ATOM     16  C   UNL     1      39.445  -2.608  19.594  0.00  0.00    +0.000 C 
BRANCH  16  17
ATOM     17  C   UNL     1      40.708  -3.307  19.149  0.00  0.00    +0.000 A 
ATOM     18  C   UNL     1      41.011  -3.432  17.787  0.00  0.00    +0.000 A 
ATOM     19  C   UNL     1      42.187  -4.069  17.369  0.00  0.00    +0.000 A 
ATOM     20  C   UNL     1      43.085  -4.601  18.302  0.00  0.00    +0.000 A 
ATOM     21  C   UNL     1      42.761  -4.510  19.662  0.00  0.00    +0.000 A 
ATOM     22  C   UNL     1      41.585  -3.872  20.082  0.00  0.00    +0.000 A 
BRANCH  20  23
ATOM     23  C   UNL     1      44.309  -5.320  17.904  0.00  0.00    +0.000 C 
ATOM     24  C   UNL     1      45.266  -5.738  18.751  0.00  0.00    +0.000 C 
BRANCH  24  25
ATOM     25  C   UNL     1      46.506  -6.411  18.331  0.00  0.00    +0.000 A 
ATOM     26  C   UNL     1      47.448  -5.817  17.485  0.00  0.00    +0.000 A 
ATOM     27  C   UNL     1      48.638  -6.480  17.185  0.00  0.00    +0.000 A 
ATOM     28  C   UNL     1      48.859  -7.723  17.750  0.00  0.00    +0.000 A 
ATOM     29  N   UNL     1      47.985  -8.334  18.577  0.00  0.00    +0.000 NA
ATOM     30  C   UNL     1      46.838  -7.664  18.849  0.00  0.00    +0.000 A 
ENDBRANCH  24  25
ENDBRANCH  20  23
ENDBRANCH  16  17
ENDBRANCH   3  16
TORSDOF 6
ENDMDL
MODEL 6
REMARK VINA RESULT:    -4.778      3.842      8.745
REMARK INTER + INTRA:          -7.713
REMARK INTER:                  -6.810
REMARK INTRA:                  -0.903
REMARK UNBOUND:                -1.259
REMARK  Name = 
REMARK  7 active torsions:
REMARK  status: ('A' for Active; 'I' for Inactive)
REMARK    1  A    between atoms: C_1  and  O_2
REMARK    2  A    between atoms: O_2  and  C_3
REMARK    3  A    between atoms: C_10  and  C_11
REMARK    4  A    between atoms: N_13  and  C_14
REMARK    5  A    between atoms: C_14  and  C_15
REMARK    6  A    between atoms: C_18  and  C_19
REMARK    7  A    between atoms: C_20  and  C_21
REMARK                            x       y       z     vdW  Elec       q    Type
REMARK                         _______ _______ _______ _____ _____    ______ ____
ROOT
ATOM      1  C   UNL     1      50.997   9.116  16.118  0.00  0.00    +0.000 C 
ATOM      2  O   UNL     1      51.652   8.861  15.112  0.00  0.00    +0.000 OA
ATOM      3  N   UNL     1      49.894   9.925  16.069  0.00  0.00    +0.000 N 
ATOM      4  H   UNL     1      49.318  10.035  16.891  0.00  0.00    +0.000 HD
ENDROOT
BRANCH   1  12
ATOM      5  C   UNL     1      50.570   6.044  17.621  0.00  0.00    +0.000 A 
ATOM      6  N   UNL     1      50.505   4.979  18.442  0.00  0.00    +0.000 NA
ATOM      7  C   UNL     1      51.003   5.101  19.673  0.00  0.00    +0.000 A 
ATOM      8  N   UNL     1      51.575   6.180  20.199  0.00  0.00    +0.000 NA
ATOM      9  C   UNL     1      51.624   7.219  19.348  0.00  0.00    +0.000 A 
ATOM     10  S   UNL     1      52.334   8.678  19.847  0.00  0.00    +0.000 S 
ATOM     11  C   UNL     1      52.014   9.409  18.346  0.00  0.00    +0.000 A 
ATOM     12  C   UNL     1      51.366   8.576  17.440  0.00  0.00    +0.000 A 
ATOM     13  C   UNL     1      51.149   7.257  18.041  0.00  0.00    +0.000 A 
BRANCH   5  15
ATOM     14  C   UNL     1      48.686   5.890  16.256  0.00  0.00    +0.000 C 
ATOM     15  O   UNL     1      50.109   5.887  16.332  0.00  0.00    +0.000 OA
ENDBRANCH   5  15
ENDBRANCH   1  12
BRANCH   3  16
ATOM     16  C   UNL     1      49.420  10.535  14.854  0.00  0.00    +0.000 C 
BRANCH  16  17
ATOM     17  C   UNL     1      48.849   9.504  13.910  0.00  0.00    +0.000 A 
ATOM     18  C   UNL     1      49.381   9.343  12.624  0.00  0.00    +0.000 A 
ATOM     19  C   UNL     1      48.862   8.380  11.748  0.00  0.00    +0.000 A 
ATOM     20  C   UNL     1      47.796   7.559  12.134  0.00  0.00    +0.000 A 
ATOM     21  C   UNL     1      47.239   7.749  13.406  0.00  0.00    +0.000 A 
ATOM     22  C   UNL     1      47.758   8.711  14.283  0.00  0.00    +0.000 A 
BRANCH  20  23
ATOM     23  C   UNL     1      47.190   6.567  11.228  0.00  0.00    +0.000 C 
ATOM     24  C   UNL     1      45.921   6.127  11.304  0.00  0.00    +0.000 C 
BRANCH  24  25
ATOM     25  C   UNL     1      45.346   5.100  10.422  0.00  0.00    +0.000 A 
ATOM     26  C   UNL     1      45.678   4.985   9.068  0.00  0.00    +0.000 A 
ATOM     27  C   UNL     1      45.154   3.942   8.303  0.00  0.00    +0.000 A 
ATOM     28  C   UNL     1      44.315   3.032   8.920  0.00  0.00    +0.000 A 
ATOM     29  N   UNL     1      43.973   3.096  10.223  0.00  0.00    +0.000 NA
ATOM     30  C   UNL     1      44.497   4.120  10.939  0.00  0.00    +0.000 A 
ENDBRANCH  24  25
ENDBRANCH  20  23
ENDBRANCH  16  17
ENDBRANCH   3  16
TORSDOF 6
ENDMDL
MODEL 7
REMARK VINA RESULT:    -4.757     10.994     12.154
REMARK INTER + INTRA:          -7.684
REMARK INTER:                  -6.744
REMARK INTRA:                  -0.940
REMARK UNBOUND:                -1.259
REMARK  Name = 
REMARK  7 active torsions:
REMARK  status: ('A' for Active; 'I' for Inactive)
REMARK    1  A    between atoms: C_1  and  O_2
REMARK    2  A    between atoms: O_2  and  C_3
REMARK    3  A    between atoms: C_10  and  C_11
REMARK    4  A    between atoms: N_13  and  C_14
REMARK    5  A    between atoms: C_14  and  C_15
REMARK    6  A    between atoms: C_18  and  C_19
REMARK    7  A    between atoms: C_20  and  C_21
REMARK                            x       y       z     vdW  Elec       q    Type
REMARK                         _______ _______ _______ _____ _____    ______ ____
ROOT
ATOM      1  C   UNL     1      38.403  -1.006  17.379  0.00  0.00    +0.000 C 
ATOM      2  O   UNL     1      37.587  -1.910  17.534  0.00  0.00    +0.000 OA
ATOM      3  N   UNL     1      39.338  -1.047  16.381  0.00  0.00    +0.000 N 
ATOM      4  H   UNL     1      39.928  -0.245  16.215  0.00  0.00    +0.000 HD
ENDROOT
BRANCH   1  12
ATOM      5  C   UNL     1      38.068   2.379  16.829  0.00  0.00    +0.000 A 
ATOM      6  N   UNL     1      38.010   3.723  16.892  0.00  0.00    +0.000 NA
ATOM      7  C   UNL     1      38.178   4.306  18.079  0.00  0.00    +0.000 A 
ATOM      8  N   UNL     1      38.399   3.699  19.242  0.00  0.00    +0.000 NA
ATOM      9  C   UNL     1      38.445   2.360  19.138  0.00  0.00    +0.000 A 
ATOM     10  S   UNL     1      38.705   1.420  20.528  0.00  0.00    +0.000 S 
ATOM     11  C   UNL     1      38.644  -0.021  19.628  0.00  0.00    +0.000 A 
ATOM     12  C   UNL     1      38.430   0.172  18.267  0.00  0.00    +0.000 A 
ATOM     13  C   UNL     1      38.295   1.602  17.980  0.00  0.00    +0.000 A 
BRANCH   5  15
ATOM     14  C   UNL     1      36.534   2.082  15.097  0.00  0.00    +0.000 C 
ATOM     15  O   UNL     1      37.831   1.785  15.607  0.00  0.00    +0.000 OA
ENDBRANCH   5  15
ENDBRANCH   1  12
BRANCH   3  16
ATOM     16  C   UNL     1      39.441  -2.138  15.446  0.00  0.00    +0.000 C 
BRANCH  16  17
ATOM     17  C   UNL     1      40.529  -3.104  15.851  0.00  0.00    +0.000 A 
ATOM     18  C   UNL     1      41.171  -2.977  17.089  0.00  0.00    +0.000 A 
ATOM     19  C   UNL     1      42.173  -3.878  17.475  0.00  0.00    +0.000 A 
ATOM     20  C   UNL     1      42.561  -4.924  16.629  0.00  0.00    +0.000 A 
ATOM     21  C   UNL     1      41.946  -5.026  15.374  0.00  0.00    +0.000 A 
ATOM     22  C   UNL     1      40.943  -4.126  14.988  0.00  0.00    +0.000 A 
BRANCH  20  23
ATOM     23  C   UNL     1      43.642  -5.864  16.975  0.00  0.00    +0.000 C 
ATOM     24  C   UNL     1      44.504  -5.706  17.995  0.00  0.00    +0.000 C 
BRANCH  24  25
ATOM     25  C   UNL     1      45.609  -6.630  18.296  0.00  0.00    +0.000 A 
ATOM     26  C   UNL     1      46.900  -6.467  17.785  0.00  0.00    +0.000 A 
ATOM     27  C   UNL     1      47.922  -7.337  18.168  0.00  0.00    +0.000 A 
ATOM     28  C   UNL     1      47.623  -8.346  19.065  0.00  0.00    +0.000 A 
ATOM     29  N   UNL     1      46.397  -8.539  19.592  0.00  0.00    +0.000 NA
ATOM     30  C   UNL     1      45.425  -7.678  19.200  0.00  0.00    +0.000 A 
ENDBRANCH  24  25
ENDBRANCH  20  23
ENDBRANCH  16  17
ENDBRANCH   3  16
TORSDOF 6
ENDMDL
MODEL 8
REMARK VINA RESULT:    -4.732     11.629     12.769
REMARK INTER + INTRA:          -7.651
REMARK INTER:                  -6.328
REMARK INTRA:                  -1.323
REMARK UNBOUND:                -1.259
REMARK  Name = 
REMARK  7 active torsions:
REMARK  status: ('A' for Active; 'I' for Inactive)
REMARK    1  A    between atoms: C_1  and  O_2
REMARK    2  A    between atoms: O_2  and  C_3
REMARK    3  A    between atoms: C_10  and  C_11
REMARK    4  A    between atoms: N_13  and  C_14
REMARK    5  A    between atoms: C_14  and  C_15
REMARK    6  A    between atoms: C_18  and  C_19
REMARK    7  A    between atoms: C_20  and  C_21
REMARK                            x       y       z     vdW  Elec       q    Type
REMARK                         _______ _______ _______ _____ _____    ______ ____
ROOT
ATOM      1  C   UNL     1      37.557  -0.786  12.035  0.00  0.00    +0.000 C 
ATOM      2  O   UNL     1      37.787   0.404  12.229  0.00  0.00    +0.000 OA
ATOM      3  N   UNL     1      37.448  -1.674  13.071  0.00  0.00    +0.000 N 
ATOM      4  H   UNL     1      37.159  -2.624  12.887  0.00  0.00    +0.000 HD
ENDROOT
BRANCH   1  12
ATOM      5  C   UNL     1      39.189  -3.251  10.264  0.00  0.00    +0.000 A 
ATOM      6  N   UNL     1      39.667  -4.119   9.352  0.00  0.00    +0.000 NA
ATOM      7  C   UNL     1      39.110  -4.130   8.140  0.00  0.00    +0.000 A 
ATOM      8  N   UNL     1      38.107  -3.366   7.716  0.00  0.00    +0.000 NA
ATOM      9  C   UNL     1      37.657  -2.518   8.655  0.00  0.00    +0.000 A 
ATOM     10  S   UNL     1      36.368  -1.473   8.293  0.00  0.00    +0.000 S 
ATOM     11  C   UNL     1      36.413  -0.793   9.850  0.00  0.00    +0.000 A 
ATOM     12  C   UNL     1      37.396  -1.331  10.673  0.00  0.00    +0.000 A 
ATOM     13  C   UNL     1      38.129  -2.378   9.957  0.00  0.00    +0.000 A 
BRANCH   5  15
ATOM     14  C   UNL     1      40.880  -2.458  11.660  0.00  0.00    +0.000 C 
ATOM     15  O   UNL     1      39.732  -3.292  11.531  0.00  0.00    +0.000 OA
ENDBRANCH   5  15
ENDBRANCH   1  12
BRANCH   3  16
ATOM     16  C   UNL     1      37.594  -1.291  14.451  0.00  0.00    +0.000 C 
BRANCH  16  17
ATOM     17  C   UNL     1      38.785  -1.971  15.085  0.00  0.00    +0.000 A 
ATOM     18  C   UNL     1      39.058  -3.320  14.823  0.00  0.00    +0.000 A 
ATOM     19  C   UNL     1      40.168  -3.953  15.399  0.00  0.00    +0.000 A 
ATOM     20  C   UNL     1      41.028  -3.254  16.255  0.00  0.00    +0.000 A 
ATOM     21  C   UNL     1      40.731  -1.916  16.547  0.00  0.00    +0.000 A 
ATOM     22  C   UNL     1      39.621  -1.282  15.971  0.00  0.00    +0.000 A 
BRANCH  20  23
ATOM     23  C   UNL     1      42.178  -3.893  16.918  0.00  0.00    +0.000 C 
ATOM     24  C   UNL     1      42.612  -5.143  16.674  0.00  0.00    +0.000 C 
BRANCH  24  25
ATOM     25  C   UNL     1      43.732  -5.783  17.382  0.00  0.00    +0.000 A 
ATOM     26  C   UNL     1      44.511  -5.120  18.335  0.00  0.00    +0.000 A 
ATOM     27  C   UNL     1      45.511  -5.806  19.025  0.00  0.00    +0.000 A 
ATOM     28  C   UNL     1      45.700  -7.148  18.745  0.00  0.00    +0.000 A 
ATOM     29  N   UNL     1      44.970  -7.832  17.841  0.00  0.00    +0.000 NA
ATOM     30  C   UNL     1      44.006  -7.138  17.188  0.00  0.00    +0.000 A 
ENDBRANCH  24  25
ENDBRANCH  20  23
ENDBRANCH  16  17
ENDBRANCH   3  16
TORSDOF 6
ENDMDL
MODEL 9
REMARK VINA RESULT:    -4.696     10.597     12.012
REMARK INTER + INTRA:          -7.602
REMARK INTER:                  -6.478
REMARK INTRA:                  -1.124
REMARK UNBOUND:                -1.259
REMARK  Name = 
REMARK  7 active torsions:
REMARK  status: ('A' for Active; 'I' for Inactive)
REMARK    1  A    between atoms: C_1  and  O_2
REMARK    2  A    between atoms: O_2  and  C_3
REMARK    3  A    between atoms: C_10  and  C_11
REMARK    4  A    between atoms: N_13  and  C_14
REMARK    5  A    between atoms: C_14  and  C_15
REMARK    6  A    between atoms: C_18  and  C_19
REMARK    7  A    between atoms: C_20  and  C_21
REMARK                            x       y       z     vdW  Elec       q    Type
REMARK                         _______ _______ _______ _____ _____    ______ ____
ROOT
ATOM      1  C   UNL     1      38.450  -1.072  19.194  0.00  0.00    +0.000 C 
ATOM      2  O   UNL     1      37.711  -1.783  19.868  0.00  0.00    +0.000 OA
ATOM      3  N   UNL     1      39.238  -1.593  18.203  0.00  0.00    +0.000 N 
ATOM      4  H   UNL     1      39.758  -0.973  17.600  0.00  0.00    +0.000 HD
ENDROOT
BRANCH   1  12
ATOM      5  C   UNL     1      38.146   1.665  17.122  0.00  0.00    +0.000 A 
ATOM      6  N   UNL     1      38.114   2.881  16.545  0.00  0.00    +0.000 NA
ATOM      7  C   UNL     1      38.351   3.948  17.310  0.00  0.00    +0.000 A 
ATOM      8  N   UNL     1      38.618   3.952  18.613  0.00  0.00    +0.000 NA
ATOM      9  C   UNL     1      38.636   2.721  19.151  0.00  0.00    +0.000 A 
ATOM     10  S   UNL     1      38.948   2.537  20.810  0.00  0.00    +0.000 S 
ATOM     11  C   UNL     1      38.818   0.845  20.700  0.00  0.00    +0.000 A 
ATOM     12  C   UNL     1      38.541   0.383  19.418  0.00  0.00    +0.000 A 
ATOM     13  C   UNL     1      38.416   1.514  18.495  0.00  0.00    +0.000 A 
BRANCH   5  15
ATOM     14  C   UNL     1      36.440   0.310  16.289  0.00  0.00    +0.000 C 
ATOM     15  O   UNL     1      37.839   0.576  16.335  0.00  0.00    +0.000 OA
ENDBRANCH   5  15
ENDBRANCH   1  12
BRANCH   3  16
ATOM     16  C   UNL     1      39.265  -2.996  17.878  0.00  0.00    +0.000 C 
BRANCH  16  17
ATOM     17  C   UNL     1      40.655  -3.566  18.030  0.00  0.00    +0.000 A 
ATOM     18  C   UNL     1      41.171  -3.859  19.299  0.00  0.00    +0.000 A 
ATOM     19  C   UNL     1      42.456  -4.399  19.445  0.00  0.00    +0.000 A 
ATOM     20  C   UNL     1      43.258  -4.656  18.326  0.00  0.00    +0.000 A 
ATOM     21  C   UNL     1      42.755  -4.326  17.060  0.00  0.00    +0.000 A 
ATOM     22  C   UNL     1      41.470  -3.786  16.913  0.00  0.00    +0.000 A 
BRANCH  20  23
ATOM     23  C   UNL     1      44.631  -5.179  18.438  0.00  0.00    +0.000 C 
ATOM     24  C   UNL     1      45.138  -6.177  17.693  0.00  0.00    +0.000 C 
BRANCH  24  25
ATOM     25  C   UNL     1      46.497  -6.720  17.851  0.00  0.00    +0.000 A 
ATOM     26  C   UNL     1      47.632  -6.105  17.313  0.00  0.00    +0.000 A 
ATOM     27  C   UNL     1      48.900  -6.632  17.562  0.00  0.00    +0.000 A 
ATOM     28  C   UNL     1      48.998  -7.760  18.355  0.00  0.00    +0.000 A 
ATOM     29  N   UNL     1      47.935  -8.384  18.903  0.00  0.00    +0.000 NA
ATOM     30  C   UNL     1      46.717  -7.849  18.642  0.00  0.00    +0.000 A 
ENDBRANCH  24  25
ENDBRANCH  20  23
ENDBRANCH  16  17
ENDBRANCH   3  16
TORSDOF 6
ENDMDL
