MODEL 1
REMARK VINA RESULT:    -7.274      0.000      0.000
REMARK INTER + INTRA:         -10.895
REMARK INTER:                 -10.463
REMARK INTRA:                  -0.432
REMARK UNBOUND:                -0.432
REMARK  Name = 
REMARK  8 active torsions:
REMARK  status: ('A' for Active; 'I' for Inactive)
REMARK    1  A    between atoms: N_1  and  C_2
REMARK    2  A    between atoms: C_2  and  C_3
REMARK    3  A    between atoms: C_3  and  C_4
REMARK    4  A    between atoms: C_4  and  C_5
REMARK    5  A    between atoms: C_5  and  C_6
REMARK    6  A    between atoms: C_9  and  C_10
REMARK    7  A    between atoms: C_10  and  N_11
REMARK    8  A    between atoms: C_16  and  C_17
REMARK                            x       y       z     vdW  Elec       q    Type
REMARK                         _______ _______ _______ _____ _____    ______ ____
ROOT
ATOM      1  C   UNL     1      46.392   4.767  14.007  0.00  0.00    +0.000 C 
ENDROOT
BRANCH   1   2
ATOM      2  N   UNL     1      46.841   3.500  14.557  0.00  0.00    +0.000 N 
ATOM      3  C   UNL     1      47.586   3.548  15.716  0.00  0.00    +0.000 A 
ATOM      4  N   UNL     1      48.529   2.609  15.856  0.00  0.00    +0.000 NA
ATOM      5  C   UNL     1      49.238   2.600  17.002  0.00  0.00    +0.000 A 
ATOM      6  C   UNL     1      49.038   3.495  18.019  0.00  0.00    +0.000 A 
ATOM      7  C   UNL     1      48.055   4.420  17.774  0.00  0.00    +0.000 A 
ATOM      8  N   UNL     1      47.326   4.482  16.633  0.00  0.00    +0.000 NA
ATOM      9  H   UNL     1      47.320   2.898  13.894  0.00  0.00    +0.000 HD
BRANCH   7  10
ATOM     10  C   UNL     1      47.723   5.442  18.813  0.00  0.00    +0.000 C 
ATOM     11  N   UNL     1      46.388   5.688  18.989  0.00  0.00    +0.000 N 
ATOM     12  O   UNL     1      48.582   6.017  19.469  0.00  0.00    +0.000 OA
ATOM     13  H   UNL     1      45.707   5.134  18.484  0.00  0.00    +0.000 HD
ATOM     14  H   UNL     1      46.092   6.314  19.725  0.00  0.00    +0.000 HD
ENDBRANCH   7  10
ENDBRANCH   1   2
BRANCH   1  18
ATOM     15  C   UNL     1      45.034   4.359  10.039  0.00  0.00    +0.000 A 
ATOM     16  C   UNL     1      45.604   5.542  10.494  0.00  0.00    +0.000 A 
ATOM     17  N   UNL     1      46.052   5.705  11.760  0.00  0.00    +0.000 NA
ATOM     18  C   UNL     1      45.928   4.626  12.578  0.00  0.00    +0.000 A 
ATOM     19  C   UNL     1      45.356   3.443  12.123  0.00  0.00    +0.000 A 
ATOM     20  N   UNL     1      44.910   3.282  10.853  0.00  0.00    +0.000 NA
BRANCH  15  21
ATOM     21  C   UNL     1      44.567   4.222   8.616  0.00  0.00    +0.000 C 
BRANCH  21  22
ATOM     22  C   UNL     1      45.230   3.030   7.926  0.00  0.00    +0.000 C 
BRANCH  22  23
ATOM     23  C   UNL     1      46.549   3.430   7.260  0.00  0.00    +0.000 C 
BRANCH  23  24
ATOM     24  C   UNL     1      47.416   2.202   6.983  0.00  0.00    +0.000 C 
BRANCH  24  25
ATOM     25  N   UNL     1      48.653   2.593   6.319  0.00  0.00    +0.000 NA
ATOM     26  H   UNL     1      48.467   3.376   5.693  0.00  0.00    +0.000 HD
ATOM     27  H   UNL     1      48.986   1.830   5.731  0.00  0.00    +0.000 HD
ENDBRANCH  24  25
ENDBRANCH  23  24
ENDBRANCH  22  23
ENDBRANCH  21  22
ENDBRANCH  15  21
ENDBRANCH   1  18
TORSDOF 8
ENDMDL
MODEL 2
REMARK VINA RESULT:    -7.272      1.795      2.338
REMARK INTER + INTRA:         -10.893
REMARK INTER:                 -10.437
REMARK INTRA:                  -0.456
REMARK UNBOUND:                -0.432
REMARK  Name = 
REMARK  8 active torsions:
REMARK  status: ('A' for Active; 'I' for Inactive)
REMARK    1  A    between atoms: N_1  and  C_2
REMARK    2  A    between atoms: C_2  and  C_3
REMARK    3  A    between atoms: C_3  and  C_4
REMARK    4  A    between atoms: C_4  and  C_5
REMARK    5  A    between atoms: C_5  and  C_6
REMARK    6  A    between atoms: C_9  and  C_10
REMARK    7  A    between atoms: C_10  and  N_11
REMARK    8  A    between atoms: C_16  and  C_17
REMARK                            x       y       z     vdW  Elec       q    Type
REMARK                         _______ _______ _______ _____ _____    ______ ____
ROOT
ATOM      1  C   UNL     1      45.922   5.561  13.279  0.00  0.00    +0.000 C 
ENDROOT
BRANCH   1   2
ATOM      2  N   UNL     1      47.333   5.876  13.416  0.00  0.00    +0.000 N 
ATOM      3  C   UNL     1      47.891   5.726  14.667  0.00  0.00    +0.000 A 
ATOM      4  N   UNL     1      48.866   6.583  14.990  0.00  0.00    +0.000 NA
ATOM      5  C   UNL     1      49.466   6.428  16.187  0.00  0.00    +0.000 A 
ATOM      6  C   UNL     1      49.129   5.443  17.076  0.00  0.00    +0.000 A 
ATOM      7  C   UNL     1      48.114   4.621  16.653  0.00  0.00    +0.000 A 
ATOM      8  N   UNL     1      47.468   4.745  15.469  0.00  0.00    +0.000 NA
ATOM      9  H   UNL     1      47.599   6.786  13.054  0.00  0.00    +0.000 HD
BRANCH   7  10
ATOM     10  C   UNL     1      47.664   3.492  17.523  0.00  0.00    +0.000 C 
ATOM     11  N   UNL     1      48.586   3.048  18.432  0.00  0.00    +0.000 N 
ATOM     12  O   UNL     1      46.547   2.998  17.437  0.00  0.00    +0.000 OA
ATOM     13  H   UNL     1      49.470   3.535  18.527  0.00  0.00    +0.000 HD
ATOM     14  H   UNL     1      48.323   2.337  19.099  0.00  0.00    +0.000 HD
ENDBRANCH   7  10
ENDBRANCH   1   2
BRANCH   1  18
ATOM     15  C   UNL     1      45.075   4.080   9.426  0.00  0.00    +0.000 A 
ATOM     16  C   UNL     1      44.808   3.332  10.567  0.00  0.00    +0.000 A 
ATOM     17  N   UNL     1      45.066   3.778  11.818  0.00  0.00    +0.000 NA
ATOM     18  C   UNL     1      45.595   5.027  11.906  0.00  0.00    +0.000 A 
ATOM     19  C   UNL     1      45.863   5.775  10.764  0.00  0.00    +0.000 A 
ATOM     20  N   UNL     1      45.603   5.325   9.512  0.00  0.00    +0.000 NA
BRANCH  15  21
ATOM     21  C   UNL     1      44.755   3.544   8.058  0.00  0.00    +0.000 C 
BRANCH  21  22
ATOM     22  C   UNL     1      46.011   3.449   7.191  0.00  0.00    +0.000 C 
BRANCH  22  23
ATOM     23  C   UNL     1      46.688   2.083   7.334  0.00  0.00    +0.000 C 
BRANCH  23  24
ATOM     24  C   UNL     1      48.150   2.150   6.896  0.00  0.00    +0.000 C 
BRANCH  24  25
ATOM     25  N   UNL     1      48.264   1.895   5.466  0.00  0.00    +0.000 NA
ATOM     26  H   UNL     1      49.236   2.007   5.180  0.00  0.00    +0.000 HD
ATOM     27  H   UNL     1      47.732   2.591   4.946  0.00  0.00    +0.000 HD
ENDBRANCH  24  25
ENDBRANCH  23  24
ENDBRANCH  22  23
ENDBRANCH  21  22
ENDBRANCH  15  21
ENDBRANCH   1  18
TORSDOF 8
ENDMDL
MODEL 3
REMARK VINA RESULT:    -6.894      1.762      2.348
REMARK INTER + INTRA:         -10.349
REMARK INTER:                  -9.799
REMARK INTRA:                  -0.550
REMARK UNBOUND:                -0.432
REMARK  Name = 
REMARK  8 active torsions:
REMARK  status: ('A' for Active; 'I' for Inactive)
REMARK    1  A    between atoms: N_1  and  C_2
REMARK    2  A    between atoms: C_2  and  C_3
REMARK    3  A    between atoms: C_3  and  C_4
REMARK    4  A    between atoms: C_4  and  C_5
REMARK    5  A    between atoms: C_5  and  C_6
REMARK    6  A    between atoms: C_9  and  C_10
REMARK    7  A    between atoms: C_10  and  N_11
REMARK    8  A    between atoms: C_16  and  C_17
REMARK                            x       y       z     vdW  Elec       q    Type
REMARK                         _______ _______ _______ _____ _____    ______ ____
ROOT
ATOM      1  C   UNL     1      47.278   5.249  14.103  0.00  0.00    +0.000 C 
ENDROOT
BRANCH   1   2
ATOM      2  N   UNL     1      46.645   4.932  15.372  0.00  0.00    +0.000 N 
ATOM      3  C   UNL     1      47.400   4.240  16.295  0.00  0.00    +0.000 A 
ATOM      4  N   UNL     1      46.739   3.386  17.083  0.00  0.00    +0.000 NA
ATOM      5  C   UNL     1      47.443   2.734  18.030  0.00  0.00    +0.000 A 
ATOM      6  C   UNL     1      48.788   2.907  18.221  0.00  0.00    +0.000 A 
ATOM      7  C   UNL     1      49.373   3.799  17.356  0.00  0.00    +0.000 A 
ATOM      8  N   UNL     1      48.713   4.466  16.379  0.00  0.00    +0.000 NA
ATOM      9  H   UNL     1      45.743   4.474  15.289  0.00  0.00    +0.000 HD
BRANCH   7  10
ATOM     10  C   UNL     1      50.833   4.093  17.472  0.00  0.00    +0.000 C 
ATOM     11  N   UNL     1      51.554   3.200  18.219  0.00  0.00    +0.000 N 
ATOM     12  O   UNL     1      51.356   5.059  16.932  0.00  0.00    +0.000 OA
ATOM     13  H   UNL     1      51.100   2.370  18.583  0.00  0.00    +0.000 HD
ATOM     14  H   UNL     1      52.558   3.299  18.279  0.00  0.00    +0.000 HD
ENDBRANCH   7  10
ENDBRANCH   1   2
BRANCH   1  18
ATOM     15  C   UNL     1      44.922   4.158  10.784  0.00  0.00    +0.000 A 
ATOM     16  C   UNL     1      45.095   3.302  11.866  0.00  0.00    +0.000 A 
ATOM     17  N   UNL     1      45.842   3.622  12.948  0.00  0.00    +0.000 NA
ATOM     18  C   UNL     1      46.415   4.855  12.930  0.00  0.00    +0.000 A 
ATOM     19  C   UNL     1      46.244   5.710  11.846  0.00  0.00    +0.000 A 
ATOM     20  N   UNL     1      45.494   5.387  10.765  0.00  0.00    +0.000 NA
BRANCH  15  21
ATOM     21  C   UNL     1      44.067   3.761   9.613  0.00  0.00    +0.000 C 
BRANCH  21  22
ATOM     22  C   UNL     1      44.513   2.419   9.029  0.00  0.00    +0.000 C 
BRANCH  22  23
ATOM     23  C   UNL     1      45.890   2.526   8.368  0.00  0.00    +0.000 C 
BRANCH  23  24
ATOM     24  C   UNL     1      45.829   3.407   7.121  0.00  0.00    +0.000 C 
BRANCH  24  25
ATOM     25  N   UNL     1      47.035   4.218   7.012  0.00  0.00    +0.000 NA
ATOM     26  H   UNL     1      47.475   4.292   7.929  0.00  0.00    +0.000 HD
ATOM     27  H   UNL     1      46.791   5.168   6.736  0.00  0.00    +0.000 HD
ENDBRANCH  24  25
ENDBRANCH  23  24
ENDBRANCH  22  23
ENDBRANCH  21  22
ENDBRANCH  15  21
ENDBRANCH   1  18
TORSDOF 8
ENDMDL
MODEL 4
REMARK VINA RESULT:    -6.659      1.804      2.170
REMARK INTER + INTRA:         -10.011
REMARK INTER:                  -9.562
REMARK INTRA:                  -0.449
REMARK UNBOUND:                -0.432
REMARK  Name = 
REMARK  8 active torsions:
REMARK  status: ('A' for Active; 'I' for Inactive)
REMARK    1  A    between atoms: N_1  and  C_2
REMARK    2  A    between atoms: C_2  and  C_3
REMARK    3  A    between atoms: C_3  and  C_4
REMARK    4  A    between atoms: C_4  and  C_5
REMARK    5  A    between atoms: C_5  and  C_6
REMARK    6  A    between atoms: C_9  and  C_10
REMARK    7  A    between atoms: C_10  and  N_11
REMARK    8  A    between atoms: C_16  and  C_17
REMARK                            x       y       z     vdW  Elec       q    Type
REMARK                         _______ _______ _______ _____ _____    ______ ____
ROOT
ATOM      1  C   UNL     1      47.096   4.582  15.010  0.00  0.00    +0.000 C 
ENDROOT
BRANCH   1   2
ATOM      2  N   UNL     1      47.402   3.263  15.534  0.00  0.00    +0.000 N 
ATOM      3  C   UNL     1      48.590   3.120  16.220  0.00  0.00    +0.000 A 
ATOM      4  N   UNL     1      49.203   1.937  16.107  0.00  0.00    +0.000 NA
ATOM      5  C   UNL     1      50.339   1.751  16.808  0.00  0.00    +0.000 A 
ATOM      6  C   UNL     1      50.886   2.705  17.624  0.00  0.00    +0.000 A 
ATOM      7  C   UNL     1      50.184   3.885  17.665  0.00  0.00    +0.000 A 
ATOM      8  N   UNL     1      49.049   4.127  16.967  0.00  0.00    +0.000 NA
ATOM      9  H   UNL     1      47.334   2.513  14.854  0.00  0.00    +0.000 HD
BRANCH   7  10
ATOM     10  C   UNL     1      50.664   5.002  18.534  0.00  0.00    +0.000 C 
ATOM     11  N   UNL     1      50.002   6.190  18.381  0.00  0.00    +0.000 N 
ATOM     12  O   UNL     1      51.580   4.867  19.334  0.00  0.00    +0.000 OA
ATOM     13  H   UNL     1      49.197   6.239  17.767  0.00  0.00    +0.000 HD
ATOM     14  H   UNL     1      50.227   6.966  18.988  0.00  0.00    +0.000 HD
ENDBRANCH   7  10
ENDBRANCH   1   2
BRANCH   1  18
ATOM     15  C   UNL     1      44.876   4.411  11.432  0.00  0.00    +0.000 A 
ATOM     16  C   UNL     1      45.263   3.257  12.104  0.00  0.00    +0.000 A 
ATOM     17  N   UNL     1      45.974   3.277  13.255  0.00  0.00    +0.000 NA
ATOM     18  C   UNL     1      46.284   4.508  13.740  0.00  0.00    +0.000 A 
ATOM     19  C   UNL     1      45.898   5.663  13.067  0.00  0.00    +0.000 A 
ATOM     20  N   UNL     1      45.186   5.640  11.915  0.00  0.00    +0.000 NA
BRANCH  15  21
ATOM     21  C   UNL     1      44.073   4.335  10.164  0.00  0.00    +0.000 C 
BRANCH  21  22
ATOM     22  C   UNL     1      44.476   3.123   9.322  0.00  0.00    +0.000 C 
BRANCH  22  23
ATOM     23  C   UNL     1      44.863   3.534   7.899  0.00  0.00    +0.000 C 
BRANCH  23  24
ATOM     24  C   UNL     1      46.349   3.880   7.816  0.00  0.00    +0.000 C 
BRANCH  24  25
ATOM     25  N   UNL     1      46.759   4.030   6.425  0.00  0.00    +0.000 NA
ATOM     26  H   UNL     1      47.766   3.893   6.354  0.00  0.00    +0.000 HD
ATOM     27  H   UNL     1      46.578   4.983   6.112  0.00  0.00    +0.000 HD
ENDBRANCH  24  25
ENDBRANCH  23  24
ENDBRANCH  22  23
ENDBRANCH  21  22
ENDBRANCH  15  21
ENDBRANCH   1  18
TORSDOF 8
ENDMDL
MODEL 5
REMARK VINA RESULT:    -6.333      2.465      3.503
REMARK INTER + INTRA:          -9.543
REMARK INTER:                  -9.143
REMARK INTRA:                  -0.400
REMARK UNBOUND:                -0.432
REMARK  Name = 
REMARK  8 active torsions:
REMARK  status: ('A' for Active; 'I' for Inactive)
REMARK    1  A    between atoms: N_1  and  C_2
REMARK    2  A    between atoms: C_2  and  C_3
REMARK    3  A    between atoms: C_3  and  C_4
REMARK    4  A    between atoms: C_4  and  C_5
REMARK    5  A    between atoms: C_5  and  C_6
REMARK    6  A    between atoms: C_9  and  C_10
REMARK    7  A    between atoms: C_10  and  N_11
REMARK    8  A    between atoms: C_16  and  C_17
REMARK                            x       y       z     vdW  Elec       q    Type
REMARK                         _______ _______ _______ _____ _____    ______ ____
ROOT
ATOM      1  C   UNL     1      48.446   6.230  14.434  0.00  0.00    +0.000 C 
ENDROOT
BRANCH   1   2
ATOM      2  N   UNL     1      48.342   6.618  15.830  0.00  0.00    +0.000 N 
ATOM      3  C   UNL     1      48.490   5.621  16.771  0.00  0.00    +0.000 A 
ATOM      4  N   UNL     1      47.773   5.751  17.892  0.00  0.00    +0.000 NA
ATOM      5  C   UNL     1      47.935   4.818  18.851  0.00  0.00    +0.000 A 
ATOM      6  C   UNL     1      48.794   3.758  18.733  0.00  0.00    +0.000 A 
ATOM      7  C   UNL     1      49.477   3.712  17.544  0.00  0.00    +0.000 A 
ATOM      8  N   UNL     1      49.337   4.614  16.542  0.00  0.00    +0.000 NA
ATOM      9  H   UNL     1      47.510   7.152  16.058  0.00  0.00    +0.000 HD
BRANCH   7  10
ATOM     10  C   UNL     1      50.461   2.616  17.297  0.00  0.00    +0.000 C 
ATOM     11  N   UNL     1      51.559   2.617  18.115  0.00  0.00    +0.000 N 
ATOM     12  O   UNL     1      50.299   1.767  16.429  0.00  0.00    +0.000 OA
ATOM     13  H   UNL     1      51.617   3.287  18.873  0.00  0.00    +0.000 HD
ATOM     14  H   UNL     1      52.228   1.862  18.050  0.00  0.00    +0.000 HD
ENDBRANCH   7  10
ENDBRANCH   1   2
BRANCH   1  18
ATOM     15  C   UNL     1      44.750   4.826  12.976  0.00  0.00    +0.000 A 
ATOM     16  C   UNL     1      45.147   6.146  12.799  0.00  0.00    +0.000 A 
ATOM     17  N   UNL     1      46.327   6.629  13.252  0.00  0.00    +0.000 NA
ATOM     18  C   UNL     1      47.128   5.734  13.889  0.00  0.00    +0.000 A 
ATOM     19  C   UNL     1      46.731   4.414  14.068  0.00  0.00    +0.000 A 
ATOM     20  N   UNL     1      45.549   3.933  13.612  0.00  0.00    +0.000 NA
BRANCH  15  21
ATOM     21  C   UNL     1      43.434   4.335  12.439  0.00  0.00    +0.000 C 
BRANCH  21  22
ATOM     22  C   UNL     1      43.619   3.084  11.578  0.00  0.00    +0.000 C 
BRANCH  22  23
ATOM     23  C   UNL     1      44.689   3.296  10.504  0.00  0.00    +0.000 C 
BRANCH  23  24
ATOM     24  C   UNL     1      44.181   4.227   9.404  0.00  0.00    +0.000 C 
BRANCH  24  25
ATOM     25  N   UNL     1      45.292   4.949   8.796  0.00  0.00    +0.000 NA
ATOM     26  H   UNL     1      46.132   4.372   8.838  0.00  0.00    +0.000 HD
ATOM     27  H   UNL     1      45.496   5.789   9.337  0.00  0.00    +0.000 HD
ENDBRANCH  24  25
ENDBRANCH  23  24
ENDBRANCH  22  23
ENDBRANCH  21  22
ENDBRANCH  15  21
ENDBRANCH   1  18
TORSDOF 8
ENDMDL
MODEL 6
REMARK VINA RESULT:    -6.310      3.251      4.173
REMARK INTER + INTRA:          -9.509
REMARK INTER:                  -8.580
REMARK INTRA:                  -0.929
REMARK UNBOUND:                -0.432
REMARK  Name = 
REMARK  8 active torsions:
REMARK  status: ('A' for Active; 'I' for Inactive)
REMARK    1  A    between atoms: N_1  and  C_2
REMARK    2  A    between atoms: C_2  and  C_3
REMARK    3  A    between atoms: C_3  and  C_4
REMARK    4  A    between atoms: C_4  and  C_5
REMARK    5  A    between atoms: C_5  and  C_6
REMARK    6  A    between atoms: C_9  and  C_10
REMARK    7  A    between atoms: C_10  and  N_11
REMARK    8  A    between atoms: C_16  and  C_17
REMARK                            x       y       z     vdW  Elec       q    Type
REMARK                         _______ _______ _______ _____ _____    ______ ____
ROOT
ATOM      1  C   UNL     1      49.074   6.905  14.793  0.00  0.00    +0.000 C 
ENDROOT
BRANCH   1   2
ATOM      2  N   UNL     1      48.779   7.016  16.211  0.00  0.00    +0.000 N 
ATOM      3  C   UNL     1      48.597   5.840  16.908  0.00  0.00    +0.000 A 
ATOM      4  N   UNL     1      47.716   5.876  17.914  0.00  0.00    +0.000 NA
ATOM      5  C   UNL     1      47.555   4.756  18.645  0.00  0.00    +0.000 A 
ATOM      6  C   UNL     1      48.246   3.597  18.411  0.00  0.00    +0.000 A 
ATOM      7  C   UNL     1      49.119   3.662  17.354  0.00  0.00    +0.000 A 
ATOM      8  N   UNL     1      49.305   4.757  16.578  0.00  0.00    +0.000 NA
ATOM      9  H   UNL     1      48.012   7.642  16.434  0.00  0.00    +0.000 HD
BRANCH   7  10
ATOM     10  C   UNL     1      49.951   2.471  17.006  0.00  0.00    +0.000 C 
ATOM     11  N   UNL     1      51.013   2.233  17.836  0.00  0.00    +0.000 N 
ATOM     12  O   UNL     1      49.699   1.749  16.049  0.00  0.00    +0.000 OA
ATOM     13  H   UNL     1      51.140   2.806  18.662  0.00  0.00    +0.000 HD
ATOM     14  H   UNL     1      51.573   1.403  17.700  0.00  0.00    +0.000 HD
ENDBRANCH   7  10
ENDBRANCH   1   2
BRANCH   1  18
ATOM     15  C   UNL     1      45.542   6.481  12.534  0.00  0.00    +0.000 A 
ATOM     16  C   UNL     1      46.003   7.730  12.935  0.00  0.00    +0.000 A 
ATOM     17  N   UNL     1      47.134   7.901  13.659  0.00  0.00    +0.000 NA
ATOM     18  C   UNL     1      47.818   6.768  13.967  0.00  0.00    +0.000 A 
ATOM     19  C   UNL     1      47.356   5.518  13.567  0.00  0.00    +0.000 A 
ATOM     20  N   UNL     1      46.224   5.351  12.842  0.00  0.00    +0.000 NA
BRANCH  15  21
ATOM     21  C   UNL     1      44.287   6.346  11.717  0.00  0.00    +0.000 C 
BRANCH  21  22
ATOM     22  C   UNL     1      43.324   5.334  12.341  0.00  0.00    +0.000 C 
BRANCH  22  23
ATOM     23  C   UNL     1      43.113   4.125  11.426  0.00  0.00    +0.000 C 
BRANCH  23  24
ATOM     24  C   UNL     1      43.469   2.826  12.148  0.00  0.00    +0.000 C 
BRANCH  24  25
ATOM     25  N   UNL     1      44.890   2.795  12.467  0.00  0.00    +0.000 NA
ATOM     26  H   UNL     1      45.163   1.840  12.697  0.00  0.00    +0.000 HD
ATOM     27  H   UNL     1      45.071   3.352  13.302  0.00  0.00    +0.000 HD
ENDBRANCH  24  25
ENDBRANCH  23  24
ENDBRANCH  22  23
ENDBRANCH  21  22
ENDBRANCH  15  21
ENDBRANCH   1  18
TORSDOF 8
ENDMDL
MODEL 7
REMARK VINA RESULT:    -6.266      3.700      8.472
REMARK INTER + INTRA:          -9.446
REMARK INTER:                  -8.983
REMARK INTRA:                  -0.462
REMARK UNBOUND:                -0.432
REMARK  Name = 
REMARK  8 active torsions:
REMARK  status: ('A' for Active; 'I' for Inactive)
REMARK    1  A    between atoms: N_1  and  C_2
REMARK    2  A    between atoms: C_2  and  C_3
REMARK    3  A    between atoms: C_3  and  C_4
REMARK    4  A    between atoms: C_4  and  C_5
REMARK    5  A    between atoms: C_5  and  C_6
REMARK    6  A    between atoms: C_9  and  C_10
REMARK    7  A    between atoms: C_10  and  N_11
REMARK    8  A    between atoms: C_16  and  C_17
REMARK                            x       y       z     vdW  Elec       q    Type
REMARK                         _______ _______ _______ _____ _____    ______ ____
ROOT
ATOM      1  C   UNL     1      47.047   3.846  15.930  0.00  0.00    +0.000 C 
ENDROOT
BRANCH   1   2
ATOM      2  N   UNL     1      47.073   5.132  15.256  0.00  0.00    +0.000 N 
ATOM      3  C   UNL     1      46.553   5.182  13.980  0.00  0.00    +0.000 A 
ATOM      4  N   UNL     1      47.133   6.041  13.135  0.00  0.00    +0.000 NA
ATOM      5  C   UNL     1      46.614   6.149  11.896  0.00  0.00    +0.000 A 
ATOM      6  C   UNL     1      45.529   5.431  11.469  0.00  0.00    +0.000 A 
ATOM      7  C   UNL     1      45.012   4.574  12.408  0.00  0.00    +0.000 A 
ATOM      8  N   UNL     1      45.507   4.416  13.660  0.00  0.00    +0.000 NA
ATOM      9  H   UNL     1      47.980   5.586  15.249  0.00  0.00    +0.000 HD
BRANCH   7  10
ATOM     10  C   UNL     1      43.813   3.746  12.075  0.00  0.00    +0.000 C 
ATOM     11  N   UNL     1      43.816   2.477  12.588  0.00  0.00    +0.000 N 
ATOM     12  O   UNL     1      42.887   4.171  11.397  0.00  0.00    +0.000 OA
ATOM     13  H   UNL     1      44.562   2.190  13.211  0.00  0.00    +0.000 HD
ATOM     14  H   UNL     1      43.004   1.889  12.462  0.00  0.00    +0.000 HD
ENDBRANCH   7  10
ENDBRANCH   1   2
BRANCH   1  18
ATOM     15  C   UNL     1      50.856   2.763  17.371  0.00  0.00    +0.000 A 
ATOM     16  C   UNL     1      50.375   4.062  17.491  0.00  0.00    +0.000 A 
ATOM     17  N   UNL     1      49.157   4.442  17.041  0.00  0.00    +0.000 NA
ATOM     18  C   UNL     1      48.404   3.466  16.469  0.00  0.00    +0.000 A 
ATOM     19  C   UNL     1      48.885   2.167  16.348  0.00  0.00    +0.000 A 
ATOM     20  N   UNL     1      50.105   1.789  16.800  0.00  0.00    +0.000 NA
BRANCH  15  21
ATOM     21  C   UNL     1      52.211   2.387  17.903  0.00  0.00    +0.000 C 
BRANCH  21  22
ATOM     22  C   UNL     1      52.488   0.895  17.711  0.00  0.00    +0.000 C 
BRANCH  22  23
ATOM     23  C   UNL     1      53.975   0.630  17.458  0.00  0.00    +0.000 C 
BRANCH  23  24
ATOM     24  C   UNL     1      54.438  -0.626  18.194  0.00  0.00    +0.000 C 
BRANCH  24  25
ATOM     25  N   UNL     1      53.301  -1.309  18.798  0.00  0.00    +0.000 NA
ATOM     26  H   UNL     1      53.615  -1.825  19.620  0.00  0.00    +0.000 HD
ATOM     27  H   UNL     1      52.930  -2.004  18.150  0.00  0.00    +0.000 HD
ENDBRANCH  24  25
ENDBRANCH  23  24
ENDBRANCH  22  23
ENDBRANCH  21  22
ENDBRANCH  15  21
ENDBRANCH   1  18
TORSDOF 8
ENDMDL
MODEL 8
REMARK VINA RESULT:    -5.989      3.358      8.967
REMARK INTER + INTRA:          -9.047
REMARK INTER:                  -8.331
REMARK INTRA:                  -0.716
REMARK UNBOUND:                -0.432
REMARK  Name = 
REMARK  8 active torsions:
REMARK  status: ('A' for Active; 'I' for Inactive)
REMARK    1  A    between atoms: N_1  and  C_2
REMARK    2  A    between atoms: C_2  and  C_3
REMARK    3  A    between atoms: C_3  and  C_4
REMARK    4  A    between atoms: C_4  and  C_5
REMARK    5  A    between atoms: C_5  and  C_6
REMARK    6  A    between atoms: C_9  and  C_10
REMARK    7  A    between atoms: C_10  and  N_11
REMARK    8  A    between atoms: C_16  and  C_17
REMARK                            x       y       z     vdW  Elec       q    Type
REMARK                         _______ _______ _______ _____ _____    ______ ____
ROOT
ATOM      1  C   UNL     1      46.978   4.504  13.970  0.00  0.00    +0.000 C 
ENDROOT
BRANCH   1   2
ATOM      2  N   UNL     1      45.543   4.541  14.190  0.00  0.00    +0.000 N 
ATOM      3  C   UNL     1      44.740   4.661  13.075  0.00  0.00    +0.000 A 
ATOM      4  N   UNL     1      43.605   5.350  13.232  0.00  0.00    +0.000 NA
ATOM      5  C   UNL     1      42.775   5.441  12.174  0.00  0.00    +0.000 A 
ATOM      6  C   UNL     1      43.038   4.863  10.960  0.00  0.00    +0.000 A 
ATOM      7  C   UNL     1      44.230   4.186  10.901  0.00  0.00    +0.000 A 
ATOM      8  N   UNL     1      45.105   4.080  11.930  0.00  0.00    +0.000 NA
ATOM      9  H   UNL     1      45.239   5.222  14.877  0.00  0.00    +0.000 HD
BRANCH   7  10
ATOM     10  C   UNL     1      44.626   3.493   9.637  0.00  0.00    +0.000 C 
ATOM     11  N   UNL     1      44.554   2.126   9.671  0.00  0.00    +0.000 N 
ATOM     12  O   UNL     1      44.984   4.100   8.637  0.00  0.00    +0.000 OA
ATOM     13  H   UNL     1      44.177   1.665  10.490  0.00  0.00    +0.000 HD
ATOM     14  H   UNL     1      44.738   1.599   8.829  0.00  0.00    +0.000 HD
ENDBRANCH   7  10
ENDBRANCH   1   2
BRANCH   1  18
ATOM     15  C   UNL     1      49.136   6.037  17.249  0.00  0.00    +0.000 A 
ATOM     16  C   UNL     1      49.267   6.578  15.975  0.00  0.00    +0.000 A 
ATOM     17  N   UNL     1      48.588   6.112  14.902  0.00  0.00    +0.000 NA
ATOM     18  C   UNL     1      47.741   5.075  15.140  0.00  0.00    +0.000 A 
ATOM     19  C   UNL     1      47.611   4.533  16.414  0.00  0.00    +0.000 A 
ATOM     20  N   UNL     1      48.292   5.003  17.487  0.00  0.00    +0.000 NA
BRANCH  15  21
ATOM     21  C   UNL     1      49.901   6.603  18.413  0.00  0.00    +0.000 C 
BRANCH  21  22
ATOM     22  C   UNL     1      49.003   6.772  19.639  0.00  0.00    +0.000 C 
BRANCH  22  23
ATOM     23  C   UNL     1      49.434   5.846  20.780  0.00  0.00    +0.000 C 
BRANCH  23  24
ATOM     24  C   UNL     1      48.317   4.867  21.139  0.00  0.00    +0.000 C 
BRANCH  24  25
ATOM     25  N   UNL     1      48.483   3.617  20.407  0.00  0.00    +0.000 NA
ATOM     26  H   UNL     1      49.132   3.762  19.635  0.00  0.00    +0.000 HD
ATOM     27  H   UNL     1      47.596   3.342  19.986  0.00  0.00    +0.000 HD
ENDBRANCH  24  25
ENDBRANCH  23  24
ENDBRANCH  22  23
ENDBRANCH  21  22
ENDBRANCH  15  21
ENDBRANCH   1  18
TORSDOF 8
ENDMDL
MODEL 9
REMARK VINA RESULT:    -5.945      3.733      7.922
REMARK INTER + INTRA:          -8.984
REMARK INTER:                  -8.076
REMARK INTRA:                  -0.908
REMARK UNBOUND:                -0.432
REMARK  Name = 
REMARK  8 active torsions:
REMARK  status: ('A' for Active; 'I' for Inactive)
REMARK    1  A    between atoms: N_1  and  C_2
REMARK    2  A    between atoms: C_2  and  C_3
REMARK    3  A    between atoms: C_3  and  C_4
REMARK    4  A    between atoms: C_4  and  C_5
REMARK    5  A    between atoms: C_5  and  C_6
REMARK    6  A    between atoms: C_9  and  C_10
REMARK    7  A    between atoms: C_10  and  N_11
REMARK    8  A    between atoms: C_16  and  C_17
REMARK                            x       y       z     vdW  Elec       q    Type
REMARK                         _______ _______ _______ _____ _____    ______ ____
ROOT
ATOM      1  C   UNL     1      47.501   6.529  12.749  0.00  0.00    +0.000 C 
ENDROOT
BRANCH   1   2
ATOM      2  N   UNL     1      46.185   7.132  12.865  0.00  0.00    +0.000 N 
ATOM      3  C   UNL     1      45.147   6.505  12.208  0.00  0.00    +0.000 A 
ATOM      4  N   UNL     1      44.184   7.298  11.726  0.00  0.00    +0.000 NA
ATOM      5  C   UNL     1      43.132   6.709  11.124  0.00  0.00    +0.000 A 
ATOM      6  C   UNL     1      43.003   5.353  10.988  0.00  0.00    +0.000 A 
ATOM      7  C   UNL     1      44.047   4.630  11.509  0.00  0.00    +0.000 A 
ATOM      8  N   UNL     1      45.135   5.174  12.108  0.00  0.00    +0.000 NA
ATOM      9  H   UNL     1      46.153   8.121  12.642  0.00  0.00    +0.000 HD
BRANCH   7  10
ATOM     10  C   UNL     1      44.021   3.137  11.443  0.00  0.00    +0.000 C 
ATOM     11  N   UNL     1      44.298   2.493  12.619  0.00  0.00    +0.000 N 
ATOM     12  O   UNL     1      43.762   2.527  10.414  0.00  0.00    +0.000 OA
ATOM     13  H   UNL     1      44.428   3.033  13.467  0.00  0.00    +0.000 HD
ATOM     14  H   UNL     1      44.226   1.486  12.663  0.00  0.00    +0.000 HD
ENDBRANCH   7  10
ENDBRANCH   1   2
BRANCH   1  18
ATOM     15  C   UNL     1      49.180   5.586  16.497  0.00  0.00    +0.000 A 
ATOM     16  C   UNL     1      49.641   6.659  15.743  0.00  0.00    +0.000 A 
ATOM     17  N   UNL     1      49.123   6.991  14.538  0.00  0.00    +0.000 NA
ATOM     18  C   UNL     1      48.097   6.214  14.099  0.00  0.00    +0.000 A 
ATOM     19  C   UNL     1      47.637   5.139  14.852  0.00  0.00    +0.000 A 
ATOM     20  N   UNL     1      48.157   4.811  16.060  0.00  0.00    +0.000 NA
BRANCH  15  21
ATOM     21  C   UNL     1      49.779   5.270  17.839  0.00  0.00    +0.000 C 
BRANCH  21  22
ATOM     22  C   UNL     1      49.715   3.771  18.137  0.00  0.00    +0.000 C 
BRANCH  22  23
ATOM     23  C   UNL     1      51.020   3.067  17.753  0.00  0.00    +0.000 C 
BRANCH  23  24
ATOM     24  C   UNL     1      50.739   1.781  16.978  0.00  0.00    +0.000 C 
BRANCH  24  25
ATOM     25  N   UNL     1      49.502   1.906  16.218  0.00  0.00    +0.000 NA
ATOM     26  H   UNL     1      49.283   1.011  15.781  0.00  0.00    +0.000 HD
ATOM     27  H   UNL     1      49.629   2.571  15.456  0.00  0.00    +0.000 HD
ENDBRANCH  24  25
ENDBRANCH  23  24
ENDBRANCH  22  23
ENDBRANCH  21  22
ENDBRANCH  15  21
ENDBRANCH   1  18
TORSDOF 8
ENDMDL
