MODEL 1
REMARK VINA RESULT:    -7.789      0.000      0.000
REMARK INTER + INTRA:         -10.214
REMARK INTER:                  -9.611
REMARK INTRA:                  -0.603
REMARK UNBOUND:                -0.603
REMARK  Name = 
REMARK  5 active torsions:
REMARK  status: ('A' for Active; 'I' for Inactive)
REMARK    1  A    between atoms: C_1  and  C_2
REMARK    2  A    between atoms: C_2  and  C_3
REMARK    3  A    between atoms: C_2  and  C_14
REMARK    4  A    between atoms: C_3  and  N_4
REMARK    5  A    between atoms: C_8  and  C_9
REMARK                            x       y       z     vdW  Elec       q    Type
REMARK                         _______ _______ _______ _____ _____    ______ ____
ROOT
ATOM      1  N   UNL     1      43.874   3.235  10.407  0.00  0.00    +0.000 N 
ATOM      2  C   UNL     1      44.803   3.043   9.374  0.00  0.00    +0.000 A 
ATOM      3  C   UNL     1      45.237   1.745   9.061  0.00  0.00    +0.000 A 
ATOM      4  N   UNL     1      46.114   1.449   8.064  0.00  0.00    +0.000 NA
ATOM      5  C   UNL     1      46.569   2.536   7.384  0.00  0.00    +0.000 A 
ATOM      6  C   UNL     1      46.175   3.827   7.695  0.00  0.00    +0.000 A 
ATOM      7  N   UNL     1      45.296   4.099   8.692  0.00  0.00    +0.000 NA
ATOM      8  H   UNL     1      43.055   2.657  10.231  0.00  0.00    +0.000 HD
ENDROOT
BRANCH   5   9
ATOM      9  C   UNL     1      47.510   2.312   6.253  0.00  0.00    +0.000 C 
ATOM     10  N   UNL     1      47.392   3.174   5.195  0.00  0.00    +0.000 N 
ATOM     11  O   UNL     1      48.344   1.419   6.265  0.00  0.00    +0.000 OA
ATOM     12  H   UNL     1      46.698   3.912   5.215  0.00  0.00    +0.000 HD
ATOM     13  H   UNL     1      48.017   3.079   4.408  0.00  0.00    +0.000 HD
ENDBRANCH   5   9
BRANCH   1  14
ATOM     14  C   UNL     1      43.490   4.630  10.607  0.00  0.00    +0.000 C 
BRANCH  14  16
ATOM     15  C   UNL     1      42.851   5.151  13.043  0.00  0.00    +0.000 C 
ATOM     16  C   UNL     1      43.911   5.001  11.998  0.00  0.00    +0.000 C 
BRANCH  16  17
ATOM     17  C   UNL     1      45.264   5.528  12.246  0.00  0.00    +0.000 A 
ATOM     18  C   UNL     1      45.876   6.416  11.354  0.00  0.00    +0.000 A 
ATOM     19  C   UNL     1      47.163   6.906  11.608  0.00  0.00    +0.000 A 
ATOM     20  C   UNL     1      47.840   6.513  12.761  0.00  0.00    +0.000 A 
ATOM     21 CL   UNL     1      49.418   7.117  13.079  0.00  0.00    +0.000 Cl
ATOM     22  C   UNL     1      47.242   5.634  13.658  0.00  0.00    +0.000 A 
ATOM     23  C   UNL     1      45.965   5.140  13.397  0.00  0.00    +0.000 A 
ENDBRANCH  16  17
ENDBRANCH  14  16
ENDBRANCH   1  14
TORSDOF 4
ENDMDL
MODEL 2
REMARK VINA RESULT:    -7.149      3.929      6.202
REMARK INTER + INTRA:          -9.424
REMARK INTER:                  -8.839
REMARK INTRA:                  -0.585
REMARK UNBOUND:                -0.603
REMARK  Name = 
REMARK  5 active torsions:
REMARK  status: ('A' for Active; 'I' for Inactive)
REMARK    1  A    between atoms: C_1  and  C_2
REMARK    2  A    between atoms: C_2  and  C_3
REMARK    3  A    between atoms: C_2  and  C_14
REMARK    4  A    between atoms: C_3  and  N_4
REMARK    5  A    between atoms: C_8  and  C_9
REMARK                            x       y       z     vdW  Elec       q    Type
REMARK                         _______ _______ _______ _____ _____    ______ ____
ROOT
ATOM      1  N   UNL     1      44.962   4.777  12.603  0.00  0.00    +0.000 N 
ATOM      2  C   UNL     1      46.146   5.527  12.666  0.00  0.00    +0.000 A 
ATOM      3  C   UNL     1      46.991   5.403  13.781  0.00  0.00    +0.000 A 
ATOM      4  N   UNL     1      48.170   6.065  13.928  0.00  0.00    +0.000 NA
ATOM      5  C   UNL     1      48.472   6.896  12.894  0.00  0.00    +0.000 A 
ATOM      6  C   UNL     1      47.639   7.055  11.799  0.00  0.00    +0.000 A 
ATOM      7  N   UNL     1      46.468   6.381  11.672  0.00  0.00    +0.000 NA
ATOM      8  H   UNL     1      45.185   3.792  12.728  0.00  0.00    +0.000 HD
ENDROOT
BRANCH   5   9
ATOM      9  C   UNL     1      49.759   7.642  12.948  0.00  0.00    +0.000 C 
ATOM     10  N   UNL     1      50.513   7.456  14.076  0.00  0.00    +0.000 N 
ATOM     11  O   UNL     1      50.128   8.372  12.040  0.00  0.00    +0.000 OA
ATOM     12  H   UNL     1      50.188   6.837  14.809  0.00  0.00    +0.000 HD
ATOM     13  H   UNL     1      51.403   7.924  14.158  0.00  0.00    +0.000 HD
ENDBRANCH   5   9
BRANCH   1  14
ATOM     14  C   UNL     1      44.195   4.983  11.379  0.00  0.00    +0.000 C 
BRANCH  14  16
ATOM     15  C   UNL     1      43.363   2.550  11.431  0.00  0.00    +0.000 C 
ATOM     16  C   UNL     1      44.081   3.646  10.707  0.00  0.00    +0.000 C 
BRANCH  16  17
ATOM     17  C   UNL     1      44.927   3.326   9.546  0.00  0.00    +0.000 A 
ATOM     18  C   UNL     1      45.234   2.002   9.209  0.00  0.00    +0.000 A 
ATOM     19  C   UNL     1      46.041   1.718   8.100  0.00  0.00    +0.000 A 
ATOM     20  C   UNL     1      46.537   2.759   7.319  0.00  0.00    +0.000 A 
ATOM     21 CL   UNL     1      47.523   2.414   5.954  0.00  0.00    +0.000 Cl
ATOM     22  C   UNL     1      46.238   4.079   7.640  0.00  0.00    +0.000 A 
ATOM     23  C   UNL     1      45.443   4.359   8.751  0.00  0.00    +0.000 A 
ENDBRANCH  16  17
ENDBRANCH  14  16
ENDBRANCH   1  14
TORSDOF 4
ENDMDL
MODEL 3
REMARK VINA RESULT:    -6.809      4.882      7.393
REMARK INTER + INTRA:          -9.004
REMARK INTER:                  -8.635
REMARK INTRA:                  -0.369
REMARK UNBOUND:                -0.603
REMARK  Name = 
REMARK  5 active torsions:
REMARK  status: ('A' for Active; 'I' for Inactive)
REMARK    1  A    between atoms: C_1  and  C_2
REMARK    2  A    between atoms: C_2  and  C_3
REMARK    3  A    between atoms: C_2  and  C_14
REMARK    4  A    between atoms: C_3  and  N_4
REMARK    5  A    between atoms: C_8  and  C_9
REMARK                            x       y       z     vdW  Elec       q    Type
REMARK                         _______ _______ _______ _____ _____    ______ ____
ROOT
ATOM      1  N   UNL     1      46.140   5.061  12.716  0.00  0.00    +0.000 N 
ATOM      2  C   UNL     1      46.840   5.011  13.931  0.00  0.00    +0.000 A 
ATOM      3  C   UNL     1      47.801   5.991  14.221  0.00  0.00    +0.000 A 
ATOM      4  N   UNL     1      48.515   6.046  15.377  0.00  0.00    +0.000 NA
ATOM      5  C   UNL     1      48.236   5.042  16.251  0.00  0.00    +0.000 A 
ATOM      6  C   UNL     1      47.312   4.049  15.972  0.00  0.00    +0.000 A 
ATOM      7  N   UNL     1      46.608   4.015  14.812  0.00  0.00    +0.000 NA
ATOM      8  H   UNL     1      45.704   5.976  12.620  0.00  0.00    +0.000 HD
ENDROOT
BRANCH   5   9
ATOM      9  C   UNL     1      48.944   5.033  17.560  0.00  0.00    +0.000 C 
ATOM     10  N   UNL     1      49.750   3.952  17.798  0.00  0.00    +0.000 N 
ATOM     11  O   UNL     1      48.823   5.937  18.374  0.00  0.00    +0.000 OA
ATOM     12  H   UNL     1      49.841   3.221  17.102  0.00  0.00    +0.000 HD
ATOM     13  H   UNL     1      50.269   3.903  18.663  0.00  0.00    +0.000 HD
ENDBRANCH   5   9
BRANCH   1  14
ATOM     14  C   UNL     1      45.152   3.998  12.556  0.00  0.00    +0.000 C 
BRANCH  14  16
ATOM     15  C   UNL     1      43.009   4.682  11.308  0.00  0.00    +0.000 C 
ATOM     16  C   UNL     1      44.443   4.255  11.259  0.00  0.00    +0.000 C 
BRANCH  16  17
ATOM     17  C   UNL     1      45.023   3.782   9.991  0.00  0.00    +0.000 A 
ATOM     18  C   UNL     1      45.065   2.419   9.672  0.00  0.00    +0.000 A 
ATOM     19  C   UNL     1      45.621   1.989   8.460  0.00  0.00    +0.000 A 
ATOM     20  C   UNL     1      46.130   2.923   7.560  0.00  0.00    +0.000 A 
ATOM     21 CL   UNL     1      46.808   2.399   6.070  0.00  0.00    +0.000 Cl
ATOM     22  C   UNL     1      46.091   4.280   7.862  0.00  0.00    +0.000 A 
ATOM     23  C   UNL     1      45.546   4.704   9.074  0.00  0.00    +0.000 A 
ENDBRANCH  16  17
ENDBRANCH  14  16
ENDBRANCH   1  14
TORSDOF 4
ENDMDL
MODEL 4
REMARK VINA RESULT:    -6.591      4.014      6.550
REMARK INTER + INTRA:          -8.736
REMARK INTER:                  -9.030
REMARK INTRA:                   0.294
REMARK UNBOUND:                -0.603
REMARK  Name = 
REMARK  5 active torsions:
REMARK  status: ('A' for Active; 'I' for Inactive)
REMARK    1  A    between atoms: C_1  and  C_2
REMARK    2  A    between atoms: C_2  and  C_3
REMARK    3  A    between atoms: C_2  and  C_14
REMARK    4  A    between atoms: C_3  and  N_4
REMARK    5  A    between atoms: C_8  and  C_9
REMARK                            x       y       z     vdW  Elec       q    Type
REMARK                         _______ _______ _______ _____ _____    ______ ____
ROOT
ATOM      1  N   UNL     1      45.519   5.666  11.102  0.00  0.00    +0.000 N 
ATOM      2  C   UNL     1      46.053   5.340  12.357  0.00  0.00    +0.000 A 
ATOM      3  C   UNL     1      47.382   5.675  12.657  0.00  0.00    +0.000 A 
ATOM      4  N   UNL     1      47.986   5.426  13.850  0.00  0.00    +0.000 NA
ATOM      5  C   UNL     1      47.191   4.790  14.753  0.00  0.00    +0.000 A 
ATOM      6  C   UNL     1      45.887   4.424  14.467  0.00  0.00    +0.000 A 
ATOM      7  N   UNL     1      45.302   4.686  13.270  0.00  0.00    +0.000 NA
ATOM      8  H   UNL     1      45.643   6.663  10.936  0.00  0.00    +0.000 HD
ENDROOT
BRANCH   5   9
ATOM      9  C   UNL     1      47.752   4.501  16.100  0.00  0.00    +0.000 C 
ATOM     10  N   UNL     1      46.988   3.702  16.909  0.00  0.00    +0.000 N 
ATOM     11  O   UNL     1      48.833   4.941  16.466  0.00  0.00    +0.000 OA
ATOM     12  H   UNL     1      46.100   3.343  16.577  0.00  0.00    +0.000 HD
ATOM     13  H   UNL     1      47.328   3.459  17.828  0.00  0.00    +0.000 HD
ENDBRANCH   5   9
BRANCH   1  14
ATOM     14  C   UNL     1      44.120   5.284  10.934  0.00  0.00    +0.000 C 
BRANCH  14  16
ATOM     15  C   UNL     1      43.455   2.824  11.286  0.00  0.00    +0.000 C 
ATOM     16  C   UNL     1      44.114   3.867  10.439  0.00  0.00    +0.000 C 
BRANCH  16  17
ATOM     17  C   UNL     1      45.009   3.462   9.342  0.00  0.00    +0.000 A 
ATOM     18  C   UNL     1      45.558   4.404   8.463  0.00  0.00    +0.000 A 
ATOM     19  C   UNL     1      46.408   3.999   7.426  0.00  0.00    +0.000 A 
ATOM     20  C   UNL     1      46.716   2.649   7.268  0.00  0.00    +0.000 A 
ATOM     21 CL   UNL     1      47.762   2.149   6.000  0.00  0.00    +0.000 Cl
ATOM     22  C   UNL     1      46.180   1.703   8.136  0.00  0.00    +0.000 A 
ATOM     23  C   UNL     1      45.326   2.109   9.162  0.00  0.00    +0.000 A 
ENDBRANCH  16  17
ENDBRANCH  14  16
ENDBRANCH   1  14
TORSDOF 4
ENDMDL
MODEL 5
REMARK VINA RESULT:    -6.333      4.751      6.485
REMARK INTER + INTRA:          -8.417
REMARK INTER:                  -8.063
REMARK INTRA:                  -0.354
REMARK UNBOUND:                -0.603
REMARK  Name = 
REMARK  5 active torsions:
REMARK  status: ('A' for Active; 'I' for Inactive)
REMARK    1  A    between atoms: C_1  and  C_2
REMARK    2  A    between atoms: C_2  and  C_3
REMARK    3  A    between atoms: C_2  and  C_14
REMARK    4  A    between atoms: C_3  and  N_4
REMARK    5  A    between atoms: C_8  and  C_9
REMARK                            x       y       z     vdW  Elec       q    Type
REMARK                         _______ _______ _______ _____ _____    ______ ____
ROOT
ATOM      1  N   UNL     1      47.147   4.963  15.226  0.00  0.00    +0.000 N 
ATOM      2  C   UNL     1      46.468   4.832  14.006  0.00  0.00    +0.000 A 
ATOM      3  C   UNL     1      46.238   5.966  13.211  0.00  0.00    +0.000 A 
ATOM      4  N   UNL     1      45.613   5.943  12.003  0.00  0.00    +0.000 NA
ATOM      5  C   UNL     1      45.196   4.707  11.618  0.00  0.00    +0.000 A 
ATOM      6  C   UNL     1      45.386   3.580  12.400  0.00  0.00    +0.000 A 
ATOM      7  N   UNL     1      46.016   3.625  13.601  0.00  0.00    +0.000 NA
ATOM      8  H   UNL     1      48.038   5.426  15.063  0.00  0.00    +0.000 HD
ENDROOT
BRANCH   5   9
ATOM      9  C   UNL     1      44.528   4.573  10.295  0.00  0.00    +0.000 C 
ATOM     10  N   UNL     1      45.221   5.065   9.221  0.00  0.00    +0.000 N 
ATOM     11  O   UNL     1      43.430   4.051  10.168  0.00  0.00    +0.000 OA
ATOM     12  H   UNL     1      46.134   5.484   9.353  0.00  0.00    +0.000 HD
ATOM     13  H   UNL     1      44.823   4.985   8.297  0.00  0.00    +0.000 HD
ENDBRANCH   5   9
BRANCH   1  14
ATOM     14  C   UNL     1      47.339   3.702  15.936  0.00  0.00    +0.000 C 
BRANCH  14  16
ATOM     15  C   UNL     1      47.600   5.119  18.067  0.00  0.00    +0.000 C 
ATOM     16  C   UNL     1      48.107   4.020  17.186  0.00  0.00    +0.000 C 
BRANCH  16  17
ATOM     17  C   UNL     1      49.477   3.511  17.364  0.00  0.00    +0.000 A 
ATOM     18  C   UNL     1      50.516   4.346  17.793  0.00  0.00    +0.000 A 
ATOM     19  C   UNL     1      51.812   3.843  17.957  0.00  0.00    +0.000 A 
ATOM     20  C   UNL     1      52.072   2.499  17.697  0.00  0.00    +0.000 A 
ATOM     21 CL   UNL     1      53.661   1.876  17.902  0.00  0.00    +0.000 Cl
ATOM     22  C   UNL     1      51.049   1.657  17.273  0.00  0.00    +0.000 A 
ATOM     23  C   UNL     1      49.761   2.164  17.102  0.00  0.00    +0.000 A 
ENDBRANCH  16  17
ENDBRANCH  14  16
ENDBRANCH   1  14
TORSDOF 4
ENDMDL
MODEL 6
REMARK VINA RESULT:    -5.624      4.510      6.399
REMARK INTER + INTRA:          -7.543
REMARK INTER:                  -7.155
REMARK INTRA:                  -0.388
REMARK UNBOUND:                -0.603
REMARK  Name = 
REMARK  5 active torsions:
REMARK  status: ('A' for Active; 'I' for Inactive)
REMARK    1  A    between atoms: C_1  and  C_2
REMARK    2  A    between atoms: C_2  and  C_3
REMARK    3  A    between atoms: C_2  and  C_14
REMARK    4  A    between atoms: C_3  and  N_4
REMARK    5  A    between atoms: C_8  and  C_9
REMARK                            x       y       z     vdW  Elec       q    Type
REMARK                         _______ _______ _______ _____ _____    ______ ____
ROOT
ATOM      1  N   UNL     1      47.360   5.172  15.189  0.00  0.00    +0.000 N 
ATOM      2  C   UNL     1      46.694   5.045  13.960  0.00  0.00    +0.000 A 
ATOM      3  C   UNL     1      46.765   6.084  13.019  0.00  0.00    +0.000 A 
ATOM      4  N   UNL     1      46.178   6.051  11.793  0.00  0.00    +0.000 NA
ATOM      5  C   UNL     1      45.479   4.911  11.544  0.00  0.00    +0.000 A 
ATOM      6  C   UNL     1      45.372   3.886  12.469  0.00  0.00    +0.000 A 
ATOM      7  N   UNL     1      45.970   3.939  13.686  0.00  0.00    +0.000 NA
ATOM      8  H   UNL     1      48.341   5.381  15.016  0.00  0.00    +0.000 HD
ENDROOT
BRANCH   5   9
ATOM      9  C   UNL     1      44.826   4.766  10.214  0.00  0.00    +0.000 C 
ATOM     10  N   UNL     1      43.494   5.084  10.163  0.00  0.00    +0.000 N 
ATOM     11  O   UNL     1      45.437   4.392   9.224  0.00  0.00    +0.000 OA
ATOM     12  H   UNL     1      43.014   5.400  10.997  0.00  0.00    +0.000 HD
ATOM     13  H   UNL     1      43.004   5.020   9.283  0.00  0.00    +0.000 HD
ENDBRANCH   5   9
BRANCH   1  14
ATOM     14  C   UNL     1      47.224   4.008  16.059  0.00  0.00    +0.000 C 
BRANCH  14  16
ATOM     15  C   UNL     1      49.155   2.845  17.298  0.00  0.00    +0.000 C 
ATOM     16  C   UNL     1      48.343   4.079  17.057  0.00  0.00    +0.000 C 
BRANCH  16  17
ATOM     17  C   UNL     1      48.422   5.205  18.002  0.00  0.00    +0.000 A 
ATOM     18  C   UNL     1      47.347   5.534  18.837  0.00  0.00    +0.000 A 
ATOM     19  C   UNL     1      47.443   6.609  19.729  0.00  0.00    +0.000 A 
ATOM     20  C   UNL     1      48.617   7.355  19.795  0.00  0.00    +0.000 A 
ATOM     21 CL   UNL     1      48.740   8.671  20.893  0.00  0.00    +0.000 Cl
ATOM     22  C   UNL     1      49.695   7.037  18.973  0.00  0.00    +0.000 A 
ATOM     23  C   UNL     1      49.593   5.972  18.078  0.00  0.00    +0.000 A 
ENDBRANCH  16  17
ENDBRANCH  14  16
ENDBRANCH   1  14
TORSDOF 4
ENDMDL
MODEL 7
REMARK VINA RESULT:    -5.535      5.946      8.551
REMARK INTER + INTRA:          -7.433
REMARK INTER:                  -6.908
REMARK INTRA:                  -0.525
REMARK UNBOUND:                -0.603
REMARK  Name = 
REMARK  5 active torsions:
REMARK  status: ('A' for Active; 'I' for Inactive)
REMARK    1  A    between atoms: C_1  and  C_2
REMARK    2  A    between atoms: C_2  and  C_3
REMARK    3  A    between atoms: C_2  and  C_14
REMARK    4  A    between atoms: C_3  and  N_4
REMARK    5  A    between atoms: C_8  and  C_9
REMARK                            x       y       z     vdW  Elec       q    Type
REMARK                         _______ _______ _______ _____ _____    ______ ____
ROOT
ATOM      1  N   UNL     1      48.664   7.589  14.855  0.00  0.00    +0.000 N 
ATOM      2  C   UNL     1      48.700   6.756  15.983  0.00  0.00    +0.000 A 
ATOM      3  C   UNL     1      48.762   7.322  17.266  0.00  0.00    +0.000 A 
ATOM      4  N   UNL     1      48.776   6.605  18.421  0.00  0.00    +0.000 NA
ATOM      5  C   UNL     1      48.744   5.257  18.238  0.00  0.00    +0.000 A 
ATOM      6  C   UNL     1      48.712   4.677  16.981  0.00  0.00    +0.000 A 
ATOM      7  N   UNL     1      48.695   5.413  15.840  0.00  0.00    +0.000 NA
ATOM      8  H   UNL     1      47.895   8.248  14.952  0.00  0.00    +0.000 HD
ENDROOT
BRANCH   5   9
ATOM      9  C   UNL     1      48.725   4.386  19.445  0.00  0.00    +0.000 C 
ATOM     10  N   UNL     1      48.344   3.087  19.240  0.00  0.00    +0.000 N 
ATOM     11  O   UNL     1      49.036   4.799  20.553  0.00  0.00    +0.000 OA
ATOM     12  H   UNL     1      48.100   2.768  18.310  0.00  0.00    +0.000 HD
ATOM     13  H   UNL     1      48.329   2.447  20.021  0.00  0.00    +0.000 HD
ENDBRANCH   5   9
BRANCH   1  14
ATOM     14  C   UNL     1      48.573   6.869  13.588  0.00  0.00    +0.000 C 
BRANCH  14  16
ATOM     15  C   UNL     1      46.566   8.463  13.369  0.00  0.00    +0.000 C 
ATOM     16  C   UNL     1      47.214   7.160  13.021  0.00  0.00    +0.000 C 
BRANCH  16  17
ATOM     17  C   UNL     1      46.411   6.076  12.430  0.00  0.00    +0.000 A 
ATOM     18  C   UNL     1      46.038   4.953  13.178  0.00  0.00    +0.000 A 
ATOM     19  C   UNL     1      45.274   3.933  12.598  0.00  0.00    +0.000 A 
ATOM     20  C   UNL     1      44.874   4.037  11.267  0.00  0.00    +0.000 A 
ATOM     21 CL   UNL     1      43.931   2.790  10.553  0.00  0.00    +0.000 Cl
ATOM     22  C   UNL     1      45.234   5.149  10.513  0.00  0.00    +0.000 A 
ATOM     23  C   UNL     1      46.004   6.158  11.091  0.00  0.00    +0.000 A 
ENDBRANCH  16  17
ENDBRANCH  14  16
ENDBRANCH   1  14
TORSDOF 4
ENDMDL
MODEL 8
REMARK VINA RESULT:    -5.469      2.923      4.347
REMARK INTER + INTRA:          -7.351
REMARK INTER:                  -6.826
REMARK INTRA:                  -0.525
REMARK UNBOUND:                -0.603
REMARK  Name = 
REMARK  5 active torsions:
REMARK  status: ('A' for Active; 'I' for Inactive)
REMARK    1  A    between atoms: C_1  and  C_2
REMARK    2  A    between atoms: C_2  and  C_3
REMARK    3  A    between atoms: C_2  and  C_14
REMARK    4  A    between atoms: C_3  and  N_4
REMARK    5  A    between atoms: C_8  and  C_9
REMARK                            x       y       z     vdW  Elec       q    Type
REMARK                         _______ _______ _______ _____ _____    ______ ____
ROOT
ATOM      1  N   UNL     1      44.601   7.356  12.678  0.00  0.00    +0.000 N 
ATOM      2  C   UNL     1      44.587   6.255  11.808  0.00  0.00    +0.000 A 
ATOM      3  C   UNL     1      43.392   5.883  11.174  0.00  0.00    +0.000 A 
ATOM      4  N   UNL     1      43.277   4.850  10.297  0.00  0.00    +0.000 NA
ATOM      5  C   UNL     1      44.436   4.170  10.086  0.00  0.00    +0.000 A 
ATOM      6  C   UNL     1      45.620   4.502  10.723  0.00  0.00    +0.000 A 
ATOM      7  N   UNL     1      45.713   5.540  11.593  0.00  0.00    +0.000 NA
ATOM      8  H   UNL     1      44.230   8.169  12.191  0.00  0.00    +0.000 HD
ENDROOT
BRANCH   5   9
ATOM      9  C   UNL     1      44.420   3.040   9.118  0.00  0.00    +0.000 C 
ATOM     10  N   UNL     1      44.404   3.387   7.793  0.00  0.00    +0.000 N 
ATOM     11  O   UNL     1      44.427   1.872   9.477  0.00  0.00    +0.000 OA
ATOM     12  H   UNL     1      44.408   4.363   7.522  0.00  0.00    +0.000 HD
ATOM     13  H   UNL     1      44.410   2.661   7.092  0.00  0.00    +0.000 HD
ENDBRANCH   5   9
BRANCH   1  14
ATOM     14  C   UNL     1      45.914   7.646  13.245  0.00  0.00    +0.000 C 
BRANCH  14  16
ATOM     15  C   UNL     1      45.429   9.859  12.026  0.00  0.00    +0.000 C 
ATOM     16  C   UNL     1      46.427   8.873  12.548  0.00  0.00    +0.000 C 
BRANCH  16  17
ATOM     17  C   UNL     1      47.827   8.938  12.098  0.00  0.00    +0.000 A 
ATOM     18  C   UNL     1      48.438  10.160  11.791  0.00  0.00    +0.000 A 
ATOM     19  C   UNL     1      49.771  10.201  11.364  0.00  0.00    +0.000 A 
ATOM     20  C   UNL     1      50.500   9.019  11.249  0.00  0.00    +0.000 A 
ATOM     21 CL   UNL     1      52.138   9.066  10.731  0.00  0.00    +0.000 Cl
ATOM     22  C   UNL     1      49.906   7.799  11.554  0.00  0.00    +0.000 A 
ATOM     23  C   UNL     1      48.575   7.760  11.969  0.00  0.00    +0.000 A 
ENDBRANCH  16  17
ENDBRANCH  14  16
ENDBRANCH   1  14
TORSDOF 4
ENDMDL
MODEL 9
REMARK VINA RESULT:    -5.445      3.652      5.521
REMARK INTER + INTRA:          -7.321
REMARK INTER:                  -6.893
REMARK INTRA:                  -0.428
REMARK UNBOUND:                -0.603
REMARK  Name = 
REMARK  5 active torsions:
REMARK  status: ('A' for Active; 'I' for Inactive)
REMARK    1  A    between atoms: C_1  and  C_2
REMARK    2  A    between atoms: C_2  and  C_3
REMARK    3  A    between atoms: C_2  and  C_14
REMARK    4  A    between atoms: C_3  and  N_4
REMARK    5  A    between atoms: C_8  and  C_9
REMARK                            x       y       z     vdW  Elec       q    Type
REMARK                         _______ _______ _______ _____ _____    ______ ____
ROOT
ATOM      1  N   UNL     1      47.426   6.328  14.077  0.00  0.00    +0.000 N 
ATOM      2  C   UNL     1      46.624   5.506  13.271  0.00  0.00    +0.000 A 
ATOM      3  C   UNL     1      46.454   4.154  13.607  0.00  0.00    +0.000 A 
ATOM      4  N   UNL     1      45.680   3.281  12.908  0.00  0.00    +0.000 NA
ATOM      5  C   UNL     1      45.080   3.824  11.814  0.00  0.00    +0.000 A 
ATOM      6  C   UNL     1      45.258   5.147  11.449  0.00  0.00    +0.000 A 
ATOM      7  N   UNL     1      46.033   6.003  12.164  0.00  0.00    +0.000 NA
ATOM      8  H   UNL     1      47.096   6.276  15.038  0.00  0.00    +0.000 HD
ENDROOT
BRANCH   5   9
ATOM      9  C   UNL     1      44.187   2.955  11.001  0.00  0.00    +0.000 C 
ATOM     10  N   UNL     1      44.771   2.329   9.932  0.00  0.00    +0.000 N 
ATOM     11  O   UNL     1      43.004   2.800  11.270  0.00  0.00    +0.000 OA
ATOM     12  H   UNL     1      45.756   2.467   9.737  0.00  0.00    +0.000 HD
ATOM     13  H   UNL     1      44.216   1.714   9.355  0.00  0.00    +0.000 HD
ENDBRANCH   5   9
BRANCH   1  14
ATOM     14  C   UNL     1      47.494   7.715  13.627  0.00  0.00    +0.000 C 
BRANCH  14  16
ATOM     15  C   UNL     1      48.905   9.096  15.276  0.00  0.00    +0.000 C 
ATOM     16  C   UNL     1      48.834   8.243  14.048  0.00  0.00    +0.000 C 
BRANCH  16  17
ATOM     17  C   UNL     1      49.971   8.209  13.112  0.00  0.00    +0.000 A 
ATOM     18  C   UNL     1      49.824   7.734  11.803  0.00  0.00    +0.000 A 
ATOM     19  C   UNL     1      50.918   7.710  10.929  0.00  0.00    +0.000 A 
ATOM     20  C   UNL     1      52.161   8.170  11.359  0.00  0.00    +0.000 A 
ATOM     21 CL   UNL     1      53.503   8.148  10.286  0.00  0.00    +0.000 Cl
ATOM     22  C   UNL     1      52.320   8.649  12.655  0.00  0.00    +0.000 A 
ATOM     23  C   UNL     1      51.231   8.661  13.527  0.00  0.00    +0.000 A 
ENDBRANCH  16  17
ENDBRANCH  14  16
ENDBRANCH   1  14
TORSDOF 4
ENDMDL
