MODEL 1
REMARK VINA RESULT:    -5.762      0.000      0.000
REMARK INTER + INTRA:          -7.062
REMARK INTER:                  -6.773
REMARK INTRA:                  -0.290
REMARK UNBOUND:                -0.290
REMARK  Name = 
REMARK  4 active torsions:
REMARK  status: ('A' for Active; 'I' for Inactive)
REMARK    1  A    between atoms: C_1  and  C_2
REMARK    2  A    between atoms: C_4  and  C_5
REMARK    3  A    between atoms: C_6  and  C_7
REMARK    4  A    between atoms: C_15  and  C_16
REMARK                            x       y       z     vdW  Elec       q    Type
REMARK                         _______ _______ _______ _____ _____    ______ ____
ROOT
ATOM      1  C   UNL     1      43.998   2.952  12.478  0.00  0.00    +0.000 C 
ATOM      2  C   UNL     1      44.983   4.084  12.431  0.00  0.00    +0.000 A 
ATOM      3  N   UNL     1      45.793   4.185  13.528  0.00  0.00    +0.000 NA
ATOM      4  C   UNL     1      46.697   5.189  13.583  0.00  0.00    +0.000 A 
ATOM      5  C   UNL     1      46.850   6.097  12.543  0.00  0.00    +0.000 A 
ATOM      6  C   UNL     1      46.018   5.996  11.428  0.00  0.00    +0.000 A 
ATOM      7  C   UNL     1      45.052   4.985  11.361  0.00  0.00    +0.000 A 
ENDROOT
BRANCH   7   8
ATOM      8  C   UNL     1      44.162   4.867  10.172  0.00  0.00    +0.000 C 
ATOM      9  N   UNL     1      44.728   4.443   8.998  0.00  0.00    +0.000 N 
ATOM     10  O   UNL     1      42.971   5.141  10.206  0.00  0.00    +0.000 OA
ATOM     11  H   UNL     1      45.718   4.335   8.848  0.00  0.00    +0.000 HD
ATOM     12  H   UNL     1      44.121   4.430   8.185  0.00  0.00    +0.000 HD
ENDBRANCH   7   8
BRANCH   4  13
ATOM     13  C   UNL     1      47.525   5.202  14.796  0.00  0.00    +0.000 C 
ATOM     14  C   UNL     1      47.346   4.391  15.853  0.00  0.00    +0.000 C 
BRANCH  14  15
ATOM     15  C   UNL     1      48.148   4.376  17.082  0.00  0.00    +0.000 A 
ATOM     16  C   UNL     1      47.676   4.809  18.316  0.00  0.00    +0.000 A 
ATOM     17  C   UNL     1      48.542   4.796  19.411  0.00  0.00    +0.000 A 
ATOM     18  C   UNL     1      49.849   4.358  19.241  0.00  0.00    +0.000 A 
ATOM     19  C   UNL     1      50.241   3.958  17.977  0.00  0.00    +0.000 A 
ATOM     20  N   UNL     1      49.426   3.966  16.898  0.00  0.00    +0.000 NA
ENDBRANCH  14  15
ENDBRANCH   4  13
TORSDOF 3
ENDMDL
MODEL 2
REMARK VINA RESULT:    -5.536      3.179      7.837
REMARK INTER + INTRA:          -6.797
REMARK INTER:                  -6.467
REMARK INTRA:                  -0.330
REMARK UNBOUND:                -0.290
REMARK  Name = 
REMARK  4 active torsions:
REMARK  status: ('A' for Active; 'I' for Inactive)
REMARK    1  A    between atoms: C_1  and  C_2
REMARK    2  A    between atoms: C_4  and  C_5
REMARK    3  A    between atoms: C_6  and  C_7
REMARK    4  A    between atoms: C_15  and  C_16
REMARK                            x       y       z     vdW  Elec       q    Type
REMARK                         _______ _______ _______ _____ _____    ______ ____
ROOT
ATOM      1  C   UNL     1      50.046   6.645  16.942  0.00  0.00    +0.000 C 
ATOM      2  C   UNL     1      49.150   5.442  17.027  0.00  0.00    +0.000 A 
ATOM      3  N   UNL     1      48.447   5.169  15.886  0.00  0.00    +0.000 NA
ATOM      4  C   UNL     1      47.598   4.118  15.878  0.00  0.00    +0.000 A 
ATOM      5  C   UNL     1      47.447   3.287  16.981  0.00  0.00    +0.000 A 
ATOM      6  C   UNL     1      48.161   3.570  18.145  0.00  0.00    +0.000 A 
ATOM      7  C   UNL     1      49.022   4.673  18.190  0.00  0.00    +0.000 A 
ENDROOT
BRANCH   7   8
ATOM      8  C   UNL     1      49.792   4.981  19.428  0.00  0.00    +0.000 C 
ATOM      9  N   UNL     1      50.987   4.336  19.607  0.00  0.00    +0.000 N 
ATOM     10  O   UNL     1      49.394   5.767  20.277  0.00  0.00    +0.000 OA
ATOM     11  H   UNL     1      51.316   3.576  19.035  0.00  0.00    +0.000 HD
ATOM     12  H   UNL     1      51.465   4.510  20.485  0.00  0.00    +0.000 HD
ENDBRANCH   7   8
BRANCH   4  13
ATOM     13  C   UNL     1      46.901   3.904  14.603  0.00  0.00    +0.000 C 
ATOM     14  C   UNL     1      46.051   4.779  14.040  0.00  0.00    +0.000 C 
BRANCH  14  15
ATOM     15  C   UNL     1      45.333   4.601  12.773  0.00  0.00    +0.000 A 
ATOM     16  C   UNL     1      45.630   5.307  11.611  0.00  0.00    +0.000 A 
ATOM     17  C   UNL     1      44.850   5.092  10.474  0.00  0.00    +0.000 A 
ATOM     18  C   UNL     1      43.797   4.187  10.530  0.00  0.00    +0.000 A 
ATOM     19  C   UNL     1      43.562   3.538  11.728  0.00  0.00    +0.000 A 
ATOM     20  N   UNL     1      44.297   3.731  12.847  0.00  0.00    +0.000 NA
ENDBRANCH  14  15
ENDBRANCH   4  13
TORSDOF 3
ENDMDL
MODEL 3
REMARK VINA RESULT:    -5.421      2.983      7.507
REMARK INTER + INTRA:          -6.661
REMARK INTER:                  -6.309
REMARK INTRA:                  -0.352
REMARK UNBOUND:                -0.290
REMARK  Name = 
REMARK  4 active torsions:
REMARK  status: ('A' for Active; 'I' for Inactive)
REMARK    1  A    between atoms: C_1  and  C_2
REMARK    2  A    between atoms: C_4  and  C_5
REMARK    3  A    between atoms: C_6  and  C_7
REMARK    4  A    between atoms: C_15  and  C_16
REMARK                            x       y       z     vdW  Elec       q    Type
REMARK                         _______ _______ _______ _____ _____    ______ ____
ROOT
ATOM      1  C   UNL     1      47.174   2.757  17.766  0.00  0.00    +0.000 C 
ATOM      2  C   UNL     1      47.598   3.971  16.992  0.00  0.00    +0.000 A 
ATOM      3  N   UNL     1      47.161   4.007  15.697  0.00  0.00    +0.000 NA
ATOM      4  C   UNL     1      47.513   5.053  14.916  0.00  0.00    +0.000 A 
ATOM      5  C   UNL     1      48.275   6.108  15.402  0.00  0.00    +0.000 A 
ATOM      6  C   UNL     1      48.725   6.066  16.722  0.00  0.00    +0.000 A 
ATOM      7  C   UNL     1      48.401   4.979  17.540  0.00  0.00    +0.000 A 
ENDROOT
BRANCH   7   8
ATOM      8  C   UNL     1      48.874   4.928  18.953  0.00  0.00    +0.000 C 
ATOM      9  N   UNL     1      50.041   4.256  19.205  0.00  0.00    +0.000 N 
ATOM     10  O   UNL     1      48.263   5.448  19.876  0.00  0.00    +0.000 OA
ATOM     11  H   UNL     1      50.527   3.684  18.533  0.00  0.00    +0.000 HD
ATOM     12  H   UNL     1      50.314   4.178  20.179  0.00  0.00    +0.000 HD
ENDBRANCH   7   8
BRANCH   4  13
ATOM     13  C   UNL     1      46.983   5.002  13.547  0.00  0.00    +0.000 C 
ATOM     14  C   UNL     1      45.929   4.263  13.163  0.00  0.00    +0.000 C 
BRANCH  14  15
ATOM     15  C   UNL     1      45.373   4.182  11.807  0.00  0.00    +0.000 A 
ATOM     16  C   UNL     1      44.626   3.105  11.342  0.00  0.00    +0.000 A 
ATOM     17  C   UNL     1      44.187   3.111  10.017  0.00  0.00    +0.000 A 
ATOM     18  C   UNL     1      44.509   4.184   9.197  0.00  0.00    +0.000 A 
ATOM     19  C   UNL     1      45.268   5.208   9.734  0.00  0.00    +0.000 A 
ATOM     20  N   UNL     1      45.712   5.225  11.012  0.00  0.00    +0.000 NA
ENDBRANCH  14  15
ENDBRANCH   4  13
TORSDOF 3
ENDMDL
MODEL 4
REMARK VINA RESULT:    -5.168      3.361      7.734
REMARK INTER + INTRA:          -6.364
REMARK INTER:                  -6.034
REMARK INTRA:                  -0.330
REMARK UNBOUND:                -0.290
REMARK  Name = 
REMARK  4 active torsions:
REMARK  status: ('A' for Active; 'I' for Inactive)
REMARK    1  A    between atoms: C_1  and  C_2
REMARK    2  A    between atoms: C_4  and  C_5
REMARK    3  A    between atoms: C_6  and  C_7
REMARK    4  A    between atoms: C_15  and  C_16
REMARK                            x       y       z     vdW  Elec       q    Type
REMARK                         _______ _______ _______ _____ _____    ______ ____
ROOT
ATOM      1  C   UNL     1      49.916   1.927  17.331  0.00  0.00    +0.000 C 
ATOM      2  C   UNL     1      49.377   3.292  17.012  0.00  0.00    +0.000 A 
ATOM      3  N   UNL     1      48.324   3.302  16.140  0.00  0.00    +0.000 NA
ATOM      4  C   UNL     1      47.788   4.489  15.777  0.00  0.00    +0.000 A 
ATOM      5  C   UNL     1      48.252   5.693  16.291  0.00  0.00    +0.000 A 
ATOM      6  C   UNL     1      49.331   5.680  17.176  0.00  0.00    +0.000 A 
ATOM      7  C   UNL     1      49.925   4.466  17.542  0.00  0.00    +0.000 A 
ENDROOT
BRANCH   7   8
ATOM      8  C   UNL     1      51.075   4.443  18.489  0.00  0.00    +0.000 C 
ATOM      9  N   UNL     1      50.791   4.388  19.828  0.00  0.00    +0.000 N 
ATOM     10  O   UNL     1      52.240   4.482  18.118  0.00  0.00    +0.000 OA
ATOM     11  H   UNL     1      49.869   4.496  20.221  0.00  0.00    +0.000 HD
ATOM     12  H   UNL     1      51.583   4.437  20.459  0.00  0.00    +0.000 HD
ENDBRANCH   7   8
BRANCH   4  13
ATOM     13  C   UNL     1      46.655   4.390  14.847  0.00  0.00    +0.000 C 
ATOM     14  C   UNL     1      46.451   5.209  13.802  0.00  0.00    +0.000 C 
BRANCH  14  15
ATOM     15  C   UNL     1      45.332   5.146  12.855  0.00  0.00    +0.000 A 
ATOM     16  C   UNL     1      45.489   5.153  11.473  0.00  0.00    +0.000 A 
ATOM     17  C   UNL     1      44.351   5.138  10.665  0.00  0.00    +0.000 A 
ATOM     18  C   UNL     1      43.094   5.123  11.257  0.00  0.00    +0.000 A 
ATOM     19  C   UNL     1      43.027   5.132  12.638  0.00  0.00    +0.000 A 
ATOM     20  N   UNL     1      44.112   5.152  13.445  0.00  0.00    +0.000 NA
ENDBRANCH  14  15
ENDBRANCH   4  13
TORSDOF 3
ENDMDL
MODEL 5
REMARK VINA RESULT:    -4.916      2.043      2.479
REMARK INTER + INTRA:          -6.068
REMARK INTER:                  -5.734
REMARK INTRA:                  -0.334
REMARK UNBOUND:                -0.290
REMARK  Name = 
REMARK  4 active torsions:
REMARK  status: ('A' for Active; 'I' for Inactive)
REMARK    1  A    between atoms: C_1  and  C_2
REMARK    2  A    between atoms: C_4  and  C_5
REMARK    3  A    between atoms: C_6  and  C_7
REMARK    4  A    between atoms: C_15  and  C_16
REMARK                            x       y       z     vdW  Elec       q    Type
REMARK                         _______ _______ _______ _____ _____    ______ ____
ROOT
ATOM      1  C   UNL     1      44.664   7.766  11.512  0.00  0.00    +0.000 C 
ATOM      2  C   UNL     1      45.186   6.539  12.202  0.00  0.00    +0.000 A 
ATOM      3  N   UNL     1      46.282   6.748  12.991  0.00  0.00    +0.000 NA
ATOM      4  C   UNL     1      46.835   5.695  13.634  0.00  0.00    +0.000 A 
ATOM      5  C   UNL     1      46.300   4.417  13.545  0.00  0.00    +0.000 A 
ATOM      6  C   UNL     1      45.184   4.205  12.734  0.00  0.00    +0.000 A 
ATOM      7  C   UNL     1      44.613   5.273  12.032  0.00  0.00    +0.000 A 
ENDROOT
BRANCH   7   8
ATOM      8  C   UNL     1      43.419   5.056  11.167  0.00  0.00    +0.000 C 
ATOM      9  N   UNL     1      42.185   5.185  11.748  0.00  0.00    +0.000 N 
ATOM     10  O   UNL     1      43.503   4.763   9.983  0.00  0.00    +0.000 OA
ATOM     11  H   UNL     1      42.028   5.283  12.739  0.00  0.00    +0.000 HD
ATOM     12  H   UNL     1      41.386   4.972  11.161  0.00  0.00    +0.000 HD
ENDBRANCH   7   8
BRANCH   4  13
ATOM     13  C   UNL     1      48.001   6.027  14.464  0.00  0.00    +0.000 C 
ATOM     14  C   UNL     1      48.111   5.749  15.774  0.00  0.00    +0.000 C 
BRANCH  14  15
ATOM     15  C   UNL     1      49.254   6.067  16.637  0.00  0.00    +0.000 A 
ATOM     16  C   UNL     1      49.142   6.352  17.994  0.00  0.00    +0.000 A 
ATOM     17  C   UNL     1      50.292   6.689  18.709  0.00  0.00    +0.000 A 
ATOM     18  C   UNL     1      51.515   6.738  18.051  0.00  0.00    +0.000 A 
ATOM     19  C   UNL     1      51.536   6.455  16.698  0.00  0.00    +0.000 A 
ATOM     20  N   UNL     1      50.436   6.131  15.979  0.00  0.00    +0.000 NA
ENDBRANCH  14  15
ENDBRANCH   4  13
TORSDOF 3
ENDMDL
MODEL 6
REMARK VINA RESULT:    -4.792      3.726      7.499
REMARK INTER + INTRA:          -5.922
REMARK INTER:                  -5.561
REMARK INTRA:                  -0.361
REMARK UNBOUND:                -0.290
REMARK  Name = 
REMARK  4 active torsions:
REMARK  status: ('A' for Active; 'I' for Inactive)
REMARK    1  A    between atoms: C_1  and  C_2
REMARK    2  A    between atoms: C_4  and  C_5
REMARK    3  A    between atoms: C_6  and  C_7
REMARK    4  A    between atoms: C_15  and  C_16
REMARK                            x       y       z     vdW  Elec       q    Type
REMARK                         _______ _______ _______ _____ _____    ______ ____
ROOT
ATOM      1  C   UNL     1      49.384   5.579  17.536  0.00  0.00    +0.000 C 
ATOM      2  C   UNL     1      49.479   6.285  16.215  0.00  0.00    +0.000 A 
ATOM      3  N   UNL     1      48.466   6.003  15.340  0.00  0.00    +0.000 NA
ATOM      4  C   UNL     1      48.481   6.577  14.116  0.00  0.00    +0.000 A 
ATOM      5  C   UNL     1      49.473   7.471  13.736  0.00  0.00    +0.000 A 
ATOM      6  C   UNL     1      50.509   7.753  14.628  0.00  0.00    +0.000 A 
ATOM      7  C   UNL     1      50.534   7.146  15.889  0.00  0.00    +0.000 A 
ENDROOT
BRANCH   7   8
ATOM      8  C   UNL     1      51.634   7.445  16.849  0.00  0.00    +0.000 C 
ATOM      9  N   UNL     1      51.472   8.520  17.682  0.00  0.00    +0.000 N 
ATOM     10  O   UNL     1      52.659   6.780  16.910  0.00  0.00    +0.000 OA
ATOM     11  H   UNL     1      50.731   9.198  17.601  0.00  0.00    +0.000 HD
ATOM     12  H   UNL     1      52.257   8.746  18.284  0.00  0.00    +0.000 HD
ENDBRANCH   7   8
BRANCH   4  13
ATOM     13  C   UNL     1      47.344   6.219  13.258  0.00  0.00    +0.000 C 
ATOM     14  C   UNL     1      46.481   5.221  13.510  0.00  0.00    +0.000 C 
BRANCH  14  15
ATOM     15  C   UNL     1      45.338   4.829  12.677  0.00  0.00    +0.000 A 
ATOM     16  C   UNL     1      44.868   5.585  11.608  0.00  0.00    +0.000 A 
ATOM     17  C   UNL     1      43.741   5.141  10.913  0.00  0.00    +0.000 A 
ATOM     18  C   UNL     1      43.116   3.965  11.308  0.00  0.00    +0.000 A 
ATOM     19  C   UNL     1      43.639   3.282  12.390  0.00  0.00    +0.000 A 
ATOM     20  N   UNL     1      44.725   3.692  13.085  0.00  0.00    +0.000 NA
ENDBRANCH  14  15
ENDBRANCH   4  13
TORSDOF 3
ENDMDL
MODEL 7
REMARK VINA RESULT:    -4.686      4.671      7.669
REMARK INTER + INTRA:          -5.797
REMARK INTER:                  -5.474
REMARK INTRA:                  -0.324
REMARK UNBOUND:                -0.290
REMARK  Name = 
REMARK  4 active torsions:
REMARK  status: ('A' for Active; 'I' for Inactive)
REMARK    1  A    between atoms: C_1  and  C_2
REMARK    2  A    between atoms: C_4  and  C_5
REMARK    3  A    between atoms: C_6  and  C_7
REMARK    4  A    between atoms: C_15  and  C_16
REMARK                            x       y       z     vdW  Elec       q    Type
REMARK                         _______ _______ _______ _____ _____    ______ ____
ROOT
ATOM      1  C   UNL     1      51.679   8.056  10.713  0.00  0.00    +0.000 C 
ATOM      2  C   UNL     1      50.734   7.981  11.877  0.00  0.00    +0.000 A 
ATOM      3  N   UNL     1      49.462   7.594  11.558  0.00  0.00    +0.000 NA
ATOM      4  C   UNL     1      48.536   7.520  12.540  0.00  0.00    +0.000 A 
ATOM      5  C   UNL     1      48.848   7.791  13.866  0.00  0.00    +0.000 A 
ATOM      6  C   UNL     1      50.145   8.193  14.188  0.00  0.00    +0.000 A 
ATOM      7  C   UNL     1      51.114   8.308  13.185  0.00  0.00    +0.000 A 
ENDROOT
BRANCH   7   8
ATOM      8  C   UNL     1      52.503   8.732  13.520  0.00  0.00    +0.000 C 
ATOM      9  N   UNL     1      53.410   7.750  13.817  0.00  0.00    +0.000 N 
ATOM     10  O   UNL     1      52.849   9.905  13.548  0.00  0.00    +0.000 OA
ATOM     11  H   UNL     1      53.175   6.779  13.956  0.00  0.00    +0.000 HD
ATOM     12  H   UNL     1      54.332   8.060  14.105  0.00  0.00    +0.000 HD
ENDBRANCH   7   8
BRANCH   4  13
ATOM     13  C   UNL     1      47.206   7.083  12.096  0.00  0.00    +0.000 C 
ATOM     14  C   UNL     1      46.522   6.056  12.627  0.00  0.00    +0.000 C 
BRANCH  14  15
ATOM     15  C   UNL     1      45.195   5.587  12.209  0.00  0.00    +0.000 A 
ATOM     16  C   UNL     1      44.881   5.224  10.904  0.00  0.00    +0.000 A 
ATOM     17  C   UNL     1      43.572   4.839  10.609  0.00  0.00    +0.000 A 
ATOM     18  C   UNL     1      42.618   4.833  11.619  0.00  0.00    +0.000 A 
ATOM     19  C   UNL     1      43.011   5.222  12.886  0.00  0.00    +0.000 A 
ATOM     20  N   UNL     1      44.270   5.606  13.199  0.00  0.00    +0.000 NA
ENDBRANCH  14  15
ENDBRANCH   4  13
TORSDOF 3
ENDMDL
MODEL 8
REMARK VINA RESULT:    -4.560      1.757      1.991
REMARK INTER + INTRA:          -5.650
REMARK INTER:                  -5.338
REMARK INTRA:                  -0.311
REMARK UNBOUND:                -0.290
REMARK  Name = 
REMARK  4 active torsions:
REMARK  status: ('A' for Active; 'I' for Inactive)
REMARK    1  A    between atoms: C_1  and  C_2
REMARK    2  A    between atoms: C_4  and  C_5
REMARK    3  A    between atoms: C_6  and  C_7
REMARK    4  A    between atoms: C_15  and  C_16
REMARK                            x       y       z     vdW  Elec       q    Type
REMARK                         _______ _______ _______ _____ _____    ______ ____
ROOT
ATOM      1  C   UNL     1      45.753   3.634  12.859  0.00  0.00    +0.000 C 
ATOM      2  C   UNL     1      46.379   4.999  12.856  0.00  0.00    +0.000 A 
ATOM      3  N   UNL     1      47.238   5.238  13.892  0.00  0.00    +0.000 NA
ATOM      4  C   UNL     1      47.831   6.449  13.984  0.00  0.00    +0.000 A 
ATOM      5  C   UNL     1      47.621   7.443  13.037  0.00  0.00    +0.000 A 
ATOM      6  C   UNL     1      46.739   7.200  11.983  0.00  0.00    +0.000 A 
ATOM      7  C   UNL     1      46.088   5.965  11.884  0.00  0.00    +0.000 A 
ENDROOT
BRANCH   7   8
ATOM      8  C   UNL     1      45.148   5.694  10.760  0.00  0.00    +0.000 C 
ATOM      9  N   UNL     1      45.690   5.472   9.522  0.00  0.00    +0.000 N 
ATOM     10  O   UNL     1      43.933   5.675  10.902  0.00  0.00    +0.000 OA
ATOM     11  H   UNL     1      46.661   5.610   9.291  0.00  0.00    +0.000 HD
ATOM     12  H   UNL     1      45.034   5.354   8.757  0.00  0.00    +0.000 HD
ENDBRANCH   7   8
BRANCH   4  13
ATOM     13  C   UNL     1      48.743   6.600  15.125  0.00  0.00    +0.000 C 
ATOM     14  C   UNL     1      48.681   5.874  16.255  0.00  0.00    +0.000 C 
BRANCH  14  15
ATOM     15  C   UNL     1      49.570   5.997  17.416  0.00  0.00    +0.000 A 
ATOM     16  C   UNL     1      50.078   7.208  17.874  0.00  0.00    +0.000 A 
ATOM     17  C   UNL     1      50.955   7.204  18.960  0.00  0.00    +0.000 A 
ATOM     18  C   UNL     1      51.301   5.995  19.551  0.00  0.00    +0.000 A 
ATOM     19  C   UNL     1      50.762   4.836  19.025  0.00  0.00    +0.000 A 
ATOM     20  N   UNL     1      49.915   4.811  17.970  0.00  0.00    +0.000 NA
ENDBRANCH  14  15
ENDBRANCH   4  13
TORSDOF 3
ENDMDL
MODEL 9
REMARK VINA RESULT:    -4.309      4.483      7.443
REMARK INTER + INTRA:          -5.354
REMARK INTER:                  -5.005
REMARK INTRA:                  -0.349
REMARK UNBOUND:                -0.290
REMARK  Name = 
REMARK  4 active torsions:
REMARK  status: ('A' for Active; 'I' for Inactive)
REMARK    1  A    between atoms: C_1  and  C_2
REMARK    2  A    between atoms: C_4  and  C_5
REMARK    3  A    between atoms: C_6  and  C_7
REMARK    4  A    between atoms: C_15  and  C_16
REMARK                            x       y       z     vdW  Elec       q    Type
REMARK                         _______ _______ _______ _____ _____    ______ ____
ROOT
ATOM      1  C   UNL     1      49.068   9.299  15.426  0.00  0.00    +0.000 C 
ATOM      2  C   UNL     1      49.279   8.789  14.030  0.00  0.00    +0.000 A 
ATOM      3  N   UNL     1      48.269   8.006  13.547  0.00  0.00    +0.000 NA
ATOM      4  C   UNL     1      48.383   7.483  12.305  0.00  0.00    +0.000 A 
ATOM      5  C   UNL     1      49.479   7.749  11.494  0.00  0.00    +0.000 A 
ATOM      6  C   UNL     1      50.512   8.544  11.991  0.00  0.00    +0.000 A 
ATOM      7  C   UNL     1      50.432   9.070  13.286  0.00  0.00    +0.000 A 
ENDROOT
BRANCH   7   8
ATOM      8  C   UNL     1      51.529   9.924  13.823  0.00  0.00    +0.000 C 
ATOM      9  N   UNL     1      52.562   9.295  14.467  0.00  0.00    +0.000 N 
ATOM     10  O   UNL     1      51.532  11.143  13.719  0.00  0.00    +0.000 OA
ATOM     11  H   UNL     1      52.568   8.320  14.719  0.00  0.00    +0.000 HD
ATOM     12  H   UNL     1      53.267   9.896  14.881  0.00  0.00    +0.000 HD
ENDBRANCH   7   8
BRANCH   4  13
ATOM     13  C   UNL     1      47.240   6.666  11.877  0.00  0.00    +0.000 C 
ATOM     14  C   UNL     1      46.441   5.974  12.706  0.00  0.00    +0.000 C 
BRANCH  14  15
ATOM     15  C   UNL     1      45.294   5.146  12.318  0.00  0.00    +0.000 A 
ATOM     16  C   UNL     1      45.225   3.773  12.534  0.00  0.00    +0.000 A 
ATOM     17  C   UNL     1      44.105   3.075  12.079  0.00  0.00    +0.000 A 
ATOM     18  C   UNL     1      43.094   3.762  11.419  0.00  0.00    +0.000 A 
ATOM     19  C   UNL     1      43.249   5.124  11.233  0.00  0.00    +0.000 A 
ATOM     20  N   UNL     1      44.325   5.824  11.658  0.00  0.00    +0.000 NA
ENDBRANCH  14  15
ENDBRANCH   4  13
TORSDOF 3
ENDMDL
