MODEL 1
REMARK VINA RESULT:    -5.949      0.000      0.000
REMARK INTER + INTRA:          -8.137
REMARK INTER:                  -7.515
REMARK INTRA:                  -0.622
REMARK UNBOUND:                -0.622
REMARK  Name = 
REMARK  5 active torsions:
REMARK  status: ('A' for Active; 'I' for Inactive)
REMARK    1  A    between atoms: N_1  and  C_2
REMARK    2  A    between atoms: C_2  and  C_3
REMARK    3  A    between atoms: C_3  and  N_4
REMARK    4  A    between atoms: C_7  and  C_8
REMARK    5  A    between atoms: C_8  and  N_9
REMARK                            x       y       z     vdW  Elec       q    Type
REMARK                         _______ _______ _______ _____ _____    ______ ____
ROOT
ATOM      1  N   UNL     1      45.208   6.206  13.161  0.00  0.00    +0.000 NA
ATOM      2  C   UNL     1      43.763   6.207  12.883  0.00  0.00    +0.000 C 
ATOM      3  C   UNL     1      43.134   4.827  13.080  0.00  0.00    +0.000 C 
ATOM      4  C   UNL     1      43.790   3.776  12.178  0.00  0.00    +0.000 C 
ATOM      5  C   UNL     1      45.288   3.769  12.535  0.00  0.00    +0.000 C 
ATOM      6  C   UNL     1      45.928   5.157  12.412  0.00  0.00    +0.000 C 
ENDROOT
BRANCH   1   7
ATOM      7  C   UNL     1      45.816   7.528  12.868  0.00  0.00    +0.000 C 
BRANCH   7   8
ATOM      8  C   UNL     1      44.977   8.450  11.951  0.00  0.00    +0.000 C 
BRANCH   8   9
ATOM      9  N   UNL     1      44.639   9.719  12.609  0.00  0.00    +0.000 NA
ATOM     10  H   UNL     1      44.864   9.644  13.601  0.00  0.00    +0.000 HD
ATOM     11  H   UNL     1      43.631   9.865  12.562  0.00  0.00    +0.000 HD
ENDBRANCH   8   9
ENDBRANCH   7   8
ENDBRANCH   1   7
BRANCH   4  12
ATOM     12  C   UNL     1      43.564   4.014  10.662  0.00  0.00    +0.000 C 
BRANCH  12  13
ATOM     13  N   UNL     1      44.316   3.143   9.761  0.00  0.00    +0.000 N 
ATOM     14  C   UNL     1      44.163   1.777   9.734  0.00  0.00    +0.000 A 
ATOM     15  C   UNL     1      44.984   1.273   8.756  0.00  0.00    +0.000 A 
ATOM     16  C   UNL     1      45.699   2.364   8.181  0.00  0.00    +0.000 A 
ATOM     17  C   UNL     1      46.648   2.467   7.154  0.00  0.00    +0.000 A 
ATOM     18  C   UNL     1      47.166   3.722   6.911  0.00  0.00    +0.000 A 
ATOM     19  N   UNL     1      46.840   4.830   7.613  0.00  0.00    +0.000 NA
ATOM     20  C   UNL     1      45.926   4.743   8.608  0.00  0.00    +0.000 A 
ATOM     21  C   UNL     1      45.312   3.516   8.871  0.00  0.00    +0.000 A 
ENDBRANCH  12  13
ENDBRANCH   4  12
TORSDOF 5
ENDMDL
MODEL 2
REMARK VINA RESULT:    -5.831      1.891      6.424
REMARK INTER + INTRA:          -7.987
REMARK INTER:                  -7.689
REMARK INTRA:                  -0.297
REMARK UNBOUND:                -0.622
REMARK  Name = 
REMARK  5 active torsions:
REMARK  status: ('A' for Active; 'I' for Inactive)
REMARK    1  A    between atoms: N_1  and  C_2
REMARK    2  A    between atoms: C_2  and  C_3
REMARK    3  A    between atoms: C_3  and  N_4
REMARK    4  A    between atoms: C_7  and  C_8
REMARK    5  A    between atoms: C_8  and  N_9
REMARK                            x       y       z     vdW  Elec       q    Type
REMARK                         _______ _______ _______ _____ _____    ______ ____
ROOT
ATOM      1  N   UNL     1      45.623   2.455   8.124  0.00  0.00    +0.000 NA
ATOM      2  C   UNL     1      45.218   1.982   9.457  0.00  0.00    +0.000 C 
ATOM      3  C   UNL     1      44.095   2.829  10.056  0.00  0.00    +0.000 C 
ATOM      4  C   UNL     1      44.505   4.300  10.179  0.00  0.00    +0.000 C 
ATOM      5  C   UNL     1      44.870   4.772   8.760  0.00  0.00    +0.000 C 
ATOM      6  C   UNL     1      45.948   3.895   8.109  0.00  0.00    +0.000 C 
ENDROOT
BRANCH   1   7
ATOM      7  C   UNL     1      46.779   1.682   7.604  0.00  0.00    +0.000 C 
BRANCH   7   8
ATOM      8  C   UNL     1      47.845   2.517   6.855  0.00  0.00    +0.000 C 
BRANCH   8   9
ATOM      9  N   UNL     1      48.439   1.772   5.737  0.00  0.00    +0.000 NA
ATOM     10  H   UNL     1      49.154   2.352   5.299  0.00  0.00    +0.000 HD
ATOM     11  H   UNL     1      47.729   1.617   5.020  0.00  0.00    +0.000 HD
ENDBRANCH   8   9
ENDBRANCH   7   8
ENDBRANCH   1   7
BRANCH   4  12
ATOM     12  C   UNL     1      45.661   4.553  11.182  0.00  0.00    +0.000 C 
BRANCH  12  13
ATOM     13  N   UNL     1      45.759   5.911  11.714  0.00  0.00    +0.000 N 
ATOM     14  C   UNL     1      44.859   6.904  11.408  0.00  0.00    +0.000 A 
ATOM     15  C   UNL     1      45.217   8.035  12.099  0.00  0.00    +0.000 A 
ATOM     16  C   UNL     1      46.404   7.740  12.832  0.00  0.00    +0.000 A 
ATOM     17  C   UNL     1      47.209   8.480  13.710  0.00  0.00    +0.000 A 
ATOM     18  C   UNL     1      48.337   7.852  14.195  0.00  0.00    +0.000 A 
ATOM     19  N   UNL     1      48.719   6.601  13.856  0.00  0.00    +0.000 NA
ATOM     20  C   UNL     1      47.950   5.878  13.008  0.00  0.00    +0.000 A 
ATOM     21  C   UNL     1      46.760   6.424  12.524  0.00  0.00    +0.000 A 
ENDBRANCH  12  13
ENDBRANCH   4  12
TORSDOF 5
ENDMDL
MODEL 3
REMARK VINA RESULT:    -5.724      3.276      6.960
REMARK INTER + INTRA:          -7.852
REMARK INTER:                  -7.278
REMARK INTRA:                  -0.574
REMARK UNBOUND:                -0.622
REMARK  Name = 
REMARK  5 active torsions:
REMARK  status: ('A' for Active; 'I' for Inactive)
REMARK    1  A    between atoms: N_1  and  C_2
REMARK    2  A    between atoms: C_2  and  C_3
REMARK    3  A    between atoms: C_3  and  N_4
REMARK    4  A    between atoms: C_7  and  C_8
REMARK    5  A    between atoms: C_8  and  N_9
REMARK                            x       y       z     vdW  Elec       q    Type
REMARK                         _______ _______ _______ _____ _____    ______ ____
ROOT
ATOM      1  N   UNL     1      43.929   5.517  11.522  0.00  0.00    +0.000 NA
ATOM      2  C   UNL     1      44.275   5.985  12.874  0.00  0.00    +0.000 C 
ATOM      3  C   UNL     1      45.314   7.107  12.851  0.00  0.00    +0.000 C 
ATOM      4  C   UNL     1      46.606   6.662  12.157  0.00  0.00    +0.000 C 
ATOM      5  C   UNL     1      46.211   6.230  10.733  0.00  0.00    +0.000 C 
ATOM      6  C   UNL     1      45.119   5.153  10.727  0.00  0.00    +0.000 C 
ENDROOT
BRANCH   1   7
ATOM      7  C   UNL     1      42.995   4.364  11.572  0.00  0.00    +0.000 C 
BRANCH   7   8
ATOM      8  C   UNL     1      43.563   3.086  12.233  0.00  0.00    +0.000 C 
BRANCH   8   9
ATOM      9  N   UNL     1      42.991   1.866  11.649  0.00  0.00    +0.000 NA
ATOM     10  H   UNL     1      42.452   1.380  12.365  0.00  0.00    +0.000 HD
ATOM     11  H   UNL     1      43.746   1.230  11.390  0.00  0.00    +0.000 HD
ENDBRANCH   8   9
ENDBRANCH   7   8
ENDBRANCH   1   7
BRANCH   4  12
ATOM     12  C   UNL     1      47.370   5.537  12.905  0.00  0.00    +0.000 C 
BRANCH  12  13
ATOM     13  N   UNL     1      47.902   5.892  14.219  0.00  0.00    +0.000 N 
ATOM     14  C   UNL     1      48.768   6.941  14.420  0.00  0.00    +0.000 A 
ATOM     15  C   UNL     1      49.039   7.021  15.764  0.00  0.00    +0.000 A 
ATOM     16  C   UNL     1      48.343   5.959  16.413  0.00  0.00    +0.000 A 
ATOM     17  C   UNL     1      48.229   5.551  17.750  0.00  0.00    +0.000 A 
ATOM     18  C   UNL     1      47.487   4.413  17.988  0.00  0.00    +0.000 A 
ATOM     19  N   UNL     1      46.902   3.666  17.026  0.00  0.00    +0.000 NA
ATOM     20  C   UNL     1      47.008   4.050  15.731  0.00  0.00    +0.000 A 
ATOM     21  C   UNL     1      47.692   5.227  15.417  0.00  0.00    +0.000 A 
ENDBRANCH  12  13
ENDBRANCH   4  12
TORSDOF 5
ENDMDL
MODEL 4
REMARK VINA RESULT:    -5.522      3.177      7.009
REMARK INTER + INTRA:          -7.596
REMARK INTER:                  -7.068
REMARK INTRA:                  -0.529
REMARK UNBOUND:                -0.622
REMARK  Name = 
REMARK  5 active torsions:
REMARK  status: ('A' for Active; 'I' for Inactive)
REMARK    1  A    between atoms: N_1  and  C_2
REMARK    2  A    between atoms: C_2  and  C_3
REMARK    3  A    between atoms: C_3  and  N_4
REMARK    4  A    between atoms: C_7  and  C_8
REMARK    5  A    between atoms: C_8  and  N_9
REMARK                            x       y       z     vdW  Elec       q    Type
REMARK                         _______ _______ _______ _____ _____    ______ ____
ROOT
ATOM      1  N   UNL     1      44.250   4.198  10.935  0.00  0.00    +0.000 NA
ATOM      2  C   UNL     1      44.439   4.039  12.386  0.00  0.00    +0.000 C 
ATOM      3  C   UNL     1      44.575   5.383  13.103  0.00  0.00    +0.000 C 
ATOM      4  C   UNL     1      45.756   6.194  12.557  0.00  0.00    +0.000 C 
ATOM      5  C   UNL     1      45.496   6.383  11.051  0.00  0.00    +0.000 C 
ATOM      6  C   UNL     1      45.287   5.051  10.320  0.00  0.00    +0.000 C 
ENDROOT
BRANCH   1   7
ATOM      7  C   UNL     1      44.220   2.883  10.247  0.00  0.00    +0.000 C 
BRANCH   7   8
ATOM      8  C   UNL     1      45.147   2.763   9.015  0.00  0.00    +0.000 C 
BRANCH   8   9
ATOM      9  N   UNL     1      45.620   1.387   8.816  0.00  0.00    +0.000 NA
ATOM     10  H   UNL     1      45.474   1.128   7.841  0.00  0.00    +0.000 HD
ATOM     11  H   UNL     1      45.043   0.749   9.364  0.00  0.00    +0.000 HD
ENDBRANCH   8   9
ENDBRANCH   7   8
ENDBRANCH   1   7
BRANCH   4  12
ATOM     12  C   UNL     1      47.142   5.551  12.823  0.00  0.00    +0.000 C 
BRANCH  12  13
ATOM     13  N   UNL     1      47.758   5.871  14.109  0.00  0.00    +0.000 N 
ATOM     14  C   UNL     1      48.649   6.904  14.278  0.00  0.00    +0.000 A 
ATOM     15  C   UNL     1      49.002   6.952  15.604  0.00  0.00    +0.000 A 
ATOM     16  C   UNL     1      48.332   5.886  16.273  0.00  0.00    +0.000 A 
ATOM     17  C   UNL     1      48.293   5.451  17.605  0.00  0.00    +0.000 A 
ATOM     18  C   UNL     1      47.552   4.318  17.866  0.00  0.00    +0.000 A 
ATOM     19  N   UNL     1      46.899   3.600  16.925  0.00  0.00    +0.000 NA
ATOM     20  C   UNL     1      46.931   4.010  15.635  0.00  0.00    +0.000 A 
ATOM     21  C   UNL     1      47.611   5.184  15.303  0.00  0.00    +0.000 A 
ENDBRANCH  12  13
ENDBRANCH   4  12
TORSDOF 5
ENDMDL
MODEL 5
REMARK VINA RESULT:    -5.259      4.799      7.009
REMARK INTER + INTRA:          -7.265
REMARK INTER:                  -6.886
REMARK INTRA:                  -0.379
REMARK UNBOUND:                -0.622
REMARK  Name = 
REMARK  5 active torsions:
REMARK  status: ('A' for Active; 'I' for Inactive)
REMARK    1  A    between atoms: N_1  and  C_2
REMARK    2  A    between atoms: C_2  and  C_3
REMARK    3  A    between atoms: C_3  and  N_4
REMARK    4  A    between atoms: C_7  and  C_8
REMARK    5  A    between atoms: C_8  and  N_9
REMARK                            x       y       z     vdW  Elec       q    Type
REMARK                         _______ _______ _______ _____ _____    ______ ____
ROOT
ATOM      1  N   UNL     1      49.648   3.653  17.801  0.00  0.00    +0.000 NA
ATOM      2  C   UNL     1      49.608   4.876  16.983  0.00  0.00    +0.000 C 
ATOM      3  C   UNL     1      48.216   5.509  16.954  0.00  0.00    +0.000 C 
ATOM      4  C   UNL     1      47.168   4.535  16.403  0.00  0.00    +0.000 C 
ATOM      5  C   UNL     1      47.204   3.294  17.312  0.00  0.00    +0.000 C 
ATOM      6  C   UNL     1      48.607   2.680  17.414  0.00  0.00    +0.000 C 
ENDROOT
BRANCH   1   7
ATOM      7  C   UNL     1      50.981   3.002  17.735  0.00  0.00    +0.000 C 
BRANCH   7   8
ATOM      8  C   UNL     1      50.995   1.594  17.095  0.00  0.00    +0.000 C 
BRANCH   8   9
ATOM      9  N   UNL     1      51.584   0.590  17.989  0.00  0.00    +0.000 NA
ATOM     10  H   UNL     1      51.846  -0.227  17.439  0.00  0.00    +0.000 HD
ATOM     11  H   UNL     1      50.874   0.267  18.647  0.00  0.00    +0.000 HD
ENDBRANCH   8   9
ENDBRANCH   7   8
ENDBRANCH   1   7
BRANCH   4  12
ATOM     12  C   UNL     1      47.378   4.159  14.912  0.00  0.00    +0.000 C 
BRANCH  12  13
ATOM     13  N   UNL     1      47.008   5.184  13.938  0.00  0.00    +0.000 N 
ATOM     14  C   UNL     1      47.826   6.239  13.611  0.00  0.00    +0.000 A 
ATOM     15  C   UNL     1      47.197   6.986  12.645  0.00  0.00    +0.000 A 
ATOM     16  C   UNL     1      45.928   6.390  12.392  0.00  0.00    +0.000 A 
ATOM     17  C   UNL     1      44.873   6.692  11.518  0.00  0.00    +0.000 A 
ATOM     18  C   UNL     1      43.752   5.893  11.600  0.00  0.00    +0.000 A 
ATOM     19  N   UNL     1      43.602   4.875  12.476  0.00  0.00    +0.000 NA
ATOM     20  C   UNL     1      44.614   4.575  13.325  0.00  0.00    +0.000 A 
ATOM     21  C   UNL     1      45.805   5.301  13.259  0.00  0.00    +0.000 A 
ENDBRANCH  12  13
ENDBRANCH   4  12
TORSDOF 5
ENDMDL
MODEL 6
REMARK VINA RESULT:    -5.165      3.264      6.839
REMARK INTER + INTRA:          -7.145
REMARK INTER:                  -6.693
REMARK INTRA:                  -0.452
REMARK UNBOUND:                -0.622
REMARK  Name = 
REMARK  5 active torsions:
REMARK  status: ('A' for Active; 'I' for Inactive)
REMARK    1  A    between atoms: N_1  and  C_2
REMARK    2  A    between atoms: C_2  and  C_3
REMARK    3  A    between atoms: C_3  and  N_4
REMARK    4  A    between atoms: C_7  and  C_8
REMARK    5  A    between atoms: C_8  and  N_9
REMARK                            x       y       z     vdW  Elec       q    Type
REMARK                         _______ _______ _______ _____ _____    ______ ____
ROOT
ATOM      1  N   UNL     1      44.608   4.606  10.455  0.00  0.00    +0.000 NA
ATOM      2  C   UNL     1      44.543   3.680  11.597  0.00  0.00    +0.000 C 
ATOM      3  C   UNL     1      44.308   4.408  12.921  0.00  0.00    +0.000 C 
ATOM      4  C   UNL     1      45.414   5.432  13.203  0.00  0.00    +0.000 C 
ATOM      5  C   UNL     1      45.416   6.410  12.014  0.00  0.00    +0.000 C 
ATOM      6  C   UNL     1      45.580   5.697  10.666  0.00  0.00    +0.000 C 
ENDROOT
BRANCH   1   7
ATOM      7  C   UNL     1      44.934   3.890   9.196  0.00  0.00    +0.000 C 
BRANCH   7   8
ATOM      8  C   UNL     1      44.641   2.371   9.208  0.00  0.00    +0.000 C 
BRANCH   8   9
ATOM      9  N   UNL     1      45.785   1.588   8.723  0.00  0.00    +0.000 NA
ATOM     10  H   UNL     1      46.227   1.127   9.518  0.00  0.00    +0.000 HD
ATOM     11  H   UNL     1      46.488   2.219   8.340  0.00  0.00    +0.000 HD
ENDBRANCH   8   9
ENDBRANCH   7   8
ENDBRANCH   1   7
BRANCH   4  12
ATOM     12  C   UNL     1      46.815   4.804  13.430  0.00  0.00    +0.000 C 
BRANCH  12  13
ATOM     13  N   UNL     1      47.408   5.028  14.746  0.00  0.00    +0.000 N 
ATOM     14  C   UNL     1      47.138   4.235  15.836  0.00  0.00    +0.000 A 
ATOM     15  C   UNL     1      47.883   4.694  16.895  0.00  0.00    +0.000 A 
ATOM     16  C   UNL     1      48.613   5.835  16.452  0.00  0.00    +0.000 A 
ATOM     17  C   UNL     1      49.531   6.698  17.069  0.00  0.00    +0.000 A 
ATOM     18  C   UNL     1      49.997   7.752  16.311  0.00  0.00    +0.000 A 
ATOM     19  N   UNL     1      49.606   8.013  15.044  0.00  0.00    +0.000 NA
ATOM     20  C   UNL     1      48.719   7.188  14.438  0.00  0.00    +0.000 A 
ATOM     21  C   UNL     1      48.249   6.063  15.122  0.00  0.00    +0.000 A 
ENDBRANCH  12  13
ENDBRANCH   4  12
TORSDOF 5
ENDMDL
MODEL 7
REMARK VINA RESULT:    -5.012      4.220      7.512
REMARK INTER + INTRA:          -6.952
REMARK INTER:                  -6.358
REMARK INTRA:                  -0.594
REMARK UNBOUND:                -0.622
REMARK  Name = 
REMARK  5 active torsions:
REMARK  status: ('A' for Active; 'I' for Inactive)
REMARK    1  A    between atoms: N_1  and  C_2
REMARK    2  A    between atoms: C_2  and  C_3
REMARK    3  A    between atoms: C_3  and  N_4
REMARK    4  A    between atoms: C_7  and  C_8
REMARK    5  A    between atoms: C_8  and  N_9
REMARK                            x       y       z     vdW  Elec       q    Type
REMARK                         _______ _______ _______ _____ _____    ______ ____
ROOT
ATOM      1  N   UNL     1      46.096   6.973  12.404  0.00  0.00    +0.000 NA
ATOM      2  C   UNL     1      46.522   8.258  12.983  0.00  0.00    +0.000 C 
ATOM      3  C   UNL     1      48.045   8.402  13.017  0.00  0.00    +0.000 C 
ATOM      4  C   UNL     1      48.697   7.277  13.828  0.00  0.00    +0.000 C 
ATOM      5  C   UNL     1      48.271   5.955  13.162  0.00  0.00    +0.000 C 
ATOM      6  C   UNL     1      46.747   5.817  13.053  0.00  0.00    +0.000 C 
ENDROOT
BRANCH   1   7
ATOM      7  C   UNL     1      44.622   6.813  12.471  0.00  0.00    +0.000 C 
BRANCH   7   8
ATOM      8  C   UNL     1      44.132   5.416  12.922  0.00  0.00    +0.000 C 
BRANCH   8   9
ATOM      9  N   UNL     1      42.721   5.435  13.329  0.00  0.00    +0.000 NA
ATOM     10  H   UNL     1      42.672   5.418  14.347  0.00  0.00    +0.000 HD
ATOM     11  H   UNL     1      42.268   4.576  13.014  0.00  0.00    +0.000 HD
ENDBRANCH   8   9
ENDBRANCH   7   8
ENDBRANCH   1   7
BRANCH   4  12
ATOM     12  C   UNL     1      48.342   7.298  15.338  0.00  0.00    +0.000 C 
BRANCH  12  13
ATOM     13  N   UNL     1      48.984   6.273  16.158  0.00  0.00    +0.000 N 
ATOM     14  C   UNL     1      50.309   6.322  16.521  0.00  0.00    +0.000 A 
ATOM     15  C   UNL     1      50.577   5.234  17.316  0.00  0.00    +0.000 A 
ATOM     16  C   UNL     1      49.381   4.464  17.417  0.00  0.00    +0.000 A 
ATOM     17  C   UNL     1      49.046   3.281  18.091  0.00  0.00    +0.000 A 
ATOM     18  C   UNL     1      47.766   2.801  17.902  0.00  0.00    +0.000 A 
ATOM     19  N   UNL     1      46.846   3.378  17.097  0.00  0.00    +0.000 NA
ATOM     20  C   UNL     1      47.160   4.521  16.441  0.00  0.00    +0.000 A 
ATOM     21  C   UNL     1      48.416   5.100  16.631  0.00  0.00    +0.000 A 
ENDBRANCH  12  13
ENDBRANCH   4  12
TORSDOF 5
ENDMDL
MODEL 8
REMARK VINA RESULT:    -4.925      2.907      5.063
REMARK INTER + INTRA:          -6.842
REMARK INTER:                  -6.369
REMARK INTRA:                  -0.473
REMARK UNBOUND:                -0.622
REMARK  Name = 
REMARK  5 active torsions:
REMARK  status: ('A' for Active; 'I' for Inactive)
REMARK    1  A    between atoms: N_1  and  C_2
REMARK    2  A    between atoms: C_2  and  C_3
REMARK    3  A    between atoms: C_3  and  N_4
REMARK    4  A    between atoms: C_7  and  C_8
REMARK    5  A    between atoms: C_8  and  N_9
REMARK                            x       y       z     vdW  Elec       q    Type
REMARK                         _______ _______ _______ _____ _____    ______ ____
ROOT
ATOM      1  N   UNL     1      49.130   8.594  14.150  0.00  0.00    +0.000 NA
ATOM      2  C   UNL     1      49.310   7.306  13.460  0.00  0.00    +0.000 C 
ATOM      3  C   UNL     1      48.871   7.367  11.996  0.00  0.00    +0.000 C 
ATOM      4  C   UNL     1      47.399   7.772  11.867  0.00  0.00    +0.000 C 
ATOM      5  C   UNL     1      47.262   9.144  12.553  0.00  0.00    +0.000 C 
ATOM      6  C   UNL     1      47.760   9.127  14.004  0.00  0.00    +0.000 C 
ENDROOT
BRANCH   1   7
ATOM      7  C   UNL     1      49.467   8.487  15.591  0.00  0.00    +0.000 C 
BRANCH   7   8
ATOM      8  C   UNL     1      49.220   7.097  16.224  0.00  0.00    +0.000 C 
BRANCH   8   9
ATOM      9  N   UNL     1      48.286   7.167  17.355  0.00  0.00    +0.000 NA
ATOM     10  H   UNL     1      47.931   6.230  17.546  0.00  0.00    +0.000 HD
ATOM     11  H   UNL     1      47.474   7.724  17.089  0.00  0.00    +0.000 HD
ENDBRANCH   8   9
ENDBRANCH   7   8
ENDBRANCH   1   7
BRANCH   4  12
ATOM     12  C   UNL     1      46.403   6.737  12.454  0.00  0.00    +0.000 C 
BRANCH  12  13
ATOM     13  N   UNL     1      45.810   5.808  11.494  0.00  0.00    +0.000 N 
ATOM     14  C   UNL     1      45.989   5.915  10.136  0.00  0.00    +0.000 A 
ATOM     15  C   UNL     1      45.333   4.870   9.533  0.00  0.00    +0.000 A 
ATOM     16  C   UNL     1      44.693   4.110  10.555  0.00  0.00    +0.000 A 
ATOM     17  C   UNL     1      43.907   2.948  10.549  0.00  0.00    +0.000 A 
ATOM     18  C   UNL     1      43.410   2.531  11.766  0.00  0.00    +0.000 A 
ATOM     19  N   UNL     1      43.607   3.180  12.935  0.00  0.00    +0.000 NA
ATOM     20  C   UNL     1      44.363   4.304  12.952  0.00  0.00    +0.000 A 
ATOM     21  C   UNL     1      44.952   4.754  11.768  0.00  0.00    +0.000 A 
ENDBRANCH  12  13
ENDBRANCH   4  12
TORSDOF 5
ENDMDL
MODEL 9
REMARK VINA RESULT:    -4.891      2.319      3.934
REMARK INTER + INTRA:          -6.800
REMARK INTER:                  -6.843
REMARK INTRA:                   0.043
REMARK UNBOUND:                -0.622
REMARK  Name = 
REMARK  5 active torsions:
REMARK  status: ('A' for Active; 'I' for Inactive)
REMARK    1  A    between atoms: N_1  and  C_2
REMARK    2  A    between atoms: C_2  and  C_3
REMARK    3  A    between atoms: C_3  and  N_4
REMARK    4  A    between atoms: C_7  and  C_8
REMARK    5  A    between atoms: C_8  and  N_9
REMARK                            x       y       z     vdW  Elec       q    Type
REMARK                         _______ _______ _______ _____ _____    ______ ____
ROOT
ATOM      1  N   UNL     1      48.182   8.027  13.802  0.00  0.00    +0.000 NA
ATOM      2  C   UNL     1      48.079   6.664  13.258  0.00  0.00    +0.000 C 
ATOM      3  C   UNL     1      47.586   6.654  11.810  0.00  0.00    +0.000 C 
ATOM      4  C   UNL     1      46.213   7.322  11.679  0.00  0.00    +0.000 C 
ATOM      5  C   UNL     1      46.374   8.759  12.209  0.00  0.00    +0.000 C 
ATOM      6  C   UNL     1      46.933   8.799  13.637  0.00  0.00    +0.000 C 
ENDROOT
BRANCH   1   7
ATOM      7  C   UNL     1      48.566   8.009  15.236  0.00  0.00    +0.000 C 
BRANCH   7   8
ATOM      8  C   UNL     1      48.906   6.613  15.809  0.00  0.00    +0.000 C 
BRANCH   8   9
ATOM      9  N   UNL     1      48.153   6.325  17.036  0.00  0.00    +0.000 NA
ATOM     10  H   UNL     1      47.616   5.469  16.898  0.00  0.00    +0.000 HD
ATOM     11  H   UNL     1      47.467   7.063  17.192  0.00  0.00    +0.000 HD
ENDBRANCH   8   9
ENDBRANCH   7   8
ENDBRANCH   1   7
BRANCH   4  12
ATOM     12  C   UNL     1      45.070   6.568  12.408  0.00  0.00    +0.000 C 
BRANCH  12  13
ATOM     13  N   UNL     1      44.835   5.192  11.974  0.00  0.00    +0.000 N 
ATOM     14  C   UNL     1      44.488   4.181  12.838  0.00  0.00    +0.000 A 
ATOM     15  C   UNL     1      44.307   3.034  12.105  0.00  0.00    +0.000 A 
ATOM     16  C   UNL     1      44.589   3.340  10.741  0.00  0.00    +0.000 A 
ATOM     17  C   UNL     1      44.563   2.591   9.556  0.00  0.00    +0.000 A 
ATOM     18  C   UNL     1      44.963   3.239   8.405  0.00  0.00    +0.000 A 
ATOM     19  N   UNL     1      45.398   4.517   8.361  0.00  0.00    +0.000 NA
ATOM     20  C   UNL     1      45.429   5.249   9.500  0.00  0.00    +0.000 A 
ATOM     21  C   UNL     1      44.981   4.680  10.694  0.00  0.00    +0.000 A 
ENDBRANCH  12  13
ENDBRANCH   4  12
TORSDOF 5
ENDMDL
