MODEL 1
REMARK VINA RESULT:    -9.928      0.000      0.000
REMARK INTER + INTRA:         -14.540
REMARK INTER:                 -13.411
REMARK INTRA:                  -1.130
REMARK UNBOUND:                -1.130
REMARK  Name = 
REMARK  6 active torsions:
REMARK  status: ('A' for Active; 'I' for Inactive)
REMARK    1  A    between atoms: C_2  and  C_4
REMARK    2  A    between atoms: C_7  and  O_8
REMARK    3  A    between atoms: O_8  and  C_9
REMARK    4  A    between atoms: C_9  and  C_10
REMARK    5  A    between atoms: C_10  and  C_13
REMARK    6  A    between atoms: C_17  and  C_18
REMARK                            x       y       z     vdW  Elec       q    Type
REMARK                         _______ _______ _______ _____ _____    ______ ____
ROOT
ATOM      1  C   UNL     1      43.377   5.272  12.227  0.00  0.00    +0.000 C 
ATOM      2  F   UNL     1      42.836   6.402  11.685  0.00  0.00    +0.000 F 
ATOM      3  F   UNL     1      42.625   5.001  13.334  0.00  0.00    +0.000 F 
ENDROOT
BRANCH   1   4
ATOM      4  C   UNL     1      44.842   5.472  12.583  0.00  0.00    +0.000 A 
ATOM      5  C   UNL     1      45.617   6.401  11.879  0.00  0.00    +0.000 A 
ATOM      6  C   UNL     1      46.952   6.605  12.218  0.00  0.00    +0.000 A 
ATOM      7  C   UNL     1      47.520   5.890  13.274  0.00  0.00    +0.000 A 
ATOM      8  C   UNL     1      46.776   4.952  14.015  0.00  0.00    +0.000 A 
ATOM      9  C   UNL     1      45.432   4.753  13.643  0.00  0.00    +0.000 A 
BRANCH   8  10
ATOM     10  C   UNL     1      47.388   4.249  15.160  0.00  0.00    +0.000 A 
ATOM     11  C   UNL     1      47.535   4.803  16.427  0.00  0.00    +0.000 A 
ATOM     12  C   UNL     1      48.172   4.068  17.422  0.00  0.00    +0.000 A 
ATOM     13  C   UNL     1      48.631   2.804  17.110  0.00  0.00    +0.000 A 
ATOM     14  N   UNL     1      48.473   2.268  15.888  0.00  0.00    +0.000 NA
ATOM     15  N   UNL     1      47.847   2.997  14.910  0.00  0.00    +0.000 NA
ENDBRANCH   8  10
ENDBRANCH   1   4
BRANCH   1  16
ATOM     16  C   UNL     1      43.220   4.116  11.222  0.00  0.00    +0.000 C 
BRANCH  16  17
ATOM     17  O   UNL     1      43.493   4.568   9.885  0.00  0.00    +0.000 OA
BRANCH  17  21
ATOM     18  C   UNL     1      46.338   2.284   7.857  0.00  0.00    +0.000 A 
ATOM     19  C   UNL     1      46.321   3.667   7.649  0.00  0.00    +0.000 A 
ATOM     20  C   UNL     1      45.385   4.469   8.314  0.00  0.00    +0.000 A 
ATOM     21  C   UNL     1      44.459   3.896   9.187  0.00  0.00    +0.000 A 
ATOM     22  C   UNL     1      44.474   2.513   9.386  0.00  0.00    +0.000 A 
ATOM     23  C   UNL     1      45.403   1.705   8.721  0.00  0.00    +0.000 A 
BRANCH  18  25
ATOM     24  N   UNL     1      48.367   2.007   6.539  0.00  0.00    +0.000 N 
ATOM     25  C   UNL     1      47.306   1.402   7.158  0.00  0.00    +0.000 C 
ATOM     26  O   UNL     1      47.187   0.184   7.157  0.00  0.00    +0.000 OA
ATOM     27  H   UNL     1      49.073   1.388   6.160  0.00  0.00    +0.000 HD
ATOM     28  H   UNL     1      48.638   2.957   6.737  0.00  0.00    +0.000 HD
ENDBRANCH  18  25
ENDBRANCH  17  21
ENDBRANCH  16  17
ENDBRANCH   1  16
TORSDOF 6
ENDMDL
MODEL 2
REMARK VINA RESULT:    -8.933      2.805      4.241
REMARK INTER + INTRA:         -13.196
REMARK INTER:                 -12.068
REMARK INTRA:                  -1.128
REMARK UNBOUND:                -1.130
REMARK  Name = 
REMARK  6 active torsions:
REMARK  status: ('A' for Active; 'I' for Inactive)
REMARK    1  A    between atoms: C_2  and  C_4
REMARK    2  A    between atoms: C_7  and  O_8
REMARK    3  A    between atoms: O_8  and  C_9
REMARK    4  A    between atoms: C_9  and  C_10
REMARK    5  A    between atoms: C_10  and  C_13
REMARK    6  A    between atoms: C_17  and  C_18
REMARK                            x       y       z     vdW  Elec       q    Type
REMARK                         _______ _______ _______ _____ _____    ______ ____
ROOT
ATOM      1  C   UNL     1      43.359   4.464  12.678  0.00  0.00    +0.000 C 
ATOM      2  F   UNL     1      42.332   5.327  12.419  0.00  0.00    +0.000 F 
ATOM      3  F   UNL     1      43.014   3.820  13.832  0.00  0.00    +0.000 F 
ENDROOT
BRANCH   1   4
ATOM      4  C   UNL     1      44.680   5.202  12.826  0.00  0.00    +0.000 A 
ATOM      5  C   UNL     1      45.830   4.513  13.228  0.00  0.00    +0.000 A 
ATOM      6  C   UNL     1      47.047   5.180  13.341  0.00  0.00    +0.000 A 
ATOM      7  C   UNL     1      47.128   6.540  13.039  0.00  0.00    +0.000 A 
ATOM      8  C   UNL     1      45.999   7.272  12.623  0.00  0.00    +0.000 A 
ATOM      9  C   UNL     1      44.776   6.577  12.531  0.00  0.00    +0.000 A 
BRANCH   8  10
ATOM     10  C   UNL     1      46.123   8.698  12.260  0.00  0.00    +0.000 A 
ATOM     11  C   UNL     1      47.332   9.382  12.195  0.00  0.00    +0.000 A 
ATOM     12  C   UNL     1      47.330  10.740  11.891  0.00  0.00    +0.000 A 
ATOM     13  C   UNL     1      46.118  11.357  11.659  0.00  0.00    +0.000 A 
ATOM     14  N   UNL     1      44.954  10.687  11.708  0.00  0.00    +0.000 NA
ATOM     15  N   UNL     1      44.961   9.349  12.010  0.00  0.00    +0.000 NA
ENDBRANCH   8  10
ENDBRANCH   1   4
BRANCH   1  16
ATOM     16  C   UNL     1      43.441   3.434  11.537  0.00  0.00    +0.000 C 
BRANCH  16  17
ATOM     17  O   UNL     1      43.667   4.091  10.278  0.00  0.00    +0.000 OA
BRANCH  17  21
ATOM     18  C   UNL     1      46.515   2.594   7.620  0.00  0.00    +0.000 A 
ATOM     19  C   UNL     1      45.824   1.692   8.435  0.00  0.00    +0.000 A 
ATOM     20  C   UNL     1      44.857   2.154   9.336  0.00  0.00    +0.000 A 
ATOM     21  C   UNL     1      44.577   3.518   9.433  0.00  0.00    +0.000 A 
ATOM     22  C   UNL     1      45.275   4.417   8.622  0.00  0.00    +0.000 A 
ATOM     23  C   UNL     1      46.246   3.962   7.723  0.00  0.00    +0.000 A 
BRANCH  18  25
ATOM     24  N   UNL     1      47.918   3.018   5.674  0.00  0.00    +0.000 N 
ATOM     25  C   UNL     1      47.556   2.142   6.662  0.00  0.00    +0.000 C 
ATOM     26  O   UNL     1      48.096   1.049   6.764  0.00  0.00    +0.000 OA
ATOM     27  H   UNL     1      48.701   2.738   5.097  0.00  0.00    +0.000 HD
ATOM     28  H   UNL     1      47.696   4.000   5.714  0.00  0.00    +0.000 HD
ENDBRANCH  18  25
ENDBRANCH  17  21
ENDBRANCH  16  17
ENDBRANCH   1  16
TORSDOF 6
ENDMDL
MODEL 3
REMARK VINA RESULT:    -8.639      1.878      2.379
REMARK INTER + INTRA:         -12.800
REMARK INTER:                 -11.740
REMARK INTRA:                  -1.060
REMARK UNBOUND:                -1.130
REMARK  Name = 
REMARK  6 active torsions:
REMARK  status: ('A' for Active; 'I' for Inactive)
REMARK    1  A    between atoms: C_2  and  C_4
REMARK    2  A    between atoms: C_7  and  O_8
REMARK    3  A    between atoms: O_8  and  C_9
REMARK    4  A    between atoms: C_9  and  C_10
REMARK    5  A    between atoms: C_10  and  C_13
REMARK    6  A    between atoms: C_17  and  C_18
REMARK                            x       y       z     vdW  Elec       q    Type
REMARK                         _______ _______ _______ _____ _____    ______ ____
ROOT
ATOM      1  C   UNL     1      44.224   4.724  12.290  0.00  0.00    +0.000 C 
ATOM      2  F   UNL     1      43.216   4.844  13.204  0.00  0.00    +0.000 F 
ATOM      3  F   UNL     1      44.812   3.520  12.550  0.00  0.00    +0.000 F 
ENDROOT
BRANCH   1   4
ATOM      4  C   UNL     1      45.220   5.868  12.407  0.00  0.00    +0.000 A 
ATOM      5  C   UNL     1      45.033   7.042  11.667  0.00  0.00    +0.000 A 
ATOM      6  C   UNL     1      45.930   8.100  11.789  0.00  0.00    +0.000 A 
ATOM      7  C   UNL     1      47.013   7.999  12.664  0.00  0.00    +0.000 A 
ATOM      8  C   UNL     1      47.234   6.841  13.434  0.00  0.00    +0.000 A 
ATOM      9  C   UNL     1      46.322   5.778  13.281  0.00  0.00    +0.000 A 
BRANCH   8  10
ATOM     10  C   UNL     1      48.358   6.782  14.390  0.00  0.00    +0.000 A 
ATOM     11  C   UNL     1      49.448   7.645  14.365  0.00  0.00    +0.000 A 
ATOM     12  C   UNL     1      50.478   7.468  15.284  0.00  0.00    +0.000 A 
ATOM     13  C   UNL     1      50.373   6.436  16.194  0.00  0.00    +0.000 A 
ATOM     14  N   UNL     1      49.310   5.615  16.224  0.00  0.00    +0.000 NA
ATOM     15  N   UNL     1      48.298   5.792  15.315  0.00  0.00    +0.000 NA
ENDBRANCH   8  10
ENDBRANCH   1   4
BRANCH   1  16
ATOM     16  C   UNL     1      43.610   4.686  10.878  0.00  0.00    +0.000 C 
BRANCH  16  17
ATOM     17  O   UNL     1      43.573   3.339  10.379  0.00  0.00    +0.000 OA
BRANCH  17  21
ATOM     18  C   UNL     1      46.449   2.569   7.453  0.00  0.00    +0.000 A 
ATOM     19  C   UNL     1      45.970   1.499   8.216  0.00  0.00    +0.000 A 
ATOM     20  C   UNL     1      45.001   1.715   9.204  0.00  0.00    +0.000 A 
ATOM     21  C   UNL     1      44.508   2.999   9.440  0.00  0.00    +0.000 A 
ATOM     22  C   UNL     1      44.995   4.067   8.681  0.00  0.00    +0.000 A 
ATOM     23  C   UNL     1      45.966   3.858   7.695  0.00  0.00    +0.000 A 
BRANCH  18  25
ATOM     24  N   UNL     1      47.454   3.230   5.335  0.00  0.00    +0.000 N 
ATOM     25  C   UNL     1      47.486   2.379   6.407  0.00  0.00    +0.000 C 
ATOM     26  O   UNL     1      48.354   1.523   6.506  0.00  0.00    +0.000 OA
ATOM     27  H   UNL     1      48.227   3.157   4.686  0.00  0.00    +0.000 HD
ATOM     28  H   UNL     1      46.933   4.093   5.346  0.00  0.00    +0.000 HD
ENDBRANCH  18  25
ENDBRANCH  17  21
ENDBRANCH  16  17
ENDBRANCH   1  16
TORSDOF 6
ENDMDL
MODEL 4
REMARK VINA RESULT:    -8.571      2.166      3.319
REMARK INTER + INTRA:         -12.707
REMARK INTER:                 -11.538
REMARK INTRA:                  -1.169
REMARK UNBOUND:                -1.130
REMARK  Name = 
REMARK  6 active torsions:
REMARK  status: ('A' for Active; 'I' for Inactive)
REMARK    1  A    between atoms: C_2  and  C_4
REMARK    2  A    between atoms: C_7  and  O_8
REMARK    3  A    between atoms: O_8  and  C_9
REMARK    4  A    between atoms: C_9  and  C_10
REMARK    5  A    between atoms: C_10  and  C_13
REMARK    6  A    between atoms: C_17  and  C_18
REMARK                            x       y       z     vdW  Elec       q    Type
REMARK                         _______ _______ _______ _____ _____    ______ ____
ROOT
ATOM      1  C   UNL     1      43.490   5.554  12.058  0.00  0.00    +0.000 C 
ATOM      2  F   UNL     1      43.303   6.724  11.378  0.00  0.00    +0.000 F 
ATOM      3  F   UNL     1      42.562   5.560  13.059  0.00  0.00    +0.000 F 
ENDROOT
BRANCH   1   4
ATOM      4  C   UNL     1      44.904   5.452  12.609  0.00  0.00    +0.000 A 
ATOM      5  C   UNL     1      45.368   4.240  13.134  0.00  0.00    +0.000 A 
ATOM      6  C   UNL     1      46.669   4.136  13.618  0.00  0.00    +0.000 A 
ATOM      7  C   UNL     1      47.523   5.239  13.568  0.00  0.00    +0.000 A 
ATOM      8  C   UNL     1      47.102   6.474  13.040  0.00  0.00    +0.000 A 
ATOM      9  C   UNL     1      45.776   6.559  12.571  0.00  0.00    +0.000 A 
BRANCH   8  10
ATOM     10  C   UNL     1      48.042   7.610  12.951  0.00  0.00    +0.000 A 
ATOM     11  C   UNL     1      48.277   8.337  11.789  0.00  0.00    +0.000 A 
ATOM     12  C   UNL     1      49.222   9.358  11.806  0.00  0.00    +0.000 A 
ATOM     13  C   UNL     1      49.890   9.614  12.986  0.00  0.00    +0.000 A 
ATOM     14  N   UNL     1      49.646   8.919  14.110  0.00  0.00    +0.000 NA
ATOM     15  N   UNL     1      48.716   7.911  14.089  0.00  0.00    +0.000 NA
ENDBRANCH   8  10
ENDBRANCH   1   4
BRANCH   1  16
ATOM     16  C   UNL     1      43.195   4.378  11.110  0.00  0.00    +0.000 C 
BRANCH  16  17
ATOM     17  O   UNL     1      43.543   4.718   9.757  0.00  0.00    +0.000 OA
BRANCH  17  21
ATOM     18  C   UNL     1      46.235   2.077   7.969  0.00  0.00    +0.000 A 
ATOM     19  C   UNL     1      46.346   3.441   7.680  0.00  0.00    +0.000 A 
ATOM     20  C   UNL     1      45.465   4.360   8.263  0.00  0.00    +0.000 A 
ATOM     21  C   UNL     1      44.467   3.923   9.135  0.00  0.00    +0.000 A 
ATOM     22  C   UNL     1      44.354   2.559   9.416  0.00  0.00    +0.000 A 
ATOM     23  C   UNL     1      45.228   1.635   8.833  0.00  0.00    +0.000 A 
BRANCH  18  25
ATOM     24  N   UNL     1      46.906  -0.244   7.653  0.00  0.00    +0.000 N 
ATOM     25  C   UNL     1      47.143   1.073   7.358  0.00  0.00    +0.000 C 
ATOM     26  O   UNL     1      48.045   1.395   6.597  0.00  0.00    +0.000 OA
ATOM     27  H   UNL     1      47.464  -0.920   7.147  0.00  0.00    +0.000 HD
ATOM     28  H   UNL     1      46.035  -0.560   8.050  0.00  0.00    +0.000 HD
ENDBRANCH  18  25
ENDBRANCH  17  21
ENDBRANCH  16  17
ENDBRANCH   1  16
TORSDOF 6
ENDMDL
MODEL 5
REMARK VINA RESULT:    -7.758      3.187      4.118
REMARK INTER + INTRA:         -11.609
REMARK INTER:                 -10.673
REMARK INTRA:                  -0.936
REMARK UNBOUND:                -1.130
REMARK  Name = 
REMARK  6 active torsions:
REMARK  status: ('A' for Active; 'I' for Inactive)
REMARK    1  A    between atoms: C_2  and  C_4
REMARK    2  A    between atoms: C_7  and  O_8
REMARK    3  A    between atoms: O_8  and  C_9
REMARK    4  A    between atoms: C_9  and  C_10
REMARK    5  A    between atoms: C_10  and  C_13
REMARK    6  A    between atoms: C_17  and  C_18
REMARK                            x       y       z     vdW  Elec       q    Type
REMARK                         _______ _______ _______ _____ _____    ______ ____
ROOT
ATOM      1  C   UNL     1      45.199   5.632  12.214  0.00  0.00    +0.000 C 
ATOM      2  F   UNL     1      44.403   5.488  13.315  0.00  0.00    +0.000 F 
ATOM      3  F   UNL     1      46.091   4.600  12.270  0.00  0.00    +0.000 F 
ENDROOT
BRANCH   1   4
ATOM      4  C   UNL     1      45.905   6.979  12.211  0.00  0.00    +0.000 A 
ATOM      5  C   UNL     1      45.169   8.159  12.372  0.00  0.00    +0.000 A 
ATOM      6  C   UNL     1      45.813   9.393  12.394  0.00  0.00    +0.000 A 
ATOM      7  C   UNL     1      47.202   9.457  12.269  0.00  0.00    +0.000 A 
ATOM      8  C   UNL     1      47.983   8.295  12.115  0.00  0.00    +0.000 A 
ATOM      9  C   UNL     1      47.306   7.060  12.080  0.00  0.00    +0.000 A 
BRANCH   8  10
ATOM     10  C   UNL     1      49.455   8.388  12.037  0.00  0.00    +0.000 A 
ATOM     11  C   UNL     1      50.224   7.760  11.064  0.00  0.00    +0.000 A 
ATOM     12  C   UNL     1      51.610   7.874  11.114  0.00  0.00    +0.000 A 
ATOM     13  C   UNL     1      52.170   8.616  12.133  0.00  0.00    +0.000 A 
ATOM     14  N   UNL     1      51.421   9.234  13.062  0.00  0.00    +0.000 NA
ATOM     15  N   UNL     1      50.055   9.117  13.011  0.00  0.00    +0.000 NA
ENDBRANCH   8  10
ENDBRANCH   1   4
BRANCH   1  16
ATOM     16  C   UNL     1      44.332   5.475  10.952  0.00  0.00    +0.000 C 
BRANCH  16  17
ATOM     17  O   UNL     1      44.110   4.085  10.660  0.00  0.00    +0.000 OA
BRANCH  17  21
ATOM     18  C   UNL     1      46.442   2.666   7.503  0.00  0.00    +0.000 A 
ATOM     19  C   UNL     1      45.854   1.737   8.368  0.00  0.00    +0.000 A 
ATOM     20  C   UNL     1      45.061   2.173   9.436  0.00  0.00    +0.000 A 
ATOM     21  C   UNL     1      44.852   3.537   9.650  0.00  0.00    +0.000 A 
ATOM     22  C   UNL     1      45.448   4.461   8.788  0.00  0.00    +0.000 A 
ATOM     23  C   UNL     1      46.246   4.033   7.722  0.00  0.00    +0.000 A 
BRANCH  18  25
ATOM     24  N   UNL     1      47.211   2.968   5.211  0.00  0.00    +0.000 N 
ATOM     25  C   UNL     1      47.301   2.241   6.368  0.00  0.00    +0.000 C 
ATOM     26  O   UNL     1      48.081   1.304   6.464  0.00  0.00    +0.000 OA
ATOM     27  H   UNL     1      47.877   2.733   4.486  0.00  0.00    +0.000 HD
ATOM     28  H   UNL     1      46.790   3.883   5.179  0.00  0.00    +0.000 HD
ENDBRANCH  18  25
ENDBRANCH  17  21
ENDBRANCH  16  17
ENDBRANCH   1  16
TORSDOF 6
ENDMDL
MODEL 6
REMARK VINA RESULT:    -7.709      2.566      7.352
REMARK INTER + INTRA:         -11.543
REMARK INTER:                 -10.711
REMARK INTRA:                  -0.832
REMARK UNBOUND:                -1.130
REMARK  Name = 
REMARK  6 active torsions:
REMARK  status: ('A' for Active; 'I' for Inactive)
REMARK    1  A    between atoms: C_2  and  C_4
REMARK    2  A    between atoms: C_7  and  O_8
REMARK    3  A    between atoms: O_8  and  C_9
REMARK    4  A    between atoms: C_9  and  C_10
REMARK    5  A    between atoms: C_10  and  C_13
REMARK    6  A    between atoms: C_17  and  C_18
REMARK                            x       y       z     vdW  Elec       q    Type
REMARK                         _______ _______ _______ _____ _____    ______ ____
ROOT
ATOM      1  C   UNL     1      44.475   6.298  11.953  0.00  0.00    +0.000 C 
ATOM      2  F   UNL     1      44.074   6.284  13.258  0.00  0.00    +0.000 F 
ATOM      3  F   UNL     1      43.651   7.187  11.325  0.00  0.00    +0.000 F 
ENDROOT
BRANCH   1   4
ATOM      4  C   UNL     1      44.382   4.914  11.328  0.00  0.00    +0.000 A 
ATOM      5  C   UNL     1      43.517   3.955  11.869  0.00  0.00    +0.000 A 
ATOM      6  C   UNL     1      43.411   2.696  11.286  0.00  0.00    +0.000 A 
ATOM      7  C   UNL     1      44.157   2.389  10.147  0.00  0.00    +0.000 A 
ATOM      8  C   UNL     1      45.032   3.325   9.563  0.00  0.00    +0.000 A 
ATOM      9  C   UNL     1      45.134   4.588  10.182  0.00  0.00    +0.000 A 
BRANCH   8  10
ATOM     10  C   UNL     1      45.771   2.992   8.329  0.00  0.00    +0.000 A 
ATOM     11  C   UNL     1      46.320   1.742   8.064  0.00  0.00    +0.000 A 
ATOM     12  C   UNL     1      47.040   1.551   6.888  0.00  0.00    +0.000 A 
ATOM     13  C   UNL     1      47.177   2.618   6.023  0.00  0.00    +0.000 A 
ATOM     14  N   UNL     1      46.631   3.819   6.278  0.00  0.00    +0.000 NA
ATOM     15  N   UNL     1      45.923   4.003   7.438  0.00  0.00    +0.000 NA
ENDBRANCH   8  10
ENDBRANCH   1   4
BRANCH   1  16
ATOM     16  C   UNL     1      45.921   6.823  11.885  0.00  0.00    +0.000 C 
BRANCH  16  17
ATOM     17  O   UNL     1      46.857   5.765  12.149  0.00  0.00    +0.000 OA
BRANCH  17  21
ATOM     18  C   UNL     1      47.895   4.963  16.111  0.00  0.00    +0.000 A 
ATOM     19  C   UNL     1      48.357   6.147  15.527  0.00  0.00    +0.000 A 
ATOM     20  C   UNL     1      48.026   6.455  14.202  0.00  0.00    +0.000 A 
ATOM     21  C   UNL     1      47.237   5.583  13.450  0.00  0.00    +0.000 A 
ATOM     22  C   UNL     1      46.785   4.396  14.035  0.00  0.00    +0.000 A 
ATOM     23  C   UNL     1      47.116   4.081  15.357  0.00  0.00    +0.000 A 
BRANCH  18  25
ATOM     24  N   UNL     1      47.257   4.749  18.452  0.00  0.00    +0.000 N 
ATOM     25  C   UNL     1      48.238   4.597  17.509  0.00  0.00    +0.000 C 
ATOM     26  O   UNL     1      49.335   4.147  17.809  0.00  0.00    +0.000 OA
ATOM     27  H   UNL     1      47.470   4.397  19.377  0.00  0.00    +0.000 HD
ATOM     28  H   UNL     1      46.285   4.861  18.208  0.00  0.00    +0.000 HD
ENDBRANCH  18  25
ENDBRANCH  17  21
ENDBRANCH  16  17
ENDBRANCH   1  16
TORSDOF 6
ENDMDL
MODEL 7
REMARK VINA RESULT:    -7.424      3.117      7.414
REMARK INTER + INTRA:         -11.158
REMARK INTER:                  -9.875
REMARK INTRA:                  -1.282
REMARK UNBOUND:                -1.130
REMARK  Name = 
REMARK  6 active torsions:
REMARK  status: ('A' for Active; 'I' for Inactive)
REMARK    1  A    between atoms: C_2  and  C_4
REMARK    2  A    between atoms: C_7  and  O_8
REMARK    3  A    between atoms: O_8  and  C_9
REMARK    4  A    between atoms: C_9  and  C_10
REMARK    5  A    between atoms: C_10  and  C_13
REMARK    6  A    between atoms: C_17  and  C_18
REMARK                            x       y       z     vdW  Elec       q    Type
REMARK                         _______ _______ _______ _____ _____    ______ ____
ROOT
ATOM      1  C   UNL     1      46.777   8.293  12.137  0.00  0.00    +0.000 C 
ATOM      2  F   UNL     1      46.193   9.495  11.856  0.00  0.00    +0.000 F 
ATOM      3  F   UNL     1      47.909   8.248  11.374  0.00  0.00    +0.000 F 
ENDROOT
BRANCH   1   4
ATOM      4  C   UNL     1      45.844   7.134  11.818  0.00  0.00    +0.000 A 
ATOM      5  C   UNL     1      44.654   6.972  12.536  0.00  0.00    +0.000 A 
ATOM      6  C   UNL     1      43.786   5.926  12.231  0.00  0.00    +0.000 A 
ATOM      7  C   UNL     1      44.094   5.043  11.195  0.00  0.00    +0.000 A 
ATOM      8  C   UNL     1      45.275   5.174  10.441  0.00  0.00    +0.000 A 
ATOM      9  C   UNL     1      46.145   6.230  10.779  0.00  0.00    +0.000 A 
BRANCH   8  10
ATOM     10  C   UNL     1      45.551   4.257   9.317  0.00  0.00    +0.000 A 
ATOM     11  C   UNL     1      45.306   2.888   9.351  0.00  0.00    +0.000 A 
ATOM     12  C   UNL     1      45.651   2.108   8.251  0.00  0.00    +0.000 A 
ATOM     13  C   UNL     1      46.222   2.731   7.160  0.00  0.00    +0.000 A 
ATOM     14  N   UNL     1      46.442   4.056   7.127  0.00  0.00    +0.000 NA
ATOM     15  N   UNL     1      46.103   4.821   8.214  0.00  0.00    +0.000 NA
ENDBRANCH   8  10
ENDBRANCH   1   4
BRANCH   1  16
ATOM     16  C   UNL     1      47.175   8.271  13.624  0.00  0.00    +0.000 C 
BRANCH  16  17
ATOM     17  O   UNL     1      48.288   7.386  13.836  0.00  0.00    +0.000 OA
BRANCH  17  21
ATOM     18  C   UNL     1      47.817   4.264  16.566  0.00  0.00    +0.000 A 
ATOM     19  C   UNL     1      47.144   4.188  15.342  0.00  0.00    +0.000 A 
ATOM     20  C   UNL     1      47.279   5.212  14.397  0.00  0.00    +0.000 A 
ATOM     21  C   UNL     1      48.084   6.320  14.669  0.00  0.00    +0.000 A 
ATOM     22  C   UNL     1      48.749   6.396  15.896  0.00  0.00    +0.000 A 
ATOM     23  C   UNL     1      48.613   5.378  16.846  0.00  0.00    +0.000 A 
BRANCH  18  25
ATOM     24  N   UNL     1      48.731   3.044  18.466  0.00  0.00    +0.000 N 
ATOM     25  C   UNL     1      47.685   3.203  17.596  0.00  0.00    +0.000 C 
ATOM     26  O   UNL     1      46.676   2.518  17.693  0.00  0.00    +0.000 OA
ATOM     27  H   UNL     1      48.582   2.392  19.226  0.00  0.00    +0.000 HD
ATOM     28  H   UNL     1      49.446   3.744  18.585  0.00  0.00    +0.000 HD
ENDBRANCH  18  25
ENDBRANCH  17  21
ENDBRANCH  16  17
ENDBRANCH   1  16
TORSDOF 6
ENDMDL
