MODEL 1
REMARK VINA RESULT:    -8.130      0.000      0.000
REMARK INTER + INTRA:         -11.215
REMARK INTER:                 -10.744
REMARK INTRA:                  -0.471
REMARK UNBOUND:                -0.471
REMARK  Name = 
REMARK  6 active torsions:
REMARK  status: ('A' for Active; 'I' for Inactive)
REMARK    1  A    between atoms: N_1  and  C_2
REMARK    2  A    between atoms: C_2  and  C_3
REMARK    3  A    between atoms: C_3  and  C_4
REMARK    4  A    between atoms: C_7  and  C_8
REMARK    5  A    between atoms: C_8  and  N_9
REMARK    6  A    between atoms: C_14  and  C_15
REMARK                            x       y       z     vdW  Elec       q    Type
REMARK                         _______ _______ _______ _____ _____    ______ ____
ROOT
ATOM      1  N   UNL     1      43.623   4.044  12.173  0.00  0.00    +0.000 N 
ATOM      2  N   UNL     1      42.800   5.110  12.063  0.00  0.00    +0.000 NA
ATOM      3  N   UNL     1      43.536   6.190  12.260  0.00  0.00    +0.000 NA
ATOM      4  C   UNL     1      44.796   5.789  12.607  0.00  0.00    +0.000 A 
ATOM      5  C   UNL     1      45.967   6.525  12.809  0.00  0.00    +0.000 A 
ATOM      6  C   UNL     1      47.140   5.846  13.179  0.00  0.00    +0.000 A 
ATOM      7  C   UNL     1      47.111   4.460  13.407  0.00  0.00    +0.000 A 
ATOM      8  C   UNL     1      45.954   3.703  13.170  0.00  0.00    +0.000 A 
ATOM      9  C   UNL     1      44.829   4.404  12.724  0.00  0.00    +0.000 A 
ENDROOT
BRANCH   6  10
ATOM     10  C   UNL     1      48.385   6.662  13.258  0.00  0.00    +0.000 C 
ATOM     11  N   UNL     1      48.698   7.500  12.230  0.00  0.00    +0.000 N 
ATOM     12  O   UNL     1      49.124   6.605  14.238  0.00  0.00    +0.000 OA
ATOM     13  H   UNL     1      48.183   7.597  11.371  0.00  0.00    +0.000 HD
ATOM     14  H   UNL     1      49.545   8.043  12.340  0.00  0.00    +0.000 HD
ENDBRANCH   6  10
BRANCH   1  15
ATOM     15  C   UNL     1      43.364   2.871  11.347  0.00  0.00    +0.000 C 
BRANCH  15  19
ATOM     16  C   UNL     1      45.868   3.174   7.815  0.00  0.00    +0.000 A 
ATOM     17  C   UNL     1      45.654   1.934   8.429  0.00  0.00    +0.000 A 
ATOM     18  C   UNL     1      44.815   1.825   9.543  0.00  0.00    +0.000 A 
ATOM     19  C   UNL     1      44.172   2.955  10.066  0.00  0.00    +0.000 A 
ATOM     20  C   UNL     1      44.381   4.195   9.441  0.00  0.00    +0.000 A 
ATOM     21  C   UNL     1      45.217   4.302   8.325  0.00  0.00    +0.000 A 
BRANCH  16  22
ATOM     22  C   UNL     1      46.784   3.295   6.619  0.00  0.00    +0.000 C 
BRANCH  22  23
ATOM     23  C   UNL     1      48.044   2.438   6.775  0.00  0.00    +0.000 C 
BRANCH  23  24
ATOM     24  N   UNL     1      48.461   1.867   5.495  0.00  0.00    +0.000 NA
ATOM     25  H   UNL     1      48.365   2.573   4.765  0.00  0.00    +0.000 HD
ATOM     26  H   UNL     1      47.838   1.103   5.238  0.00  0.00    +0.000 HD
ENDBRANCH  23  24
ENDBRANCH  22  23
ENDBRANCH  16  22
ENDBRANCH  15  19
ENDBRANCH   1  15
TORSDOF 6
ENDMDL
MODEL 2
REMARK VINA RESULT:    -8.121      2.515      6.169
REMARK INTER + INTRA:         -11.204
REMARK INTER:                 -10.415
REMARK INTRA:                  -0.788
REMARK UNBOUND:                -0.471
REMARK  Name = 
REMARK  6 active torsions:
REMARK  status: ('A' for Active; 'I' for Inactive)
REMARK    1  A    between atoms: N_1  and  C_2
REMARK    2  A    between atoms: C_2  and  C_3
REMARK    3  A    between atoms: C_3  and  C_4
REMARK    4  A    between atoms: C_7  and  C_8
REMARK    5  A    between atoms: C_8  and  N_9
REMARK    6  A    between atoms: C_14  and  C_15
REMARK                            x       y       z     vdW  Elec       q    Type
REMARK                         _______ _______ _______ _____ _____    ______ ____
ROOT
ATOM      1  N   UNL     1      43.494   4.271  10.558  0.00  0.00    +0.000 N 
ATOM      2  N   UNL     1      42.989   3.247  11.281  0.00  0.00    +0.000 NA
ATOM      3  N   UNL     1      43.604   2.147  10.878  0.00  0.00    +0.000 NA
ATOM      4  C   UNL     1      44.409   2.473   9.823  0.00  0.00    +0.000 A 
ATOM      5  C   UNL     1      45.343   1.710   9.115  0.00  0.00    +0.000 A 
ATOM      6  C   UNL     1      46.033   2.303   8.046  0.00  0.00    +0.000 A 
ATOM      7  C   UNL     1      45.736   3.621   7.657  0.00  0.00    +0.000 A 
ATOM      8  C   UNL     1      44.830   4.411   8.381  0.00  0.00    +0.000 A 
ATOM      9  C   UNL     1      44.224   3.810   9.489  0.00  0.00    +0.000 A 
ENDROOT
BRANCH   6  10
ATOM     10  C   UNL     1      47.105   1.485   7.409  0.00  0.00    +0.000 C 
ATOM     11  N   UNL     1      48.181   2.113   6.856  0.00  0.00    +0.000 N 
ATOM     12  O   UNL     1      47.044   0.258   7.389  0.00  0.00    +0.000 OA
ATOM     13  H   UNL     1      48.312   3.108   6.789  0.00  0.00    +0.000 HD
ATOM     14  H   UNL     1      48.888   1.513   6.451  0.00  0.00    +0.000 HD
ENDBRANCH   6  10
BRANCH   1  15
ATOM     15  C   UNL     1      43.612   5.580  11.187  0.00  0.00    +0.000 C 
BRANCH  15  19
ATOM     16  C   UNL     1      47.530   6.277  12.921  0.00  0.00    +0.000 A 
ATOM     17  C   UNL     1      46.640   5.375  13.516  0.00  0.00    +0.000 A 
ATOM     18  C   UNL     1      45.393   5.116  12.939  0.00  0.00    +0.000 A 
ATOM     19  C   UNL     1      45.010   5.756  11.752  0.00  0.00    +0.000 A 
ATOM     20  C   UNL     1      45.909   6.652  11.152  0.00  0.00    +0.000 A 
ATOM     21  C   UNL     1      47.157   6.906  11.728  0.00  0.00    +0.000 A 
BRANCH  16  22
ATOM     22  C   UNL     1      48.873   6.566  13.550  0.00  0.00    +0.000 C 
BRANCH  22  23
ATOM     23  C   UNL     1      48.740   6.960  15.025  0.00  0.00    +0.000 C 
BRANCH  23  24
ATOM     24  N   UNL     1      49.671   6.206  15.863  0.00  0.00    +0.000 NA
ATOM     25  H   UNL     1      50.582   6.664  15.849  0.00  0.00    +0.000 HD
ATOM     26  H   UNL     1      49.813   5.276  15.472  0.00  0.00    +0.000 HD
ENDBRANCH  23  24
ENDBRANCH  22  23
ENDBRANCH  16  22
ENDBRANCH  15  19
ENDBRANCH   1  15
TORSDOF 6
ENDMDL
MODEL 3
REMARK VINA RESULT:    -7.617      1.845      2.409
REMARK INTER + INTRA:         -10.537
REMARK INTER:                 -10.006
REMARK INTRA:                  -0.532
REMARK UNBOUND:                -0.471
REMARK  Name = 
REMARK  6 active torsions:
REMARK  status: ('A' for Active; 'I' for Inactive)
REMARK    1  A    between atoms: N_1  and  C_2
REMARK    2  A    between atoms: C_2  and  C_3
REMARK    3  A    between atoms: C_3  and  C_4
REMARK    4  A    between atoms: C_7  and  C_8
REMARK    5  A    between atoms: C_8  and  N_9
REMARK    6  A    between atoms: C_14  and  C_15
REMARK                            x       y       z     vdW  Elec       q    Type
REMARK                         _______ _______ _______ _____ _____    ______ ____
ROOT
ATOM      1  N   UNL     1      45.899   4.442  12.448  0.00  0.00    +0.000 N 
ATOM      2  N   UNL     1      46.040   3.507  13.414  0.00  0.00    +0.000 NA
ATOM      3  N   UNL     1      46.708   4.072  14.406  0.00  0.00    +0.000 NA
ATOM      4  C   UNL     1      47.084   5.324  14.006  0.00  0.00    +0.000 A 
ATOM      5  C   UNL     1      47.706   6.360  14.709  0.00  0.00    +0.000 A 
ATOM      6  C   UNL     1      47.994   7.559  14.037  0.00  0.00    +0.000 A 
ATOM      7  C   UNL     1      47.721   7.682  12.663  0.00  0.00    +0.000 A 
ATOM      8  C   UNL     1      47.063   6.666  11.954  0.00  0.00    +0.000 A 
ATOM      9  C   UNL     1      46.719   5.520  12.679  0.00  0.00    +0.000 A 
ENDROOT
BRANCH   6  10
ATOM     10  C   UNL     1      48.540   8.673  14.864  0.00  0.00    +0.000 C 
ATOM     11  N   UNL     1      47.780   9.188  15.871  0.00  0.00    +0.000 N 
ATOM     12  O   UNL     1      49.667   9.121  14.666  0.00  0.00    +0.000 OA
ATOM     13  H   UNL     1      46.838   8.918  16.095  0.00  0.00    +0.000 HD
ATOM     14  H   UNL     1      48.203   9.931  16.413  0.00  0.00    +0.000 HD
ENDBRANCH   6  10
BRANCH   1  15
ATOM     15  C   UNL     1      44.690   4.432  11.634  0.00  0.00    +0.000 C 
BRANCH  15  19
ATOM     16  C   UNL     1      45.873   3.120   7.670  0.00  0.00    +0.000 A 
ATOM     17  C   UNL     1      45.362   2.204   8.597  0.00  0.00    +0.000 A 
ATOM     18  C   UNL     1      44.942   2.629   9.862  0.00  0.00    +0.000 A 
ATOM     19  C   UNL     1      45.023   3.980  10.224  0.00  0.00    +0.000 A 
ATOM     20  C   UNL     1      45.526   4.897   9.287  0.00  0.00    +0.000 A 
ATOM     21  C   UNL     1      45.942   4.472   8.023  0.00  0.00    +0.000 A 
BRANCH  16  22
ATOM     22  C   UNL     1      46.339   2.660   6.307  0.00  0.00    +0.000 C 
BRANCH  22  23
ATOM     23  C   UNL     1      47.368   1.530   6.407  0.00  0.00    +0.000 C 
BRANCH  23  24
ATOM     24  N   UNL     1      48.592   1.859   5.678  0.00  0.00    +0.000 NA
ATOM     25  H   UNL     1      49.369   1.918   6.336  0.00  0.00    +0.000 HD
ATOM     26  H   UNL     1      48.505   2.783   5.256  0.00  0.00    +0.000 HD
ENDBRANCH  23  24
ENDBRANCH  22  23
ENDBRANCH  16  22
ENDBRANCH  15  19
ENDBRANCH   1  15
TORSDOF 6
ENDMDL
MODEL 4
REMARK VINA RESULT:    -6.760      2.377      5.720
REMARK INTER + INTRA:          -9.404
REMARK INTER:                  -8.553
REMARK INTRA:                  -0.851
REMARK UNBOUND:                -0.471
REMARK  Name = 
REMARK  6 active torsions:
REMARK  status: ('A' for Active; 'I' for Inactive)
REMARK    1  A    between atoms: N_1  and  C_2
REMARK    2  A    between atoms: C_2  and  C_3
REMARK    3  A    between atoms: C_3  and  C_4
REMARK    4  A    between atoms: C_7  and  C_8
REMARK    5  A    between atoms: C_8  and  N_9
REMARK    6  A    between atoms: C_14  and  C_15
REMARK                            x       y       z     vdW  Elec       q    Type
REMARK                         _______ _______ _______ _____ _____    ______ ____
ROOT
ATOM      1  N   UNL     1      43.591   4.675  12.246  0.00  0.00    +0.000 N 
ATOM      2  N   UNL     1      43.409   3.602  13.046  0.00  0.00    +0.000 NA
ATOM      3  N   UNL     1      43.886   2.551  12.400  0.00  0.00    +0.000 NA
ATOM      4  C   UNL     1      44.260   2.955  11.149  0.00  0.00    +0.000 A 
ATOM      5  C   UNL     1      44.918   2.268  10.125  0.00  0.00    +0.000 A 
ATOM      6  C   UNL     1      45.170   2.934   8.914  0.00  0.00    +0.000 A 
ATOM      7  C   UNL     1      44.706   4.246   8.720  0.00  0.00    +0.000 A 
ATOM      8  C   UNL     1      44.079   4.961   9.751  0.00  0.00    +0.000 A 
ATOM      9  C   UNL     1      43.919   4.291  10.968  0.00  0.00    +0.000 A 
ENDROOT
BRANCH   6  10
ATOM     10  C   UNL     1      45.983   2.197   7.905  0.00  0.00    +0.000 C 
ATOM     11  N   UNL     1      46.220   0.867   8.084  0.00  0.00    +0.000 N 
ATOM     12  O   UNL     1      46.428   2.762   6.909  0.00  0.00    +0.000 OA
ATOM     13  H   UNL     1      45.933   0.318   8.877  0.00  0.00    +0.000 HD
ATOM     14  H   UNL     1      46.764   0.409   7.363  0.00  0.00    +0.000 HD
ENDBRANCH   6  10
BRANCH   1  15
ATOM     15  C   UNL     1      43.871   5.967  12.861  0.00  0.00    +0.000 C 
BRANCH  15  19
ATOM     16  C   UNL     1      48.094   6.967  12.829  0.00  0.00    +0.000 A 
ATOM     17  C   UNL     1      47.632   5.859  13.551  0.00  0.00    +0.000 A 
ATOM     18  C   UNL     1      46.278   5.509  13.531  0.00  0.00    +0.000 A 
ATOM     19  C   UNL     1      45.358   6.260  12.788  0.00  0.00    +0.000 A 
ATOM     20  C   UNL     1      45.827   7.364  12.057  0.00  0.00    +0.000 A 
ATOM     21  C   UNL     1      47.181   7.710  12.075  0.00  0.00    +0.000 A 
BRANCH  16  22
ATOM     22  C   UNL     1      49.555   7.353  12.859  0.00  0.00    +0.000 C 
BRANCH  22  23
ATOM     23  C   UNL     1      50.017   7.946  11.524  0.00  0.00    +0.000 C 
BRANCH  23  24
ATOM     24  N   UNL     1      51.203   7.258  11.018  0.00  0.00    +0.000 NA
ATOM     25  H   UNL     1      52.003   7.888  11.065  0.00  0.00    +0.000 HD
ATOM     26  H   UNL     1      51.077   7.029  10.033  0.00  0.00    +0.000 HD
ENDBRANCH  23  24
ENDBRANCH  22  23
ENDBRANCH  16  22
ENDBRANCH  15  19
ENDBRANCH   1  15
TORSDOF 6
ENDMDL
MODEL 5
REMARK VINA RESULT:    -6.576      4.685      7.766
REMARK INTER + INTRA:          -9.161
REMARK INTER:                  -8.751
REMARK INTRA:                  -0.410
REMARK UNBOUND:                -0.471
REMARK  Name = 
REMARK  6 active torsions:
REMARK  status: ('A' for Active; 'I' for Inactive)
REMARK    1  A    between atoms: N_1  and  C_2
REMARK    2  A    between atoms: C_2  and  C_3
REMARK    3  A    between atoms: C_3  and  C_4
REMARK    4  A    between atoms: C_7  and  C_8
REMARK    5  A    between atoms: C_8  and  N_9
REMARK    6  A    between atoms: C_14  and  C_15
REMARK                            x       y       z     vdW  Elec       q    Type
REMARK                         _______ _______ _______ _____ _____    ______ ____
ROOT
ATOM      1  N   UNL     1      47.481   4.780  14.805  0.00  0.00    +0.000 N 
ATOM      2  N   UNL     1      48.105   5.966  14.630  0.00  0.00    +0.000 NA
ATOM      3  N   UNL     1      47.600   6.512  13.536  0.00  0.00    +0.000 NA
ATOM      4  C   UNL     1      46.745   5.611  12.967  0.00  0.00    +0.000 A 
ATOM      5  C   UNL     1      45.882   5.734  11.874  0.00  0.00    +0.000 A 
ATOM      6  C   UNL     1      45.112   4.624  11.490  0.00  0.00    +0.000 A 
ATOM      7  C   UNL     1      45.262   3.395  12.155  0.00  0.00    +0.000 A 
ATOM      8  C   UNL     1      46.095   3.267  13.277  0.00  0.00    +0.000 A 
ATOM      9  C   UNL     1      46.783   4.417  13.678  0.00  0.00    +0.000 A 
ENDROOT
BRANCH   6  10
ATOM     10  C   UNL     1      44.118   4.847  10.400  0.00  0.00    +0.000 C 
ATOM     11  N   UNL     1      44.456   4.535   9.117  0.00  0.00    +0.000 N 
ATOM     12  O   UNL     1      42.997   5.290  10.640  0.00  0.00    +0.000 OA
ATOM     13  H   UNL     1      45.353   4.200   8.809  0.00  0.00    +0.000 HD
ATOM     14  H   UNL     1      43.741   4.690   8.418  0.00  0.00    +0.000 HD
ENDBRANCH   6  10
BRANCH   1  15
ATOM     15  C   UNL     1      47.240   4.309  16.163  0.00  0.00    +0.000 C 
BRANCH  15  19
ATOM     16  C   UNL     1      51.021   2.765  17.632  0.00  0.00    +0.000 A 
ATOM     17  C   UNL     1      50.682   4.111  17.820  0.00  0.00    +0.000 A 
ATOM     18  C   UNL     1      49.448   4.603  17.385  0.00  0.00    +0.000 A 
ATOM     19  C   UNL     1      48.526   3.759  16.752  0.00  0.00    +0.000 A 
ATOM     20  C   UNL     1      48.865   2.408  16.575  0.00  0.00    +0.000 A 
ATOM     21  C   UNL     1      50.097   1.916  17.014  0.00  0.00    +0.000 A 
BRANCH  16  22
ATOM     22  C   UNL     1      52.360   2.235  18.092  0.00  0.00    +0.000 C 
BRANCH  22  23
ATOM     23  C   UNL     1      52.725   0.922  17.390  0.00  0.00    +0.000 C 
BRANCH  23  24
ATOM     24  N   UNL     1      53.099  -0.110  18.355  0.00  0.00    +0.000 NA
ATOM     25  H   UNL     1      54.109  -0.091  18.494  0.00  0.00    +0.000 HD
ATOM     26  H   UNL     1      52.880  -1.032  17.978  0.00  0.00    +0.000 HD
ENDBRANCH  23  24
ENDBRANCH  22  23
ENDBRANCH  16  22
ENDBRANCH  15  19
ENDBRANCH   1  15
TORSDOF 6
ENDMDL
MODEL 6
REMARK VINA RESULT:    -6.347      2.857      3.783
REMARK INTER + INTRA:          -8.860
REMARK INTER:                  -8.407
REMARK INTRA:                  -0.452
REMARK UNBOUND:                -0.471
REMARK  Name = 
REMARK  6 active torsions:
REMARK  status: ('A' for Active; 'I' for Inactive)
REMARK    1  A    between atoms: N_1  and  C_2
REMARK    2  A    between atoms: C_2  and  C_3
REMARK    3  A    between atoms: C_3  and  C_4
REMARK    4  A    between atoms: C_7  and  C_8
REMARK    5  A    between atoms: C_8  and  N_9
REMARK    6  A    between atoms: C_14  and  C_15
REMARK                            x       y       z     vdW  Elec       q    Type
REMARK                         _______ _______ _______ _____ _____    ______ ____
ROOT
ATOM      1  N   UNL     1      46.547   4.823  13.892  0.00  0.00    +0.000 N 
ATOM      2  N   UNL     1      46.701   3.614  14.477  0.00  0.00    +0.000 NA
ATOM      3  N   UNL     1      47.515   3.783  15.506  0.00  0.00    +0.000 NA
ATOM      4  C   UNL     1      47.960   5.075  15.489  0.00  0.00    +0.000 A 
ATOM      5  C   UNL     1      48.740   5.785  16.407  0.00  0.00    +0.000 A 
ATOM      6  C   UNL     1      49.065   7.123  16.128  0.00  0.00    +0.000 A 
ATOM      7  C   UNL     1      48.666   7.709  14.915  0.00  0.00    +0.000 A 
ATOM      8  C   UNL     1      47.850   7.022  14.003  0.00  0.00    +0.000 A 
ATOM      9  C   UNL     1      47.480   5.720  14.355  0.00  0.00    +0.000 A 
ENDROOT
BRANCH   6  10
ATOM     10  C   UNL     1      49.790   7.869  17.196  0.00  0.00    +0.000 C 
ATOM     11  N   UNL     1      50.092   7.234  18.364  0.00  0.00    +0.000 N 
ATOM     12  O   UNL     1      50.135   9.037  17.037  0.00  0.00    +0.000 OA
ATOM     13  H   UNL     1      49.828   6.295  18.609  0.00  0.00    +0.000 HD
ATOM     14  H   UNL     1      50.599   7.779  19.050  0.00  0.00    +0.000 HD
ENDBRANCH   6  10
BRANCH   1  15
ATOM     15  C   UNL     1      45.266   5.146  13.278  0.00  0.00    +0.000 C 
BRANCH  15  19
ATOM     16  C   UNL     1      45.014   3.902   9.127  0.00  0.00    +0.000 A 
ATOM     17  C   UNL     1      45.496   5.174   9.459  0.00  0.00    +0.000 A 
ATOM     18  C   UNL     1      45.617   5.565  10.797  0.00  0.00    +0.000 A 
ATOM     19  C   UNL     1      45.259   4.689  11.831  0.00  0.00    +0.000 A 
ATOM     20  C   UNL     1      44.787   3.410  11.494  0.00  0.00    +0.000 A 
ATOM     21  C   UNL     1      44.671   3.020  10.157  0.00  0.00    +0.000 A 
BRANCH  16  22
ATOM     22  C   UNL     1      44.872   3.484   7.682  0.00  0.00    +0.000 C 
BRANCH  22  23
ATOM     23  C   UNL     1      46.201   2.997   7.095  0.00  0.00    +0.000 C 
BRANCH  23  24
ATOM     24  N   UNL     1      47.008   4.114   6.608  0.00  0.00    +0.000 NA
ATOM     25  H   UNL     1      46.736   4.333   5.650  0.00  0.00    +0.000 HD
ATOM     26  H   UNL     1      47.990   3.841   6.570  0.00  0.00    +0.000 HD
ENDBRANCH  23  24
ENDBRANCH  22  23
ENDBRANCH  16  22
ENDBRANCH  15  19
ENDBRANCH   1  15
TORSDOF 6
ENDMDL
MODEL 7
REMARK VINA RESULT:    -6.070      2.500      3.913
REMARK INTER + INTRA:          -8.493
REMARK INTER:                  -7.937
REMARK INTRA:                  -0.556
REMARK UNBOUND:                -0.471
REMARK  Name = 
REMARK  6 active torsions:
REMARK  status: ('A' for Active; 'I' for Inactive)
REMARK    1  A    between atoms: N_1  and  C_2
REMARK    2  A    between atoms: C_2  and  C_3
REMARK    3  A    between atoms: C_3  and  C_4
REMARK    4  A    between atoms: C_7  and  C_8
REMARK    5  A    between atoms: C_8  and  N_9
REMARK    6  A    between atoms: C_14  and  C_15
REMARK                            x       y       z     vdW  Elec       q    Type
REMARK                         _______ _______ _______ _____ _____    ______ ____
ROOT
ATOM      1  N   UNL     1      47.138   5.968  13.304  0.00  0.00    +0.000 N 
ATOM      2  N   UNL     1      47.525   5.315  14.422  0.00  0.00    +0.000 NA
ATOM      3  N   UNL     1      48.579   5.955  14.900  0.00  0.00    +0.000 NA
ATOM      4  C   UNL     1      48.918   6.938  14.012  0.00  0.00    +0.000 A 
ATOM      5  C   UNL     1      49.874   7.954  14.095  0.00  0.00    +0.000 A 
ATOM      6  C   UNL     1      50.023   8.835  13.012  0.00  0.00    +0.000 A 
ATOM      7  C   UNL     1      49.267   8.650  11.841  0.00  0.00    +0.000 A 
ATOM      8  C   UNL     1      48.277   7.659  11.758  0.00  0.00    +0.000 A 
ATOM      9  C   UNL     1      48.103   6.854  12.889  0.00  0.00    +0.000 A 
ENDROOT
BRANCH   6  10
ATOM     10  C   UNL     1      50.966   9.974  13.203  0.00  0.00    +0.000 C 
ATOM     11  N   UNL     1      52.101   9.783  13.934  0.00  0.00    +0.000 N 
ATOM     12  O   UNL     1      50.748  11.074  12.701  0.00  0.00    +0.000 OA
ATOM     13  H   UNL     1      52.357   8.937  14.414  0.00  0.00    +0.000 HD
ATOM     14  H   UNL     1      52.715  10.583  14.021  0.00  0.00    +0.000 HD
ENDBRANCH   6  10
BRANCH   1  15
ATOM     15  C   UNL     1      45.719   6.017  12.977  0.00  0.00    +0.000 C 
BRANCH  15  19
ATOM     16  C   UNL     1      45.167   3.532   9.462  0.00  0.00    +0.000 A 
ATOM     17  C   UNL     1      44.968   3.003  10.743  0.00  0.00    +0.000 A 
ATOM     18  C   UNL     1      45.105   3.811  11.877  0.00  0.00    +0.000 A 
ATOM     19  C   UNL     1      45.443   5.165  11.752  0.00  0.00    +0.000 A 
ATOM     20  C   UNL     1      45.632   5.693  10.465  0.00  0.00    +0.000 A 
ATOM     21  C   UNL     1      45.490   4.886   9.333  0.00  0.00    +0.000 A 
BRANCH  16  22
ATOM     22  C   UNL     1      45.031   2.657   8.237  0.00  0.00    +0.000 C 
BRANCH  22  23
ATOM     23  C   UNL     1      46.375   2.057   7.811  0.00  0.00    +0.000 C 
BRANCH  23  24
ATOM     24  N   UNL     1      46.406   0.612   8.031  0.00  0.00    +0.000 NA
ATOM     25  H   UNL     1      46.707   0.424   8.986  0.00  0.00    +0.000 HD
ATOM     26  H   UNL     1      47.104   0.185   7.422  0.00  0.00    +0.000 HD
ENDBRANCH  23  24
ENDBRANCH  22  23
ENDBRANCH  16  22
ENDBRANCH  15  19
ENDBRANCH   1  15
TORSDOF 6
ENDMDL
MODEL 8
REMARK VINA RESULT:    -6.064      4.440      8.010
REMARK INTER + INTRA:          -8.485
REMARK INTER:                  -7.974
REMARK INTRA:                  -0.510
REMARK UNBOUND:                -0.471
REMARK  Name = 
REMARK  6 active torsions:
REMARK  status: ('A' for Active; 'I' for Inactive)
REMARK    1  A    between atoms: N_1  and  C_2
REMARK    2  A    between atoms: C_2  and  C_3
REMARK    3  A    between atoms: C_3  and  C_4
REMARK    4  A    between atoms: C_7  and  C_8
REMARK    5  A    between atoms: C_8  and  N_9
REMARK    6  A    between atoms: C_14  and  C_15
REMARK                            x       y       z     vdW  Elec       q    Type
REMARK                         _______ _______ _______ _____ _____    ______ ____
ROOT
ATOM      1  N   UNL     1      48.516   6.199  14.719  0.00  0.00    +0.000 N 
ATOM      2  N   UNL     1      49.339   6.961  13.964  0.00  0.00    +0.000 NA
ATOM      3  N   UNL     1      48.715   7.190  12.821  0.00  0.00    +0.000 NA
ATOM      4  C   UNL     1      47.552   6.473  12.821  0.00  0.00    +0.000 A 
ATOM      5  C   UNL     1      46.491   6.451  11.910  0.00  0.00    +0.000 A 
ATOM      6  C   UNL     1      45.405   5.595  12.153  0.00  0.00    +0.000 A 
ATOM      7  C   UNL     1      45.423   4.728  13.259  0.00  0.00    +0.000 A 
ATOM      8  C   UNL     1      46.461   4.765  14.202  0.00  0.00    +0.000 A 
ATOM      9  C   UNL     1      47.484   5.690  13.967  0.00  0.00    +0.000 A 
ENDROOT
BRANCH   6  10
ATOM     10  C   UNL     1      44.248   5.704  11.219  0.00  0.00    +0.000 C 
ATOM     11  N   UNL     1      43.454   6.811  11.270  0.00  0.00    +0.000 N 
ATOM     12  O   UNL     1      44.007   4.824  10.396  0.00  0.00    +0.000 OA
ATOM     13  H   UNL     1      43.542   7.570  11.924  0.00  0.00    +0.000 HD
ATOM     14  H   UNL     1      42.692   6.844  10.604  0.00  0.00    +0.000 HD
ENDBRANCH   6  10
BRANCH   1  15
ATOM     15  C   UNL     1      48.528   6.377  16.165  0.00  0.00    +0.000 C 
BRANCH  15  19
ATOM     16  C   UNL     1      51.407   3.538  17.741  0.00  0.00    +0.000 A 
ATOM     17  C   UNL     1      51.796   4.847  17.435  0.00  0.00    +0.000 A 
ATOM     18  C   UNL     1      50.863   5.777  16.965  0.00  0.00    +0.000 A 
ATOM     19  C   UNL     1      49.520   5.416  16.793  0.00  0.00    +0.000 A 
ATOM     20  C   UNL     1      49.132   4.105  17.112  0.00  0.00    +0.000 A 
ATOM     21  C   UNL     1      50.065   3.178  17.585  0.00  0.00    +0.000 A 
BRANCH  16  22
ATOM     22  C   UNL     1      52.417   2.528  18.238  0.00  0.00    +0.000 C 
BRANCH  22  23
ATOM     23  C   UNL     1      52.356   1.221  17.442  0.00  0.00    +0.000 C 
BRANCH  23  24
ATOM     24  N   UNL     1      51.698   0.163  18.208  0.00  0.00    +0.000 NA
ATOM     25  H   UNL     1      51.858  -0.734  17.749  0.00  0.00    +0.000 HD
ATOM     26  H   UNL     1      50.689   0.309  18.204  0.00  0.00    +0.000 HD
ENDBRANCH  23  24
ENDBRANCH  22  23
ENDBRANCH  16  22
ENDBRANCH  15  19
ENDBRANCH   1  15
TORSDOF 6
ENDMDL
MODEL 9
REMARK VINA RESULT:    -5.630      4.015      8.477
REMARK INTER + INTRA:          -7.911
REMARK INTER:                  -7.384
REMARK INTRA:                  -0.527
REMARK UNBOUND:                -0.471
REMARK  Name = 
REMARK  6 active torsions:
REMARK  status: ('A' for Active; 'I' for Inactive)
REMARK    1  A    between atoms: N_1  and  C_2
REMARK    2  A    between atoms: C_2  and  C_3
REMARK    3  A    between atoms: C_3  and  C_4
REMARK    4  A    between atoms: C_7  and  C_8
REMARK    5  A    between atoms: C_8  and  N_9
REMARK    6  A    between atoms: C_14  and  C_15
REMARK                            x       y       z     vdW  Elec       q    Type
REMARK                         _______ _______ _______ _____ _____    ______ ____
ROOT
ATOM      1  N   UNL     1      47.546   5.878  13.960  0.00  0.00    +0.000 N 
ATOM      2  N   UNL     1      47.503   4.856  14.843  0.00  0.00    +0.000 NA
ATOM      3  N   UNL     1      46.716   3.927  14.324  0.00  0.00    +0.000 NA
ATOM      4  C   UNL     1      46.177   4.424  13.171  0.00  0.00    +0.000 A 
ATOM      5  C   UNL     1      45.380   3.813  12.197  0.00  0.00    +0.000 A 
ATOM      6  C   UNL     1      44.948   4.575  11.099  0.00  0.00    +0.000 A 
ATOM      7  C   UNL     1      45.258   5.943  11.022  0.00  0.00    +0.000 A 
ATOM      8  C   UNL     1      46.089   6.560  11.971  0.00  0.00    +0.000 A 
ATOM      9  C   UNL     1      46.566   5.748  13.005  0.00  0.00    +0.000 A 
ENDROOT
BRANCH   6  10
ATOM     10  C   UNL     1      44.208   3.844  10.031  0.00  0.00    +0.000 C 
ATOM     11  N   UNL     1      44.092   4.408   8.796  0.00  0.00    +0.000 N 
ATOM     12  O   UNL     1      43.717   2.736  10.238  0.00  0.00    +0.000 OA
ATOM     13  H   UNL     1      44.426   5.320   8.531  0.00  0.00    +0.000 HD
ATOM     14  H   UNL     1      43.595   3.864   8.102  0.00  0.00    +0.000 HD
ENDBRANCH   6  10
BRANCH   1  15
ATOM     15  C   UNL     1      48.777   6.648  13.839  0.00  0.00    +0.000 C 
BRANCH  15  19
ATOM     16  C   UNL     1      49.136   8.993  17.473  0.00  0.00    +0.000 A 
ATOM     17  C   UNL     1      49.904   7.836  17.297  0.00  0.00    +0.000 A 
ATOM     18  C   UNL     1      49.821   7.099  16.111  0.00  0.00    +0.000 A 
ATOM     19  C   UNL     1      48.970   7.506  15.076  0.00  0.00    +0.000 A 
ATOM     20  C   UNL     1      48.210   8.674  15.252  0.00  0.00    +0.000 A 
ATOM     21  C   UNL     1      48.296   9.411  16.436  0.00  0.00    +0.000 A 
BRANCH  16  22
ATOM     22  C   UNL     1      49.216   9.784  18.759  0.00  0.00    +0.000 C 
BRANCH  22  23
ATOM     23  C   UNL     1      47.857   9.867  19.463  0.00  0.00    +0.000 C 
BRANCH  23  24
ATOM     24  N   UNL     1      47.467   8.572  20.020  0.00  0.00    +0.000 NA
ATOM     25  H   UNL     1      46.540   8.324  19.675  0.00  0.00    +0.000 HD
ATOM     26  H   UNL     1      47.385   8.642  21.034  0.00  0.00    +0.000 HD
ENDBRANCH  23  24
ENDBRANCH  22  23
ENDBRANCH  16  22
ENDBRANCH  15  19
ENDBRANCH   1  15
TORSDOF 6
ENDMDL
