MODEL 1
REMARK VINA RESULT:    -8.319      0.000      0.000
REMARK INTER + INTRA:         -10.802
REMARK INTER:                 -10.264
REMARK INTRA:                  -0.538
REMARK UNBOUND:                -0.538
REMARK  Name = 
REMARK  4 active torsions:
REMARK  status: ('A' for Active; 'I' for Inactive)
REMARK    1  A    between atoms: C_2  and  C_4
REMARK    2  A    between atoms: C_7  and  C_8
REMARK    3  A    between atoms: C_8  and  C_9
REMARK    4  A    between atoms: C_13  and  C_14
REMARK                            x       y       z     vdW  Elec       q    Type
REMARK                         _______ _______ _______ _____ _____    ______ ____
ROOT
ATOM      1  C   UNL     1      44.416   4.331  11.132  0.00  0.00    +0.000 C 
ATOM      2  C   UNL     1      43.093   3.676  11.544  0.00  0.00    +0.000 C 
ATOM      3  C   UNL     1      43.056   5.053  10.985  0.00  0.00    +0.000 C 
ENDROOT
BRANCH   1   7
ATOM      4  C   UNL     1      46.371   2.827   7.595  0.00  0.00    +0.000 A 
ATOM      5  C   UNL     1      46.280   4.211   7.761  0.00  0.00    +0.000 A 
ATOM      6  C   UNL     1      45.632   4.726   8.897  0.00  0.00    +0.000 A 
ATOM      7  C   UNL     1      45.075   3.851   9.837  0.00  0.00    +0.000 A 
ATOM      8  N   UNL     1      45.152   2.507   9.651  0.00  0.00    +0.000 NA
ATOM      9  C   UNL     1      45.781   2.025   8.555  0.00  0.00    +0.000 A 
BRANCH   4  11
ATOM     10  N   UNL     1      47.348   2.905   5.365  0.00  0.00    +0.000 N 
ATOM     11  C   UNL     1      47.032   2.147   6.454  0.00  0.00    +0.000 C 
ATOM     12  O   UNL     1      47.320   0.957   6.500  0.00  0.00    +0.000 OA
ATOM     13  H   UNL     1      47.933   2.441   4.679  0.00  0.00    +0.000 HD
ATOM     14  H   UNL     1      47.367   3.913   5.388  0.00  0.00    +0.000 HD
ENDBRANCH   4  11
ENDBRANCH   1   7
BRANCH   1  15
ATOM     15  C   UNL     1      45.276   4.991  12.211  0.00  0.00    +0.000 A 
ATOM     16  C   UNL     1      45.859   4.215  13.224  0.00  0.00    +0.000 A 
ATOM     17  C   UNL     1      47.007   4.653  13.878  0.00  0.00    +0.000 A 
ATOM     18  C   UNL     1      47.572   5.886  13.539  0.00  0.00    +0.000 A 
ATOM     19  C   UNL     1      46.948   6.742  12.620  0.00  0.00    +0.000 A 
ATOM     20  C   UNL     1      45.757   6.297  12.024  0.00  0.00    +0.000 A 
BRANCH  19  21
ATOM     21  C   UNL     1      47.568   8.000  12.158  0.00  0.00    +0.000 A 
ATOM     22  C   UNL     1      46.863   9.212  12.190  0.00  0.00    +0.000 A 
ATOM     23  C   UNL     1      47.508  10.380  11.817  0.00  0.00    +0.000 A 
ATOM     24  N   UNL     1      48.798  10.436  11.426  0.00  0.00    +0.000 NA
ATOM     25  C   UNL     1      49.469   9.269  11.407  0.00  0.00    +0.000 A 
ATOM     26  C   UNL     1      48.908   8.050  11.754  0.00  0.00    +0.000 A 
ENDBRANCH  19  21
ENDBRANCH   1  15
TORSDOF 4
ENDMDL
MODEL 2
REMARK VINA RESULT:    -7.464      2.019      3.046
REMARK INTER + INTRA:          -9.747
REMARK INTER:                  -9.559
REMARK INTRA:                  -0.188
REMARK UNBOUND:                -0.538
REMARK  Name = 
REMARK  4 active torsions:
REMARK  status: ('A' for Active; 'I' for Inactive)
REMARK    1  A    between atoms: C_2  and  C_4
REMARK    2  A    between atoms: C_7  and  C_8
REMARK    3  A    between atoms: C_8  and  C_9
REMARK    4  A    between atoms: C_13  and  C_14
REMARK                            x       y       z     vdW  Elec       q    Type
REMARK                         _______ _______ _______ _____ _____    ______ ____
ROOT
ATOM      1  C   UNL     1      44.656   5.103  10.933  0.00  0.00    +0.000 C 
ATOM      2  C   UNL     1      43.610   4.461  11.850  0.00  0.00    +0.000 C 
ATOM      3  C   UNL     1      43.149   5.433  10.823  0.00  0.00    +0.000 C 
ENDROOT
BRANCH   1   7
ATOM      4  C   UNL     1      46.250   2.818   7.641  0.00  0.00    +0.000 A 
ATOM      5  C   UNL     1      45.634   2.127   8.688  0.00  0.00    +0.000 A 
ATOM      6  C   UNL     1      45.123   2.848   9.780  0.00  0.00    +0.000 A 
ATOM      7  C   UNL     1      45.248   4.242   9.815  0.00  0.00    +0.000 A 
ATOM      8  N   UNL     1      45.868   4.899   8.799  0.00  0.00    +0.000 NA
ATOM      9  C   UNL     1      46.353   4.192   7.753  0.00  0.00    +0.000 A 
BRANCH   4  11
ATOM     10  N   UNL     1      47.062   2.994   5.351  0.00  0.00    +0.000 N 
ATOM     11  C   UNL     1      46.824   2.189   6.426  0.00  0.00    +0.000 C 
ATOM     12  O   UNL     1      47.109   0.998   6.399  0.00  0.00    +0.000 OA
ATOM     13  H   UNL     1      47.593   2.560   4.605  0.00  0.00    +0.000 HD
ATOM     14  H   UNL     1      47.086   4.001   5.417  0.00  0.00    +0.000 HD
ENDBRANCH   4  11
ENDBRANCH   1   7
BRANCH   1  15
ATOM     15  C   UNL     1      45.447   6.307  11.449  0.00  0.00    +0.000 A 
ATOM     16  C   UNL     1      44.888   7.592  11.406  0.00  0.00    +0.000 A 
ATOM     17  C   UNL     1      45.316   8.579  12.289  0.00  0.00    +0.000 A 
ATOM     18  C   UNL     1      46.326   8.296  13.212  0.00  0.00    +0.000 A 
ATOM     19  C   UNL     1      46.992   7.061  13.202  0.00  0.00    +0.000 A 
ATOM     20  C   UNL     1      46.579   6.109  12.257  0.00  0.00    +0.000 A 
BRANCH  19  21
ATOM     21  C   UNL     1      47.987   6.687  14.226  0.00  0.00    +0.000 A 
ATOM     22  C   UNL     1      49.182   7.406  14.376  0.00  0.00    +0.000 A 
ATOM     23  C   UNL     1      50.053   7.065  15.399  0.00  0.00    +0.000 A 
ATOM     24  N   UNL     1      49.823   6.075  16.285  0.00  0.00    +0.000 NA
ATOM     25  C   UNL     1      48.669   5.395  16.138  0.00  0.00    +0.000 A 
ATOM     26  C   UNL     1      47.741   5.657  15.143  0.00  0.00    +0.000 A 
ENDBRANCH  19  21
ENDBRANCH   1  15
TORSDOF 4
ENDMDL
MODEL 3
REMARK VINA RESULT:    -6.858      3.729      7.434
REMARK INTER + INTRA:          -9.000
REMARK INTER:                  -8.915
REMARK INTRA:                  -0.085
REMARK UNBOUND:                -0.538
REMARK  Name = 
REMARK  4 active torsions:
REMARK  status: ('A' for Active; 'I' for Inactive)
REMARK    1  A    between atoms: C_2  and  C_4
REMARK    2  A    between atoms: C_7  and  C_8
REMARK    3  A    between atoms: C_8  and  C_9
REMARK    4  A    between atoms: C_13  and  C_14
REMARK                            x       y       z     vdW  Elec       q    Type
REMARK                         _______ _______ _______ _____ _____    ______ ____
ROOT
ATOM      1  C   UNL     1      46.501   6.285  12.982  0.00  0.00    +0.000 C 
ATOM      2  C   UNL     1      47.273   7.321  12.158  0.00  0.00    +0.000 C 
ATOM      3  C   UNL     1      46.132   7.788  12.988  0.00  0.00    +0.000 C 
ENDROOT
BRANCH   1   7
ATOM      4  C   UNL     1      48.183   4.709  16.626  0.00  0.00    +0.000 A 
ATOM      5  C   UNL     1      48.729   5.883  16.100  0.00  0.00    +0.000 A 
ATOM      6  C   UNL     1      48.210   6.406  14.904  0.00  0.00    +0.000 A 
ATOM      7  C   UNL     1      47.166   5.743  14.248  0.00  0.00    +0.000 A 
ATOM      8  N   UNL     1      46.659   4.590  14.760  0.00  0.00    +0.000 NA
ATOM      9  C   UNL     1      47.166   4.099  15.914  0.00  0.00    +0.000 A 
BRANCH   4  11
ATOM     10  N   UNL     1      47.791   3.124  18.433  0.00  0.00    +0.000 N 
ATOM     11  C   UNL     1      48.624   4.052  17.881  0.00  0.00    +0.000 C 
ATOM     12  O   UNL     1      49.712   4.304  18.384  0.00  0.00    +0.000 OA
ATOM     13  H   UNL     1      48.195   2.591  19.196  0.00  0.00    +0.000 HD
ATOM     14  H   UNL     1      47.025   2.706  17.927  0.00  0.00    +0.000 HD
ENDBRANCH   4  11
ENDBRANCH   1   7
BRANCH   1  15
ATOM     15  C   UNL     1      45.419   5.455  12.290  0.00  0.00    +0.000 A 
ATOM     16  C   UNL     1      44.069   5.820  12.398  0.00  0.00    +0.000 A 
ATOM     17  C   UNL     1      43.153   5.441  11.421  0.00  0.00    +0.000 A 
ATOM     18  C   UNL     1      43.576   4.672  10.333  0.00  0.00    +0.000 A 
ATOM     19  C   UNL     1      44.889   4.185  10.255  0.00  0.00    +0.000 A 
ATOM     20  C   UNL     1      45.772   4.533  11.290  0.00  0.00    +0.000 A 
BRANCH  19  21
ATOM     21  C   UNL     1      45.400   3.461   9.075  0.00  0.00    +0.000 A 
ATOM     22  C   UNL     1      45.872   4.149   7.948  0.00  0.00    +0.000 A 
ATOM     23  C   UNL     1      46.412   3.431   6.893  0.00  0.00    +0.000 A 
ATOM     24  N   UNL     1      46.525   2.087   6.877  0.00  0.00    +0.000 NA
ATOM     25  C   UNL     1      46.076   1.435   7.967  0.00  0.00    +0.000 A 
ATOM     26  C   UNL     1      45.514   2.065   9.067  0.00  0.00    +0.000 A 
ENDBRANCH  19  21
ENDBRANCH   1  15
TORSDOF 4
ENDMDL
MODEL 4
REMARK VINA RESULT:    -6.429      3.709      6.435
REMARK INTER + INTRA:          -8.470
REMARK INTER:                  -7.879
REMARK INTRA:                  -0.591
REMARK UNBOUND:                -0.538
REMARK  Name = 
REMARK  4 active torsions:
REMARK  status: ('A' for Active; 'I' for Inactive)
REMARK    1  A    between atoms: C_2  and  C_4
REMARK    2  A    between atoms: C_7  and  C_8
REMARK    3  A    between atoms: C_8  and  C_9
REMARK    4  A    between atoms: C_13  and  C_14
REMARK                            x       y       z     vdW  Elec       q    Type
REMARK                         _______ _______ _______ _____ _____    ______ ____
ROOT
ATOM      1  C   UNL     1      48.174   8.143  12.689  0.00  0.00    +0.000 C 
ATOM      2  C   UNL     1      48.558   9.304  11.767  0.00  0.00    +0.000 C 
ATOM      3  C   UNL     1      49.354   8.050  11.693  0.00  0.00    +0.000 C 
ENDROOT
BRANCH   1   7
ATOM      4  C   UNL     1      44.528   6.022  11.793  0.00  0.00    +0.000 A 
ATOM      5  C   UNL     1      45.642   5.280  12.192  0.00  0.00    +0.000 A 
ATOM      6  C   UNL     1      46.847   5.946  12.473  0.00  0.00    +0.000 A 
ATOM      7  C   UNL     1      46.921   7.337  12.337  0.00  0.00    +0.000 A 
ATOM      8  N   UNL     1      45.835   8.044  11.927  0.00  0.00    +0.000 NA
ATOM      9  C   UNL     1      44.681   7.390  11.664  0.00  0.00    +0.000 A 
BRANCH   4  11
ATOM     10  N   UNL     1      42.103   6.235  11.713  0.00  0.00    +0.000 N 
ATOM     11  C   UNL     1      43.194   5.453  11.476  0.00  0.00    +0.000 C 
ATOM     12  O   UNL     1      43.078   4.337  10.984  0.00  0.00    +0.000 OA
ATOM     13  H   UNL     1      41.232   5.872  11.341  0.00  0.00    +0.000 HD
ATOM     14  H   UNL     1      42.165   7.230  11.868  0.00  0.00    +0.000 HD
ENDBRANCH   4  11
ENDBRANCH   1   7
BRANCH   1  15
ATOM     15  C   UNL     1      48.673   8.157  14.135  0.00  0.00    +0.000 A 
ATOM     16  C   UNL     1      48.497   9.297  14.934  0.00  0.00    +0.000 A 
ATOM     17  C   UNL     1      48.454   9.188  16.321  0.00  0.00    +0.000 A 
ATOM     18  C   UNL     1      48.609   7.937  16.926  0.00  0.00    +0.000 A 
ATOM     19  C   UNL     1      48.910   6.796  16.167  0.00  0.00    +0.000 A 
ATOM     20  C   UNL     1      49.009   6.951  14.774  0.00  0.00    +0.000 A 
BRANCH  19  21
ATOM     21  C   UNL     1      48.976   5.445  16.755  0.00  0.00    +0.000 A 
ATOM     22  C   UNL     1      47.885   4.567  16.685  0.00  0.00    +0.000 A 
ATOM     23  C   UNL     1      48.017   3.281  17.186  0.00  0.00    +0.000 A 
ATOM     24  N   UNL     1      49.149   2.802  17.739  0.00  0.00    +0.000 NA
ATOM     25  C   UNL     1      50.195   3.649  17.795  0.00  0.00    +0.000 A 
ATOM     26  C   UNL     1      50.156   4.954  17.329  0.00  0.00    +0.000 A 
ENDBRANCH  19  21
ENDBRANCH   1  15
TORSDOF 4
ENDMDL
MODEL 5
REMARK VINA RESULT:    -6.396      2.585      6.823
REMARK INTER + INTRA:          -8.429
REMARK INTER:                  -8.126
REMARK INTRA:                  -0.303
REMARK UNBOUND:                -0.538
REMARK  Name = 
REMARK  4 active torsions:
REMARK  status: ('A' for Active; 'I' for Inactive)
REMARK    1  A    between atoms: C_2  and  C_4
REMARK    2  A    between atoms: C_7  and  C_8
REMARK    3  A    between atoms: C_8  and  C_9
REMARK    4  A    between atoms: C_13  and  C_14
REMARK                            x       y       z     vdW  Elec       q    Type
REMARK                         _______ _______ _______ _____ _____    ______ ____
ROOT
ATOM      1  C   UNL     1      46.486   4.842  13.273  0.00  0.00    +0.000 C 
ATOM      2  C   UNL     1      46.280   4.526  14.759  0.00  0.00    +0.000 C 
ATOM      3  C   UNL     1      47.115   3.600  13.948  0.00  0.00    +0.000 C 
ENDROOT
BRANCH   1   7
ATOM      4  C   UNL     1      49.184   8.106  12.461  0.00  0.00    +0.000 A 
ATOM      5  C   UNL     1      48.169   7.842  11.538  0.00  0.00    +0.000 A 
ATOM      6  C   UNL     1      47.289   6.773  11.771  0.00  0.00    +0.000 A 
ATOM      7  C   UNL     1      47.444   5.978  12.913  0.00  0.00    +0.000 A 
ATOM      8  N   UNL     1      48.449   6.233  13.792  0.00  0.00    +0.000 NA
ATOM      9  C   UNL     1      49.288   7.268  13.556  0.00  0.00    +0.000 A 
BRANCH   4  11
ATOM     10  N   UNL     1      50.331  10.027  13.424  0.00  0.00    +0.000 N 
ATOM     11  C   UNL     1      50.176   9.204  12.348  0.00  0.00    +0.000 C 
ATOM     12  O   UNL     1      50.857   9.346  11.340  0.00  0.00    +0.000 OA
ATOM     13  H   UNL     1      51.120  10.660  13.364  0.00  0.00    +0.000 HD
ATOM     14  H   UNL     1      49.989   9.794  14.344  0.00  0.00    +0.000 HD
ENDBRANCH   4  11
ENDBRANCH   1   7
BRANCH   1  15
ATOM     15  C   UNL     1      45.397   4.435  12.278  0.00  0.00    +0.000 A 
ATOM     16  C   UNL     1      44.161   5.099  12.272  0.00  0.00    +0.000 A 
ATOM     17  C   UNL     1      43.383   5.131  11.119  0.00  0.00    +0.000 A 
ATOM     18  C   UNL     1      43.823   4.478   9.964  0.00  0.00    +0.000 A 
ATOM     19  C   UNL     1      44.992   3.702   9.970  0.00  0.00    +0.000 A 
ATOM     20  C   UNL     1      45.723   3.639  11.167  0.00  0.00    +0.000 A 
BRANCH  19  21
ATOM     21  C   UNL     1      45.544   3.087   8.747  0.00  0.00    +0.000 A 
ATOM     22  C   UNL     1      45.911   3.868   7.642  0.00  0.00    +0.000 A 
ATOM     23  C   UNL     1      46.495   3.256   6.544  0.00  0.00    +0.000 A 
ATOM     24  N   UNL     1      46.748   1.934   6.466  0.00  0.00    +0.000 NA
ATOM     25  C   UNL     1      46.399   1.192   7.535  0.00  0.00    +0.000 A 
ATOM     26  C   UNL     1      45.804   1.712   8.674  0.00  0.00    +0.000 A 
ENDBRANCH  19  21
ENDBRANCH   1  15
TORSDOF 4
ENDMDL
MODEL 6
REMARK VINA RESULT:    -6.204      2.930      6.742
REMARK INTER + INTRA:          -8.192
REMARK INTER:                  -8.061
REMARK INTRA:                  -0.131
REMARK UNBOUND:                -0.538
REMARK  Name = 
REMARK  4 active torsions:
REMARK  status: ('A' for Active; 'I' for Inactive)
REMARK    1  A    between atoms: C_2  and  C_4
REMARK    2  A    between atoms: C_7  and  C_8
REMARK    3  A    between atoms: C_8  and  C_9
REMARK    4  A    between atoms: C_13  and  C_14
REMARK                            x       y       z     vdW  Elec       q    Type
REMARK                         _______ _______ _______ _____ _____    ______ ____
ROOT
ATOM      1  C   UNL     1      44.330   5.374  11.876  0.00  0.00    +0.000 C 
ATOM      2  C   UNL     1      43.091   6.172  11.456  0.00  0.00    +0.000 C 
ATOM      3  C   UNL     1      43.095   5.525  12.794  0.00  0.00    +0.000 C 
ENDROOT
BRANCH   1   7
ATOM      4  C   UNL     1      47.825   7.514  13.218  0.00  0.00    +0.000 A 
ATOM      5  C   UNL     1      46.957   8.157  12.332  0.00  0.00    +0.000 A 
ATOM      6  C   UNL     1      45.821   7.474  11.866  0.00  0.00    +0.000 A 
ATOM      7  C   UNL     1      45.579   6.159  12.282  0.00  0.00    +0.000 A 
ATOM      8  N   UNL     1      46.444   5.539  13.128  0.00  0.00    +0.000 NA
ATOM      9  C   UNL     1      47.532   6.210  13.571  0.00  0.00    +0.000 A 
BRANCH   4  11
ATOM     10  N   UNL     1      50.221   7.431  13.645  0.00  0.00    +0.000 N 
ATOM     11  C   UNL     1      49.052   8.116  13.796  0.00  0.00    +0.000 C 
ATOM     12  O   UNL     1      49.025   9.205  14.356  0.00  0.00    +0.000 OA
ATOM     13  H   UNL     1      51.053   7.945  13.915  0.00  0.00    +0.000 HD
ATOM     14  H   UNL     1      50.333   6.679  12.982  0.00  0.00    +0.000 HD
ENDBRANCH   4  11
ENDBRANCH   1   7
BRANCH   1  15
ATOM     15  C   UNL     1      44.478   3.934  11.383  0.00  0.00    +0.000 A 
ATOM     16  C   UNL     1      43.535   2.961  11.746  0.00  0.00    +0.000 A 
ATOM     17  C   UNL     1      43.336   1.837  10.949  0.00  0.00    +0.000 A 
ATOM     18  C   UNL     1      44.097   1.663   9.790  0.00  0.00    +0.000 A 
ATOM     19  C   UNL     1      45.133   2.551   9.461  0.00  0.00    +0.000 A 
ATOM     20  C   UNL     1      45.349   3.641  10.320  0.00  0.00    +0.000 A 
BRANCH  19  21
ATOM     21  C   UNL     1      45.885   2.461   8.195  0.00  0.00    +0.000 A 
ATOM     22  C   UNL     1      45.952   3.546   7.310  0.00  0.00    +0.000 A 
ATOM     23  C   UNL     1      46.731   3.443   6.168  0.00  0.00    +0.000 A 
ATOM     24  N   UNL     1      47.453   2.350   5.847  0.00  0.00    +0.000 NA
ATOM     25  C   UNL     1      47.390   1.315   6.707  0.00  0.00    +0.000 A 
ATOM     26  C   UNL     1      46.633   1.322   7.868  0.00  0.00    +0.000 A 
ENDBRANCH  19  21
ENDBRANCH   1  15
TORSDOF 4
ENDMDL
MODEL 7
REMARK VINA RESULT:    -6.072      3.338      5.798
REMARK INTER + INTRA:          -8.030
REMARK INTER:                  -7.724
REMARK INTRA:                  -0.306
REMARK UNBOUND:                -0.538
REMARK  Name = 
REMARK  4 active torsions:
REMARK  status: ('A' for Active; 'I' for Inactive)
REMARK    1  A    between atoms: C_2  and  C_4
REMARK    2  A    between atoms: C_7  and  C_8
REMARK    3  A    between atoms: C_8  and  C_9
REMARK    4  A    between atoms: C_13  and  C_14
REMARK                            x       y       z     vdW  Elec       q    Type
REMARK                         _______ _______ _______ _____ _____    ______ ____
ROOT
ATOM      1  C   UNL     1      48.124   7.329  13.115  0.00  0.00    +0.000 C 
ATOM      2  C   UNL     1      48.810   7.029  14.452  0.00  0.00    +0.000 C 
ATOM      3  C   UNL     1      47.881   8.187  14.378  0.00  0.00    +0.000 C 
ENDROOT
BRANCH   1   7
ATOM      4  C   UNL     1      45.004   4.583  11.966  0.00  0.00    +0.000 A 
ATOM      5  C   UNL     1      45.301   5.643  11.105  0.00  0.00    +0.000 A 
ATOM      6  C   UNL     1      46.301   6.561  11.466  0.00  0.00    +0.000 A 
ATOM      7  C   UNL     1      46.977   6.414  12.683  0.00  0.00    +0.000 A 
ATOM      8  N   UNL     1      46.662   5.390  13.520  0.00  0.00    +0.000 NA
ATOM      9  C   UNL     1      45.699   4.511  13.159  0.00  0.00    +0.000 A 
BRANCH   4  11
ATOM     10  N   UNL     1      43.971   2.452  12.533  0.00  0.00    +0.000 N 
ATOM     11  C   UNL     1      43.982   3.538  11.709  0.00  0.00    +0.000 C 
ATOM     12  O   UNL     1      43.155   3.661  10.815  0.00  0.00    +0.000 OA
ATOM     13  H   UNL     1      43.168   1.843  12.423  0.00  0.00    +0.000 HD
ATOM     14  H   UNL     1      44.451   2.433  13.420  0.00  0.00    +0.000 HD
ENDBRANCH   4  11
ENDBRANCH   1   7
BRANCH   1  15
ATOM     15  C   UNL     1      48.895   8.116  12.054  0.00  0.00    +0.000 A 
ATOM     16  C   UNL     1      48.623   9.477  11.846  0.00  0.00    +0.000 A 
ATOM     17  C   UNL     1      49.593  10.316  11.305  0.00  0.00    +0.000 A 
ATOM     18  C   UNL     1      50.840   9.797  10.945  0.00  0.00    +0.000 A 
ATOM     19  C   UNL     1      51.103   8.421  11.023  0.00  0.00    +0.000 A 
ATOM     20  C   UNL     1      50.082   7.592  11.515  0.00  0.00    +0.000 A 
BRANCH  19  21
ATOM     21  C   UNL     1      52.438   7.851  10.754  0.00  0.00    +0.000 A 
ATOM     22  C   UNL     1      53.576   8.314  11.427  0.00  0.00    +0.000 A 
ATOM     23  C   UNL     1      54.797   7.699  11.197  0.00  0.00    +0.000 A 
ATOM     24  N   UNL     1      54.967   6.656  10.359  0.00  0.00    +0.000 NA
ATOM     25  C   UNL     1      53.867   6.213   9.722  0.00  0.00    +0.000 A 
ATOM     26  C   UNL     1      52.607   6.768   9.881  0.00  0.00    +0.000 A 
ENDBRANCH  19  21
ENDBRANCH   1  15
TORSDOF 4
ENDMDL
MODEL 8
REMARK VINA RESULT:    -6.022      3.057      6.983
REMARK INTER + INTRA:          -7.968
REMARK INTER:                  -7.832
REMARK INTRA:                  -0.136
REMARK UNBOUND:                -0.538
REMARK  Name = 
REMARK  4 active torsions:
REMARK  status: ('A' for Active; 'I' for Inactive)
REMARK    1  A    between atoms: C_2  and  C_4
REMARK    2  A    between atoms: C_7  and  C_8
REMARK    3  A    between atoms: C_8  and  C_9
REMARK    4  A    between atoms: C_13  and  C_14
REMARK                            x       y       z     vdW  Elec       q    Type
REMARK                         _______ _______ _______ _____ _____    ______ ____
ROOT
ATOM      1  C   UNL     1      45.832   7.727  12.036  0.00  0.00    +0.000 C 
ATOM      2  C   UNL     1      45.357   8.961  11.261  0.00  0.00    +0.000 C 
ATOM      3  C   UNL     1      44.891   8.783  12.662  0.00  0.00    +0.000 C 
ENDROOT
BRANCH   1   7
ATOM      4  C   UNL     1      49.827   7.753  13.658  0.00  0.00    +0.000 A 
ATOM      5  C   UNL     1      49.629   8.287  12.383  0.00  0.00    +0.000 A 
ATOM      6  C   UNL     1      48.339   8.273  11.825  0.00  0.00    +0.000 A 
ATOM      7  C   UNL     1      47.275   7.716  12.544  0.00  0.00    +0.000 A 
ATOM      8  N   UNL     1      47.487   7.181  13.775  0.00  0.00    +0.000 NA
ATOM      9  C   UNL     1      48.733   7.204  14.301  0.00  0.00    +0.000 A 
BRANCH   4  11
ATOM     10  N   UNL     1      52.241   8.073  13.675  0.00  0.00    +0.000 N 
ATOM     11  C   UNL     1      51.128   7.709  14.372  0.00  0.00    +0.000 C 
ATOM     12  O   UNL     1      51.196   7.394  15.553  0.00  0.00    +0.000 OA
ATOM     13  H   UNL     1      53.079   8.179  14.237  0.00  0.00    +0.000 HD
ATOM     14  H   UNL     1      52.200   8.577  12.801  0.00  0.00    +0.000 HD
ENDBRANCH   4  11
ENDBRANCH   1   7
BRANCH   1  15
ATOM     15  C   UNL     1      45.103   6.399  11.821  0.00  0.00    +0.000 A 
ATOM     16  C   UNL     1      43.760   6.259  12.200  0.00  0.00    +0.000 A 
ATOM     17  C   UNL     1      42.947   5.312  11.584  0.00  0.00    +0.000 A 
ATOM     18  C   UNL     1      43.477   4.478  10.595  0.00  0.00    +0.000 A 
ATOM     19  C   UNL     1      44.843   4.506  10.278  0.00  0.00    +0.000 A 
ATOM     20  C   UNL     1      45.649   5.430  10.962  0.00  0.00    +0.000 A 
BRANCH  19  21
ATOM     21  C   UNL     1      45.418   3.719   9.169  0.00  0.00    +0.000 A 
ATOM     22  C   UNL     1      46.054   4.344   8.088  0.00  0.00    +0.000 A 
ATOM     23  C   UNL     1      46.645   3.563   7.106  0.00  0.00    +0.000 A 
ATOM     24  N   UNL     1      46.659   2.215   7.125  0.00  0.00    +0.000 NA
ATOM     25  C   UNL     1      46.052   1.623   8.172  0.00  0.00    +0.000 A 
ATOM     26  C   UNL     1      45.428   2.318   9.196  0.00  0.00    +0.000 A 
ENDBRANCH  19  21
ENDBRANCH   1  15
TORSDOF 4
ENDMDL
MODEL 9
REMARK VINA RESULT:    -5.546      4.731      6.476
REMARK INTER + INTRA:          -7.381
REMARK INTER:                  -7.072
REMARK INTRA:                  -0.309
REMARK UNBOUND:                -0.538
REMARK  Name = 
REMARK  4 active torsions:
REMARK  status: ('A' for Active; 'I' for Inactive)
REMARK    1  A    between atoms: C_2  and  C_4
REMARK    2  A    between atoms: C_7  and  C_8
REMARK    3  A    between atoms: C_8  and  C_9
REMARK    4  A    between atoms: C_13  and  C_14
REMARK                            x       y       z     vdW  Elec       q    Type
REMARK                         _______ _______ _______ _____ _____    ______ ____
ROOT
ATOM      1  C   UNL     1      48.001   4.401  16.393  0.00  0.00    +0.000 C 
ATOM      2  C   UNL     1      48.263   2.903  16.587  0.00  0.00    +0.000 C 
ATOM      3  C   UNL     1      47.137   3.526  17.331  0.00  0.00    +0.000 C 
ENDROOT
BRANCH   1   7
ATOM      4  C   UNL     1      46.166   5.453  12.636  0.00  0.00    +0.000 A 
ATOM      5  C   UNL     1      47.127   6.317  13.166  0.00  0.00    +0.000 A 
ATOM      6  C   UNL     1      47.726   6.005  14.398  0.00  0.00    +0.000 A 
ATOM      7  C   UNL     1      47.347   4.846  15.084  0.00  0.00    +0.000 A 
ATOM      8  N   UNL     1      46.395   4.025  14.566  0.00  0.00    +0.000 NA
ATOM      9  C   UNL     1      45.828   4.336  13.377  0.00  0.00    +0.000 A 
BRANCH   4  11
ATOM     10  N   UNL     1      45.043   6.913  11.042  0.00  0.00    +0.000 N 
ATOM     11  C   UNL     1      45.461   5.651  11.345  0.00  0.00    +0.000 C 
ATOM     12  O   UNL     1      45.292   4.724  10.562  0.00  0.00    +0.000 OA
ATOM     13  H   UNL     1      44.708   7.033  10.092  0.00  0.00    +0.000 HD
ATOM     14  H   UNL     1      45.382   7.732  11.523  0.00  0.00    +0.000 HD
ENDBRANCH   4  11
ENDBRANCH   1   7
BRANCH   1  15
ATOM     15  C   UNL     1      48.839   5.402  17.190  0.00  0.00    +0.000 A 
ATOM     16  C   UNL     1      50.231   5.453  17.021  0.00  0.00    +0.000 A 
ATOM     17  C   UNL     1      50.934   6.622  17.301  0.00  0.00    +0.000 A 
ATOM     18  C   UNL     1      50.253   7.746  17.777  0.00  0.00    +0.000 A 
ATOM     19  C   UNL     1      48.884   7.692  18.075  0.00  0.00    +0.000 A 
ATOM     20  C   UNL     1      48.215   6.480  17.840  0.00  0.00    +0.000 A 
BRANCH  19  21
ATOM     21  C   UNL     1      48.110   8.884  18.477  0.00  0.00    +0.000 A 
ATOM     22  C   UNL     1      47.355   8.896  19.657  0.00  0.00    +0.000 A 
ATOM     23  C   UNL     1      46.704  10.061  20.033  0.00  0.00    +0.000 A 
ATOM     24  N   UNL     1      46.757  11.212  19.331  0.00  0.00    +0.000 NA
ATOM     25  C   UNL     1      47.492  11.193  18.203  0.00  0.00    +0.000 A 
ATOM     26  C   UNL     1      48.170  10.075  17.742  0.00  0.00    +0.000 A 
ENDBRANCH  19  21
ENDBRANCH   1  15
TORSDOF 4
ENDMDL
