MODEL 1
REMARK VINA RESULT:    -7.686      0.000      0.000
REMARK INTER + INTRA:         -11.197
REMARK INTER:                 -10.606
REMARK INTRA:                  -0.591
REMARK UNBOUND:                -0.591
REMARK  Name = 
REMARK  8 active torsions:
REMARK  status: ('A' for Active; 'I' for Inactive)
REMARK    1  A    between atoms: C_1  and  C_2
REMARK    2  A    between atoms: C_2  and  O_3
REMARK    3  A    between atoms: C_5  and  O_6
REMARK    4  A    between atoms: O_6  and  C_7
REMARK    5  A    between atoms: C_9  and  C_10
REMARK    6  A    between atoms: C_10  and  C_11
REMARK    7  A    between atoms: C_11  and  N_12
REMARK    8  A    between atoms: C_17  and  C_18
REMARK                            x       y       z     vdW  Elec       q    Type
REMARK                         _______ _______ _______ _____ _____    ______ ____
ROOT
ATOM      1  C   UNL     1      46.000   6.221  11.768  0.00  0.00    +0.000 C 
ENDROOT
BRANCH   1   4
ATOM      2  C   UNL     1      44.576   3.219   9.884  0.00  0.00    +0.000 A 
ATOM      3  C   UNL     1      45.352   4.341  10.181  0.00  0.00    +0.000 A 
ATOM      4  C   UNL     1      45.138   5.027  11.391  0.00  0.00    +0.000 A 
ATOM      5  C   UNL     1      44.115   4.547  12.220  0.00  0.00    +0.000 A 
ATOM      6  C   UNL     1      43.391   3.429  11.827  0.00  0.00    +0.000 A 
ATOM      7  N   UNL     1      43.600   2.753  10.684  0.00  0.00    +0.000 NA
BRANCH   2   8
ATOM      8  O   UNL     1      44.836   2.550   8.701  0.00  0.00    +0.000 OA
BRANCH   8  12
ATOM      9  C   UNL     1      47.319   2.190   4.922  0.00  0.00    +0.000 C 
ATOM     10  C   UNL     1      47.387   2.535   6.400  0.00  0.00    +0.000 C 
ATOM     11  C   UNL     1      46.699   1.502   7.321  0.00  0.00    +0.000 C 
ATOM     12  C   UNL     1      46.185   2.682   8.186  0.00  0.00    +0.000 C 
ATOM     13  C   UNL     1      46.337   3.562   6.912  0.00  0.00    +0.000 C 
BRANCH  10  14
ATOM     14  O   UNL     1      48.754   2.853   6.747  0.00  0.00    +0.000 OA
ATOM     15  H   UNL     1      49.285   2.586   5.977  0.00  0.00    +0.000 HD
ENDBRANCH  10  14
ENDBRANCH   8  12
ENDBRANCH   2   8
ENDBRANCH   1   4
BRANCH   1  16
ATOM     16  C   UNL     1      46.417   6.276  13.252  0.00  0.00    +0.000 C 
BRANCH  16  17
ATOM     17  N   UNL     1      47.855   6.421  13.419  0.00  0.00    +0.000 N 
ATOM     18  C   UNL     1      48.306   6.071  14.689  0.00  0.00    +0.000 A 
ATOM     19  N   UNL     1      49.384   6.739  15.119  0.00  0.00    +0.000 NA
ATOM     20  C   UNL     1      49.868   6.422  16.335  0.00  0.00    +0.000 A 
ATOM     21  C   UNL     1      49.312   5.479  17.149  0.00  0.00    +0.000 A 
ATOM     22  C   UNL     1      48.198   4.861  16.629  0.00  0.00    +0.000 A 
ATOM     23  N   UNL     1      47.669   5.140  15.412  0.00  0.00    +0.000 NA
ATOM     24  H   UNL     1      48.229   7.348  13.247  0.00  0.00    +0.000 HD
BRANCH  22  25
ATOM     25  C   UNL     1      47.524   3.794  17.431  0.00  0.00    +0.000 C 
ATOM     26  N   UNL     1      48.164   3.417  18.582  0.00  0.00    +0.000 N 
ATOM     27  O   UNL     1      46.470   3.287  17.089  0.00  0.00    +0.000 OA
ATOM     28  H   UNL     1      49.007   3.895  18.876  0.00  0.00    +0.000 HD
ATOM     29  H   UNL     1      47.711   2.754  19.196  0.00  0.00    +0.000 HD
ENDBRANCH  22  25
ENDBRANCH  16  17
ENDBRANCH   1  16
TORSDOF 7
ENDMDL
MODEL 2
REMARK VINA RESULT:    -7.672      1.729      2.034
REMARK INTER + INTRA:         -11.178
REMARK INTER:                 -10.588
REMARK INTRA:                  -0.590
REMARK UNBOUND:                -0.591
REMARK  Name = 
REMARK  8 active torsions:
REMARK  status: ('A' for Active; 'I' for Inactive)
REMARK    1  A    between atoms: C_1  and  C_2
REMARK    2  A    between atoms: C_2  and  O_3
REMARK    3  A    between atoms: C_5  and  O_6
REMARK    4  A    between atoms: O_6  and  C_7
REMARK    5  A    between atoms: C_9  and  C_10
REMARK    6  A    between atoms: C_10  and  C_11
REMARK    7  A    between atoms: C_11  and  N_12
REMARK    8  A    between atoms: C_17  and  C_18
REMARK                            x       y       z     vdW  Elec       q    Type
REMARK                         _______ _______ _______ _____ _____    ______ ____
ROOT
ATOM      1  C   UNL     1      45.292   5.637  13.267  0.00  0.00    +0.000 C 
ENDROOT
BRANCH   1   4
ATOM      2  C   UNL     1      44.557   3.906   9.943  0.00  0.00    +0.000 A 
ATOM      3  C   UNL     1      45.064   4.819  10.869  0.00  0.00    +0.000 A 
ATOM      4  C   UNL     1      44.716   4.690  12.226  0.00  0.00    +0.000 A 
ATOM      5  C   UNL     1      43.837   3.651  12.560  0.00  0.00    +0.000 A 
ATOM      6  C   UNL     1      43.378   2.803  11.561  0.00  0.00    +0.000 A 
ATOM      7  N   UNL     1      43.721   2.902  10.264  0.00  0.00    +0.000 NA
BRANCH   2   8
ATOM      8  O   UNL     1      44.947   4.042   8.622  0.00  0.00    +0.000 OA
BRANCH   8  12
ATOM      9  C   UNL     1      47.219   2.596   4.971  0.00  0.00    +0.000 C 
ATOM     10  C   UNL     1      47.171   2.524   6.488  0.00  0.00    +0.000 C 
ATOM     11  C   UNL     1      45.771   2.209   7.062  0.00  0.00    +0.000 C 
ATOM     12  C   UNL     1      46.062   3.214   8.206  0.00  0.00    +0.000 C 
ATOM     13  C   UNL     1      47.076   3.885   7.236  0.00  0.00    +0.000 C 
BRANCH  10  14
ATOM     14  O   UNL     1      48.233   1.660   6.953  0.00  0.00    +0.000 OA
ATOM     15  H   UNL     1      47.912   1.282   7.791  0.00  0.00    +0.000 HD
ENDBRANCH  10  14
ENDBRANCH   8  12
ENDBRANCH   2   8
ENDBRANCH   1   4
BRANCH   1  16
ATOM     16  C   UNL     1      46.713   5.281  13.751  0.00  0.00    +0.000 C 
BRANCH  16  17
ATOM     17  N   UNL     1      46.838   3.878  14.116  0.00  0.00    +0.000 N 
ATOM     18  C   UNL     1      47.445   3.677  15.354  0.00  0.00    +0.000 A 
ATOM     19  N   UNL     1      48.151   2.546  15.470  0.00  0.00    +0.000 NA
ATOM     20  C   UNL     1      48.740   2.299  16.655  0.00  0.00    +0.000 A 
ATOM     21  C   UNL     1      48.669   3.142  17.726  0.00  0.00    +0.000 A 
ATOM     22  C   UNL     1      47.939   4.286  17.504  0.00  0.00    +0.000 A 
ATOM     23  N   UNL     1      47.324   4.585  16.333  0.00  0.00    +0.000 NA
ATOM     24  H   UNL     1      47.357   3.296  13.467  0.00  0.00    +0.000 HD
BRANCH  22  25
ATOM     25  C   UNL     1      47.779   5.269  18.621  0.00  0.00    +0.000 C 
ATOM     26  N   UNL     1      46.502   5.705  18.856  0.00  0.00    +0.000 N 
ATOM     27  O   UNL     1      48.722   5.660  19.286  0.00  0.00    +0.000 OA
ATOM     28  H   UNL     1      45.728   5.318  18.329  0.00  0.00    +0.000 HD
ATOM     29  H   UNL     1      46.331   6.310  19.647  0.00  0.00    +0.000 HD
ENDBRANCH  22  25
ENDBRANCH  16  17
ENDBRANCH   1  16
TORSDOF 7
ENDMDL
MODEL 3
REMARK VINA RESULT:    -7.598      1.677      2.033
REMARK INTER + INTRA:         -11.076
REMARK INTER:                 -10.510
REMARK INTRA:                  -0.566
REMARK UNBOUND:                -0.591
REMARK  Name = 
REMARK  8 active torsions:
REMARK  status: ('A' for Active; 'I' for Inactive)
REMARK    1  A    between atoms: C_1  and  C_2
REMARK    2  A    between atoms: C_2  and  O_3
REMARK    3  A    between atoms: C_5  and  O_6
REMARK    4  A    between atoms: O_6  and  C_7
REMARK    5  A    between atoms: C_9  and  C_10
REMARK    6  A    between atoms: C_10  and  C_11
REMARK    7  A    between atoms: C_11  and  N_12
REMARK    8  A    between atoms: C_17  and  C_18
REMARK                            x       y       z     vdW  Elec       q    Type
REMARK                         _______ _______ _______ _____ _____    ______ ____
ROOT
ATOM      1  C   UNL     1      46.194   5.488  13.174  0.00  0.00    +0.000 C 
ENDROOT
BRANCH   1   4
ATOM      2  C   UNL     1      44.496   3.797  10.200  0.00  0.00    +0.000 A 
ATOM      3  C   UNL     1      45.361   4.608  10.937  0.00  0.00    +0.000 A 
ATOM      4  C   UNL     1      45.235   4.655  12.338  0.00  0.00    +0.000 A 
ATOM      5  C   UNL     1      44.206   3.894  12.909  0.00  0.00    +0.000 A 
ATOM      6  C   UNL     1      43.390   3.129  12.086  0.00  0.00    +0.000 A 
ATOM      7  N   UNL     1      43.514   3.059  10.749  0.00  0.00    +0.000 NA
BRANCH   2   8
ATOM      8  O   UNL     1      44.669   3.749   8.828  0.00  0.00    +0.000 OA
BRANCH   8  12
ATOM      9  C   UNL     1      47.046   2.755   5.094  0.00  0.00    +0.000 C 
ATOM     10  C   UNL     1      47.076   2.700   6.612  0.00  0.00    +0.000 C 
ATOM     11  C   UNL     1      45.800   2.106   7.248  0.00  0.00    +0.000 C 
ATOM     12  C   UNL     1      45.917   3.169   8.370  0.00  0.00    +0.000 C 
ATOM     13  C   UNL     1      46.724   4.023   7.352  0.00  0.00    +0.000 C 
BRANCH  10  14
ATOM     14  O   UNL     1      48.315   2.089   7.037  0.00  0.00    +0.000 OA
ATOM     15  H   UNL     1      48.263   2.046   8.008  0.00  0.00    +0.000 HD
ENDBRANCH  10  14
ENDBRANCH   8  12
ENDBRANCH   2   8
ENDBRANCH   1   4
BRANCH   1  16
ATOM     16  C   UNL     1      46.923   4.711  14.290  0.00  0.00    +0.000 C 
BRANCH  16  17
ATOM     17  N   UNL     1      47.149   5.524  15.474  0.00  0.00    +0.000 N 
ATOM     18  C   UNL     1      47.790   4.841  16.505  0.00  0.00    +0.000 A 
ATOM     19  N   UNL     1      47.471   5.238  17.742  0.00  0.00    +0.000 NA
ATOM     20  C   UNL     1      48.080   4.619  18.771  0.00  0.00    +0.000 A 
ATOM     21  C   UNL     1      48.982   3.606  18.619  0.00  0.00    +0.000 A 
ATOM     22  C   UNL     1      49.230   3.255  17.312  0.00  0.00    +0.000 A 
ATOM     23  N   UNL     1      48.647   3.845  16.239  0.00  0.00    +0.000 NA
ATOM     24  H   UNL     1      46.321   5.930  15.897  0.00  0.00    +0.000 HD
BRANCH  22  25
ATOM     25  C   UNL     1      50.221   2.170  17.032  0.00  0.00    +0.000 C 
ATOM     26  N   UNL     1      51.188   1.984  17.983  0.00  0.00    +0.000 N 
ATOM     27  O   UNL     1      50.176   1.490  16.022  0.00  0.00    +0.000 OA
ATOM     28  H   UNL     1      51.167   2.521  18.842  0.00  0.00    +0.000 HD
ATOM     29  H   UNL     1      51.835   1.214  17.877  0.00  0.00    +0.000 HD
ENDBRANCH  22  25
ENDBRANCH  16  17
ENDBRANCH   1  16
TORSDOF 7
ENDMDL
MODEL 4
REMARK VINA RESULT:    -7.103      2.654      8.212
REMARK INTER + INTRA:         -10.393
REMARK INTER:                  -9.574
REMARK INTRA:                  -0.819
REMARK UNBOUND:                -0.591
REMARK  Name = 
REMARK  8 active torsions:
REMARK  status: ('A' for Active; 'I' for Inactive)
REMARK    1  A    between atoms: C_1  and  C_2
REMARK    2  A    between atoms: C_2  and  O_3
REMARK    3  A    between atoms: C_5  and  O_6
REMARK    4  A    between atoms: O_6  and  C_7
REMARK    5  A    between atoms: C_9  and  C_10
REMARK    6  A    between atoms: C_10  and  C_11
REMARK    7  A    between atoms: C_11  and  N_12
REMARK    8  A    between atoms: C_17  and  C_18
REMARK                            x       y       z     vdW  Elec       q    Type
REMARK                         _______ _______ _______ _____ _____    ______ ____
ROOT
ATOM      1  C   UNL     1      45.702   8.626  12.929  0.00  0.00    +0.000 C 
ENDROOT
BRANCH   1   4
ATOM      2  C   UNL     1      48.926   6.925  14.069  0.00  0.00    +0.000 A 
ATOM      3  C   UNL     1      47.624   7.427  14.088  0.00  0.00    +0.000 A 
ATOM      4  C   UNL     1      47.133   8.113  12.961  0.00  0.00    +0.000 A 
ATOM      5  C   UNL     1      48.015   8.279  11.885  0.00  0.00    +0.000 A 
ATOM      6  C   UNL     1      49.297   7.752  11.971  0.00  0.00    +0.000 A 
ATOM      7  N   UNL     1      49.771   7.077  13.033  0.00  0.00    +0.000 NA
BRANCH   2   8
ATOM      8  O   UNL     1      49.365   6.227  15.180  0.00  0.00    +0.000 OA
BRANCH   8  12
ATOM      9  C   UNL     1      48.112   3.203  18.321  0.00  0.00    +0.000 C 
ATOM     10  C   UNL     1      47.751   4.543  17.703  0.00  0.00    +0.000 C 
ATOM     11  C   UNL     1      47.730   4.541  16.158  0.00  0.00    +0.000 C 
ATOM     12  C   UNL     1      48.361   5.956  16.191  0.00  0.00    +0.000 C 
ATOM     13  C   UNL     1      48.905   5.582  17.599  0.00  0.00    +0.000 C 
BRANCH  10  14
ATOM     14  O   UNL     1      46.550   5.044  18.333  0.00  0.00    +0.000 OA
ATOM     15  H   UNL     1      45.855   4.977  17.655  0.00  0.00    +0.000 HD
ENDBRANCH  10  14
ENDBRANCH   8  12
ENDBRANCH   2   8
ENDBRANCH   1   4
BRANCH   1  16
ATOM     16  C   UNL     1      44.688   7.678  12.257  0.00  0.00    +0.000 C 
BRANCH  16  17
ATOM     17  N   UNL     1      44.578   6.404  12.949  0.00  0.00    +0.000 N 
ATOM     18  C   UNL     1      44.346   5.326  12.098  0.00  0.00    +0.000 A 
ATOM     19  N   UNL     1      43.628   4.325  12.622  0.00  0.00    +0.000 NA
ATOM     20  C   UNL     1      43.394   3.253  11.842  0.00  0.00    +0.000 A 
ATOM     21  C   UNL     1      43.831   3.143  10.554  0.00  0.00    +0.000 A 
ATOM     22  C   UNL     1      44.542   4.229  10.099  0.00  0.00    +0.000 A 
ATOM     23  N   UNL     1      44.808   5.333  10.840  0.00  0.00    +0.000 NA
ATOM     24  H   UNL     1      43.854   6.346  13.657  0.00  0.00    +0.000 HD
BRANCH  22  25
ATOM     25  C   UNL     1      45.088   4.202   8.706  0.00  0.00    +0.000 C 
ATOM     26  N   UNL     1      44.537   3.271   7.866  0.00  0.00    +0.000 N 
ATOM     27  O   UNL     1      45.967   4.960   8.334  0.00  0.00    +0.000 OA
ATOM     28  H   UNL     1      43.766   2.695   8.181  0.00  0.00    +0.000 HD
ATOM     29  H   UNL     1      44.818   3.264   6.895  0.00  0.00    +0.000 HD
ENDBRANCH  22  25
ENDBRANCH  16  17
ENDBRANCH   1  16
TORSDOF 7
ENDMDL
MODEL 5
REMARK VINA RESULT:    -7.086      2.262      3.808
REMARK INTER + INTRA:         -10.370
REMARK INTER:                  -9.548
REMARK INTRA:                  -0.822
REMARK UNBOUND:                -0.591
REMARK  Name = 
REMARK  8 active torsions:
REMARK  status: ('A' for Active; 'I' for Inactive)
REMARK    1  A    between atoms: C_1  and  C_2
REMARK    2  A    between atoms: C_2  and  O_3
REMARK    3  A    between atoms: C_5  and  O_6
REMARK    4  A    between atoms: O_6  and  C_7
REMARK    5  A    between atoms: C_9  and  C_10
REMARK    6  A    between atoms: C_10  and  C_11
REMARK    7  A    between atoms: C_11  and  N_12
REMARK    8  A    between atoms: C_17  and  C_18
REMARK                            x       y       z     vdW  Elec       q    Type
REMARK                         _______ _______ _______ _____ _____    ______ ____
ROOT
ATOM      1  C   UNL     1      49.468   7.659  13.789  0.00  0.00    +0.000 C 
ENDROOT
BRANCH   1   4
ATOM      2  C   UNL     1      46.165   6.117  12.648  0.00  0.00    +0.000 A 
ATOM      3  C   UNL     1      47.515   6.243  12.980  0.00  0.00    +0.000 A 
ATOM      4  C   UNL     1      48.015   7.499  13.372  0.00  0.00    +0.000 A 
ATOM      5  C   UNL     1      47.111   8.570  13.371  0.00  0.00    +0.000 A 
ATOM      6  C   UNL     1      45.789   8.343  13.011  0.00  0.00    +0.000 A 
ATOM      7  N   UNL     1      45.295   7.144  12.655  0.00  0.00    +0.000 NA
BRANCH   2   8
ATOM      8  O   UNL     1      45.700   4.862  12.299  0.00  0.00    +0.000 OA
BRANCH   8  12
ATOM      9  C   UNL     1      45.786   3.481   7.978  0.00  0.00    +0.000 C 
ATOM     10  C   UNL     1      44.912   4.137   9.034  0.00  0.00    +0.000 C 
ATOM     11  C   UNL     1      45.600   5.294   9.793  0.00  0.00    +0.000 C 
ATOM     12  C   UNL     1      44.905   4.799  11.088  0.00  0.00    +0.000 C 
ATOM     13  C   UNL     1      44.826   3.404  10.404  0.00  0.00    +0.000 C 
BRANCH  10  14
ATOM     14  O   UNL     1      43.631   4.463   8.450  0.00  0.00    +0.000 OA
ATOM     15  H   UNL     1      42.968   4.178   9.103  0.00  0.00    +0.000 HD
ENDBRANCH  10  14
ENDBRANCH   8  12
ENDBRANCH   2   8
ENDBRANCH   1   4
BRANCH   1  16
ATOM     16  C   UNL     1      49.688   7.878  15.300  0.00  0.00    +0.000 C 
BRANCH  16  17
ATOM     17  N   UNL     1      50.706   6.995  15.845  0.00  0.00    +0.000 N 
ATOM     18  C   UNL     1      50.185   5.914  16.554  0.00  0.00    +0.000 A 
ATOM     19  N   UNL     1      50.945   5.469  17.561  0.00  0.00    +0.000 NA
ATOM     20  C   UNL     1      50.491   4.413  18.263  0.00  0.00    +0.000 A 
ATOM     21  C   UNL     1      49.301   3.793  18.014  0.00  0.00    +0.000 A 
ATOM     22  C   UNL     1      48.583   4.334  16.973  0.00  0.00    +0.000 A 
ATOM     23  N   UNL     1      48.993   5.394  16.232  0.00  0.00    +0.000 NA
ATOM     24  H   UNL     1      51.377   7.426  16.472  0.00  0.00    +0.000 HD
BRANCH  22  25
ATOM     25  C   UNL     1      47.274   3.714  16.600  0.00  0.00    +0.000 C 
ATOM     26  N   UNL     1      46.928   3.798  15.278  0.00  0.00    +0.000 N 
ATOM     27  O   UNL     1      46.555   3.166  17.417  0.00  0.00    +0.000 OA
ATOM     28  H   UNL     1      47.570   4.204  14.609  0.00  0.00    +0.000 HD
ATOM     29  H   UNL     1      46.089   3.329  14.963  0.00  0.00    +0.000 HD
ENDBRANCH  22  25
ENDBRANCH  16  17
ENDBRANCH   1  16
TORSDOF 7
ENDMDL
MODEL 6
REMARK VINA RESULT:    -7.014      3.290      4.637
REMARK INTER + INTRA:         -10.271
REMARK INTER:                  -9.046
REMARK INTRA:                  -1.225
REMARK UNBOUND:                -0.591
REMARK  Name = 
REMARK  8 active torsions:
REMARK  status: ('A' for Active; 'I' for Inactive)
REMARK    1  A    between atoms: C_1  and  C_2
REMARK    2  A    between atoms: C_2  and  O_3
REMARK    3  A    between atoms: C_5  and  O_6
REMARK    4  A    between atoms: O_6  and  C_7
REMARK    5  A    between atoms: C_9  and  C_10
REMARK    6  A    between atoms: C_10  and  C_11
REMARK    7  A    between atoms: C_11  and  N_12
REMARK    8  A    between atoms: C_17  and  C_18
REMARK                            x       y       z     vdW  Elec       q    Type
REMARK                         _______ _______ _______ _____ _____    ______ ____
ROOT
ATOM      1  C   UNL     1      49.072   8.490  12.782  0.00  0.00    +0.000 C 
ENDROOT
BRANCH   1   4
ATOM      2  C   UNL     1      45.404   8.024  11.826  0.00  0.00    +0.000 A 
ATOM      3  C   UNL     1      46.731   7.727  12.142  0.00  0.00    +0.000 A 
ATOM      4  C   UNL     1      47.633   8.779  12.384  0.00  0.00    +0.000 A 
ATOM      5  C   UNL     1      47.137  10.084  12.258  0.00  0.00    +0.000 A 
ATOM      6  C   UNL     1      45.802  10.273  11.926  0.00  0.00    +0.000 A 
ATOM      7  N   UNL     1      44.925   9.276  11.712  0.00  0.00    +0.000 NA
BRANCH   2   8
ATOM      8  O   UNL     1      44.536   6.966  11.625  0.00  0.00    +0.000 OA
BRANCH   8  12
ATOM      9  C   UNL     1      43.414   2.574  11.829  0.00  0.00    +0.000 C 
ATOM     10  C   UNL     1      44.522   3.567  12.134  0.00  0.00    +0.000 C 
ATOM     11  C   UNL     1      44.053   4.821  12.906  0.00  0.00    +0.000 C 
ATOM     12  C   UNL     1      45.023   5.664  12.040  0.00  0.00    +0.000 C 
ATOM     13  C   UNL     1      44.914   4.533  10.978  0.00  0.00    +0.000 C 
BRANCH  10  14
ATOM     14  O   UNL     1      45.636   2.863  12.727  0.00  0.00    +0.000 OA
ATOM     15  H   UNL     1      45.876   2.172  12.085  0.00  0.00    +0.000 HD
ENDBRANCH  10  14
ENDBRANCH   8  12
ENDBRANCH   2   8
ENDBRANCH   1   4
BRANCH   1  16
ATOM     16  C   UNL     1      49.278   7.171  13.554  0.00  0.00    +0.000 C 
BRANCH  16  17
ATOM     17  N   UNL     1      49.866   7.384  14.867  0.00  0.00    +0.000 N 
ATOM     18  C   UNL     1      49.187   6.731  15.894  0.00  0.00    +0.000 A 
ATOM     19  N   UNL     1      49.226   7.339  17.085  0.00  0.00    +0.000 NA
ATOM     20  C   UNL     1      48.600   6.736  18.113  0.00  0.00    +0.000 A 
ATOM     21  C   UNL     1      47.920   5.558  17.999  0.00  0.00    +0.000 A 
ATOM     22  C   UNL     1      47.920   5.020  16.733  0.00  0.00    +0.000 A 
ATOM     23  N   UNL     1      48.534   5.583  15.663  0.00  0.00    +0.000 NA
ATOM     24  H   UNL     1      49.940   8.350  15.168  0.00  0.00    +0.000 HD
BRANCH  22  25
ATOM     25  C   UNL     1      47.222   3.716  16.503  0.00  0.00    +0.000 C 
ATOM     26  N   UNL     1      47.144   3.302  15.200  0.00  0.00    +0.000 N 
ATOM     27  O   UNL     1      46.750   3.058  17.414  0.00  0.00    +0.000 OA
ATOM     28  H   UNL     1      47.598   3.837  14.469  0.00  0.00    +0.000 HD
ATOM     29  H   UNL     1      46.750   2.393  15.000  0.00  0.00    +0.000 HD
ENDBRANCH  22  25
ENDBRANCH  16  17
ENDBRANCH   1  16
TORSDOF 7
ENDMDL
MODEL 7
REMARK VINA RESULT:    -6.985      2.811      4.373
REMARK INTER + INTRA:         -10.230
REMARK INTER:                  -9.499
REMARK INTRA:                  -0.730
REMARK UNBOUND:                -0.591
REMARK  Name = 
REMARK  8 active torsions:
REMARK  status: ('A' for Active; 'I' for Inactive)
REMARK    1  A    between atoms: C_1  and  C_2
REMARK    2  A    between atoms: C_2  and  O_3
REMARK    3  A    between atoms: C_5  and  O_6
REMARK    4  A    between atoms: O_6  and  C_7
REMARK    5  A    between atoms: C_9  and  C_10
REMARK    6  A    between atoms: C_10  and  C_11
REMARK    7  A    between atoms: C_11  and  N_12
REMARK    8  A    between atoms: C_17  and  C_18
REMARK                            x       y       z     vdW  Elec       q    Type
REMARK                         _______ _______ _______ _____ _____    ______ ____
ROOT
ATOM      1  C   UNL     1      49.055   6.757  13.935  0.00  0.00    +0.000 C 
ENDROOT
BRANCH   1   4
ATOM      2  C   UNL     1      45.390   6.724  12.861  0.00  0.00    +0.000 A 
ATOM      3  C   UNL     1      46.657   6.273  13.236  0.00  0.00    +0.000 A 
ATOM      4  C   UNL     1      47.679   7.211  13.476  0.00  0.00    +0.000 A 
ATOM      5  C   UNL     1      47.357   8.562  13.287  0.00  0.00    +0.000 A 
ATOM      6  C   UNL     1      46.069   8.906  12.900  0.00  0.00    +0.000 A 
ATOM      7  N   UNL     1      45.079   8.021  12.688  0.00  0.00    +0.000 NA
BRANCH   2   8
ATOM      8  O   UNL     1      44.401   5.777  12.665  0.00  0.00    +0.000 OA
BRANCH   8  12
ATOM      9  C   UNL     1      44.826   2.542   9.512  0.00  0.00    +0.000 C 
ATOM     10  C   UNL     1      44.270   3.933   9.768  0.00  0.00    +0.000 C 
ATOM     11  C   UNL     1      45.271   4.899  10.441  0.00  0.00    +0.000 C 
ATOM     12  C   UNL     1      44.096   5.460  11.283  0.00  0.00    +0.000 C 
ATOM     13  C   UNL     1      43.391   4.095  11.042  0.00  0.00    +0.000 C 
BRANCH  10  14
ATOM     14  O   UNL     1      43.660   4.428   8.555  0.00  0.00    +0.000 OA
ATOM     15  H   UNL     1      43.173   3.672   8.183  0.00  0.00    +0.000 HD
ENDBRANCH  10  14
ENDBRANCH   8  12
ENDBRANCH   2   8
ENDBRANCH   1   4
BRANCH   1  16
ATOM     16  C   UNL     1      49.362   7.021  15.423  0.00  0.00    +0.000 C 
BRANCH  16  17
ATOM     17  N   UNL     1      48.282   6.589  16.296  0.00  0.00    +0.000 N 
ATOM     18  C   UNL     1      48.387   5.260  16.698  0.00  0.00    +0.000 A 
ATOM     19  N   UNL     1      47.226   4.633  16.917  0.00  0.00    +0.000 NA
ATOM     20  C   UNL     1      47.278   3.350  17.326  0.00  0.00    +0.000 A 
ATOM     21  C   UNL     1      48.441   2.661  17.507  0.00  0.00    +0.000 A 
ATOM     22  C   UNL     1      49.581   3.383  17.239  0.00  0.00    +0.000 A 
ATOM     23  N   UNL     1      49.586   4.675  16.826  0.00  0.00    +0.000 NA
ATOM     24  H   UNL     1      47.344   6.681  15.920  0.00  0.00    +0.000 HD
BRANCH  22  25
ATOM     25  C   UNL     1      50.912   2.728  17.429  0.00  0.00    +0.000 C 
ATOM     26  N   UNL     1      50.945   1.373  17.232  0.00  0.00    +0.000 N 
ATOM     27  O   UNL     1      51.910   3.355  17.737  0.00  0.00    +0.000 OA
ATOM     28  H   UNL     1      50.116   0.884  16.916  0.00  0.00    +0.000 HD
ATOM     29  H   UNL     1      51.835   0.896  17.274  0.00  0.00    +0.000 HD
ENDBRANCH  22  25
ENDBRANCH  16  17
ENDBRANCH   1  16
TORSDOF 7
ENDMDL
MODEL 8
REMARK VINA RESULT:    -6.930      2.573      3.772
REMARK INTER + INTRA:         -10.155
REMARK INTER:                  -9.224
REMARK INTRA:                  -0.931
REMARK UNBOUND:                -0.591
REMARK  Name = 
REMARK  8 active torsions:
REMARK  status: ('A' for Active; 'I' for Inactive)
REMARK    1  A    between atoms: C_1  and  C_2
REMARK    2  A    between atoms: C_2  and  O_3
REMARK    3  A    between atoms: C_5  and  O_6
REMARK    4  A    between atoms: O_6  and  C_7
REMARK    5  A    between atoms: C_9  and  C_10
REMARK    6  A    between atoms: C_10  and  C_11
REMARK    7  A    between atoms: C_11  and  N_12
REMARK    8  A    between atoms: C_17  and  C_18
REMARK                            x       y       z     vdW  Elec       q    Type
REMARK                         _______ _______ _______ _____ _____    ______ ____
ROOT
ATOM      1  C   UNL     1      46.109   3.916  13.394  0.00  0.00    +0.000 C 
ENDROOT
BRANCH   1   4
ATOM      2  C   UNL     1      44.142   4.582  10.188  0.00  0.00    +0.000 A 
ATOM      3  C   UNL     1      45.161   4.163  11.046  0.00  0.00    +0.000 A 
ATOM      4  C   UNL     1      45.043   4.405  12.427  0.00  0.00    +0.000 A 
ATOM      5  C   UNL     1      43.901   5.096  12.854  0.00  0.00    +0.000 A 
ATOM      6  C   UNL     1      42.950   5.482  11.919  0.00  0.00    +0.000 A 
ATOM      7  N   UNL     1      43.041   5.237  10.600  0.00  0.00    +0.000 NA
BRANCH   2   8
ATOM      8  O   UNL     1      44.275   4.298   8.841  0.00  0.00    +0.000 OA
BRANCH   8  12
ATOM      9  C   UNL     1      46.827   2.999   5.322  0.00  0.00    +0.000 C 
ATOM     10  C   UNL     1      46.660   2.863   6.826  0.00  0.00    +0.000 C 
ATOM     11  C   UNL     1      45.219   2.529   7.273  0.00  0.00    +0.000 C 
ATOM     12  C   UNL     1      45.420   3.484   8.479  0.00  0.00    +0.000 C 
ATOM     13  C   UNL     1      46.507   4.192   7.621  0.00  0.00    +0.000 C 
BRANCH  10  14
ATOM     14  O   UNL     1      47.682   1.976   7.335  0.00  0.00    +0.000 OA
ATOM     15  H   UNL     1      47.495   1.886   8.286  0.00  0.00    +0.000 HD
ENDBRANCH  10  14
ENDBRANCH   8  12
ENDBRANCH   2   8
ENDBRANCH   1   4
BRANCH   1  16
ATOM     16  C   UNL     1      46.358   4.837  14.606  0.00  0.00    +0.000 C 
BRANCH  16  17
ATOM     17  N   UNL     1      47.697   5.403  14.606  0.00  0.00    +0.000 N 
ATOM     18  C   UNL     1      47.861   6.448  13.700  0.00  0.00    +0.000 A 
ATOM     19  N   UNL     1      49.090   6.573  13.185  0.00  0.00    +0.000 NA
ATOM     20  C   UNL     1      49.302   7.581  12.318  0.00  0.00    +0.000 A 
ATOM     21  C   UNL     1      48.334   8.460  11.928  0.00  0.00    +0.000 A 
ATOM     22  C   UNL     1      47.101   8.240  12.496  0.00  0.00    +0.000 A 
ATOM     23  N   UNL     1      46.832   7.241  13.375  0.00  0.00    +0.000 NA
ATOM     24  H   UNL     1      48.452   4.754  14.406  0.00  0.00    +0.000 HD
BRANCH  22  25
ATOM     25  C   UNL     1      45.973   9.161  12.154  0.00  0.00    +0.000 C 
ATOM     26  N   UNL     1      46.233  10.499  12.289  0.00  0.00    +0.000 N 
ATOM     27  O   UNL     1      44.888   8.754  11.777  0.00  0.00    +0.000 OA
ATOM     28  H   UNL     1      47.161  10.814  12.545  0.00  0.00    +0.000 HD
ATOM     29  H   UNL     1      45.529  11.164  11.998  0.00  0.00    +0.000 HD
ENDBRANCH  22  25
ENDBRANCH  16  17
ENDBRANCH   1  16
TORSDOF 7
ENDMDL
MODEL 9
REMARK VINA RESULT:    -6.673      3.690      8.926
REMARK INTER + INTRA:          -9.800
REMARK INTER:                  -9.175
REMARK INTRA:                  -0.625
REMARK UNBOUND:                -0.591
REMARK  Name = 
REMARK  8 active torsions:
REMARK  status: ('A' for Active; 'I' for Inactive)
REMARK    1  A    between atoms: C_1  and  C_2
REMARK    2  A    between atoms: C_2  and  O_3
REMARK    3  A    between atoms: C_5  and  O_6
REMARK    4  A    between atoms: O_6  and  C_7
REMARK    5  A    between atoms: C_9  and  C_10
REMARK    6  A    between atoms: C_10  and  C_11
REMARK    7  A    between atoms: C_11  and  N_12
REMARK    8  A    between atoms: C_17  and  C_18
REMARK                            x       y       z     vdW  Elec       q    Type
REMARK                         _______ _______ _______ _____ _____    ______ ____
ROOT
ATOM      1  C   UNL     1      47.059   3.875  17.006  0.00  0.00    +0.000 C 
ENDROOT
BRANCH   1   4
ATOM      2  C   UNL     1      50.724   4.027  18.070  0.00  0.00    +0.000 A 
ATOM      3  C   UNL     1      49.578   3.727  17.331  0.00  0.00    +0.000 A 
ATOM      4  C   UNL     1      48.321   4.140  17.812  0.00  0.00    +0.000 A 
ATOM      5  C   UNL     1      48.301   4.810  19.042  0.00  0.00    +0.000 A 
ATOM      6  C   UNL     1      49.497   5.049  19.706  0.00  0.00    +0.000 A 
ATOM      7  N   UNL     1      50.706   4.678  19.247  0.00  0.00    +0.000 NA
BRANCH   2   8
ATOM      8  O   UNL     1      51.946   3.635  17.552  0.00  0.00    +0.000 OA
BRANCH   8  12
ATOM      9  C   UNL     1      54.303  -0.124  16.602  0.00  0.00    +0.000 C 
ATOM     10  C   UNL     1      53.671   0.668  17.734  0.00  0.00    +0.000 C 
ATOM     11  C   UNL     1      52.214   1.106  17.462  0.00  0.00    +0.000 C 
ATOM     12  C   UNL     1      52.536   2.455  18.155  0.00  0.00    +0.000 C 
ATOM     13  C   UNL     1      54.023   2.183  17.790  0.00  0.00    +0.000 C 
BRANCH  10  14
ATOM     14  O   UNL     1      53.877  -0.040  18.977  0.00  0.00    +0.000 OA
ATOM     15  H   UNL     1      53.426  -0.895  18.865  0.00  0.00    +0.000 HD
ENDBRANCH  10  14
ENDBRANCH   8  12
ENDBRANCH   2   8
ENDBRANCH   1   4
BRANCH   1  16
ATOM     16  C   UNL     1      47.257   3.861  15.477  0.00  0.00    +0.000 C 
BRANCH  16  17
ATOM     17  N   UNL     1      47.160   5.189  14.893  0.00  0.00    +0.000 N 
ATOM     18  C   UNL     1      46.497   5.211  13.668  0.00  0.00    +0.000 A 
ATOM     19  N   UNL     1      46.903   6.158  12.813  0.00  0.00    +0.000 NA
ATOM     20  C   UNL     1      46.278   6.231  11.622  0.00  0.00    +0.000 A 
ATOM     21  C   UNL     1      45.276   5.387  11.240  0.00  0.00    +0.000 A 
ATOM     22  C   UNL     1      44.942   4.437  12.177  0.00  0.00    +0.000 A 
ATOM     23  N   UNL     1      45.537   4.318  13.391  0.00  0.00    +0.000 NA
ATOM     24  H   UNL     1      48.040   5.667  14.729  0.00  0.00    +0.000 HD
BRANCH  22  25
ATOM     25  C   UNL     1      43.839   3.474  11.868  0.00  0.00    +0.000 C 
ATOM     26  N   UNL     1      43.854   2.301  12.574  0.00  0.00    +0.000 N 
ATOM     27  O   UNL     1      42.976   3.714  11.041  0.00  0.00    +0.000 OA
ATOM     28  H   UNL     1      44.546   2.152  13.299  0.00  0.00    +0.000 HD
ATOM     29  H   UNL     1      43.089   1.652  12.457  0.00  0.00    +0.000 HD
ENDBRANCH  22  25
ENDBRANCH  16  17
ENDBRANCH   1  16
TORSDOF 7
ENDMDL
