MODEL 1
REMARK VINA RESULT:    -7.740      0.000      0.000
REMARK INTER + INTRA:          -9.894
REMARK INTER:                  -9.324
REMARK INTRA:                  -0.571
REMARK UNBOUND:                -0.571
REMARK  Name = 
REMARK  4 active torsions:
REMARK  status: ('A' for Active; 'I' for Inactive)
REMARK    1  A    between atoms: N_1  and  C_2
REMARK    2  A    between atoms: C_2  and  C_3
REMARK    3  A    between atoms: N_9  and  C_10
REMARK    4  A    between atoms: C_10  and  C_11
REMARK                            x       y       z     vdW  Elec       q    Type
REMARK                         _______ _______ _______ _____ _____    ______ ____
ROOT
ATOM      1  C   UNL     1      44.900   7.718  11.762  0.00  0.00    +0.000 A 
ATOM      2  C   UNL     1      45.817   7.702  12.810  0.00  0.00    +0.000 A 
ATOM      3  N   UNL     1      46.352   6.603  13.386  0.00  0.00    +0.000 NA
ATOM      4  C   UNL     1      45.938   5.427  12.856  0.00  0.00    +0.000 A 
ATOM      5  C   UNL     1      46.296   4.114  13.237  0.00  0.00    +0.000 A 
ATOM      6  C   UNL     1      45.638   3.245  12.395  0.00  0.00    +0.000 A 
ATOM      7  N   UNL     1      44.890   3.993  11.512  0.00  0.00    +0.000 N 
ATOM      8  C   UNL     1      45.040   5.335  11.792  0.00  0.00    +0.000 A 
ATOM      9  C   UNL     1      44.490   6.492  11.227  0.00  0.00    +0.000 A 
ENDROOT
BRANCH   1  10
ATOM     10  C   UNL     1      44.382   9.013  11.204  0.00  0.00    +0.000 C 
BRANCH  10  11
ATOM     11  N   UNL     1      43.044   8.865  10.645  0.00  0.00    +0.000 NA
ATOM     12  H   UNL     1      42.359   9.208  11.318  0.00  0.00    +0.000 HD
ATOM     13  H   UNL     1      42.844   7.874  10.515  0.00  0.00    +0.000 HD
ENDBRANCH  10  11
ENDBRANCH   1  10
BRANCH   7  14
ATOM     14  C   UNL     1      44.119   3.429  10.409  0.00  0.00    +0.000 C 
BRANCH  14  15
ATOM     15  C   UNL     1      45.005   3.114   9.231  0.00  0.00    +0.000 A 
ATOM     16  C   UNL     1      45.505   4.143   8.419  0.00  0.00    +0.000 A 
ATOM     17  C   UNL     1      46.393   3.859   7.380  0.00  0.00    +0.000 A 
ATOM     18  C   UNL     1      46.791   2.543   7.143  0.00  0.00    +0.000 A 
ATOM     19  C   UNL     1      46.284   1.517   7.930  0.00  0.00    +0.000 A 
ATOM     20 CL   UNL     1      46.775  -0.108   7.639  0.00  0.00    +0.000 Cl
ATOM     21  C   UNL     1      45.391   1.790   8.965  0.00  0.00    +0.000 A 
ENDBRANCH  14  15
ENDBRANCH   7  14
TORSDOF 4
ENDMDL
MODEL 2
REMARK VINA RESULT:    -7.700      1.914      2.451
REMARK INTER + INTRA:          -9.846
REMARK INTER:                  -9.271
REMARK INTRA:                  -0.575
REMARK UNBOUND:                -0.571
REMARK  Name = 
REMARK  4 active torsions:
REMARK  status: ('A' for Active; 'I' for Inactive)
REMARK    1  A    between atoms: N_1  and  C_2
REMARK    2  A    between atoms: C_2  and  C_3
REMARK    3  A    between atoms: N_9  and  C_10
REMARK    4  A    between atoms: C_10  and  C_11
REMARK                            x       y       z     vdW  Elec       q    Type
REMARK                         _______ _______ _______ _____ _____    ______ ____
ROOT
ATOM      1  C   UNL     1      46.778   5.928  12.442  0.00  0.00    +0.000 A 
ATOM      2  C   UNL     1      46.542   5.208  13.611  0.00  0.00    +0.000 A 
ATOM      3  N   UNL     1      45.649   4.206  13.764  0.00  0.00    +0.000 NA
ATOM      4  C   UNL     1      44.943   3.899  12.649  0.00  0.00    +0.000 A 
ATOM      5  C   UNL     1      43.938   2.920  12.484  0.00  0.00    +0.000 A 
ATOM      6  C   UNL     1      43.530   2.964  11.170  0.00  0.00    +0.000 A 
ATOM      7  N   UNL     1      44.261   3.941  10.529  0.00  0.00    +0.000 N 
ATOM      8  C   UNL     1      45.119   4.544  11.425  0.00  0.00    +0.000 A 
ATOM      9  C   UNL     1      46.041   5.590  11.301  0.00  0.00    +0.000 A 
ENDROOT
BRANCH   1  10
ATOM     10  C   UNL     1      47.807   7.021  12.399  0.00  0.00    +0.000 C 
BRANCH  10  11
ATOM     11  N   UNL     1      49.099   6.569  12.899  0.00  0.00    +0.000 NA
ATOM     12  H   UNL     1      49.842   7.001  12.352  0.00  0.00    +0.000 HD
ATOM     13  H   UNL     1      49.182   5.563  12.748  0.00  0.00    +0.000 HD
ENDBRANCH  10  11
ENDBRANCH   1  10
BRANCH   7  14
ATOM     14  C   UNL     1      44.174   4.226   9.101  0.00  0.00    +0.000 C 
BRANCH  14  15
ATOM     15  C   UNL     1      45.284   3.545   8.342  0.00  0.00    +0.000 A 
ATOM     16  C   UNL     1      46.245   4.300   7.653  0.00  0.00    +0.000 A 
ATOM     17  C   UNL     1      47.320   3.673   7.020  0.00  0.00    +0.000 A 
ATOM     18  C   UNL     1      47.446   2.285   7.071  0.00  0.00    +0.000 A 
ATOM     19  C   UNL     1      46.487   1.529   7.734  0.00  0.00    +0.000 A 
ATOM     20 CL   UNL     1      46.641  -0.185   7.797  0.00  0.00    +0.000 Cl
ATOM     21  C   UNL     1      45.406   2.146   8.361  0.00  0.00    +0.000 A 
ENDBRANCH  14  15
ENDBRANCH   7  14
TORSDOF 4
ENDMDL
MODEL 3
REMARK VINA RESULT:    -6.587      2.960      5.854
REMARK INTER + INTRA:          -8.506
REMARK INTER:                  -7.976
REMARK INTRA:                  -0.529
REMARK UNBOUND:                -0.571
REMARK  Name = 
REMARK  4 active torsions:
REMARK  status: ('A' for Active; 'I' for Inactive)
REMARK    1  A    between atoms: N_1  and  C_2
REMARK    2  A    between atoms: C_2  and  C_3
REMARK    3  A    between atoms: N_9  and  C_10
REMARK    4  A    between atoms: C_10  and  C_11
REMARK                            x       y       z     vdW  Elec       q    Type
REMARK                         _______ _______ _______ _____ _____    ______ ____
ROOT
ATOM      1  C   UNL     1      45.803   3.495   8.069  0.00  0.00    +0.000 A 
ATOM      2  C   UNL     1      45.182   2.258   8.218  0.00  0.00    +0.000 A 
ATOM      3  N   UNL     1      44.389   1.883   9.246  0.00  0.00    +0.000 NA
ATOM      4  C   UNL     1      44.199   2.833  10.193  0.00  0.00    +0.000 A 
ATOM      5  C   UNL     1      43.442   2.753  11.383  0.00  0.00    +0.000 A 
ATOM      6  C   UNL     1      43.529   3.975  12.012  0.00  0.00    +0.000 A 
ATOM      7  N   UNL     1      44.316   4.798  11.236  0.00  0.00    +0.000 N 
ATOM      8  C   UNL     1      44.758   4.110  10.125  0.00  0.00    +0.000 A 
ATOM      9  C   UNL     1      45.589   4.464   9.056  0.00  0.00    +0.000 A 
ENDROOT
BRANCH   1  10
ATOM     10  C   UNL     1      46.661   3.792   6.872  0.00  0.00    +0.000 C 
BRANCH  10  11
ATOM     11  N   UNL     1      47.853   2.953   6.837  0.00  0.00    +0.000 NA
ATOM     12  H   UNL     1      47.977   2.585   5.895  0.00  0.00    +0.000 HD
ATOM     13  H   UNL     1      47.709   2.144   7.441  0.00  0.00    +0.000 HD
ENDBRANCH  10  11
ENDBRANCH   1  10
BRANCH   7  14
ATOM     14  C   UNL     1      44.570   6.204  11.529  0.00  0.00    +0.000 C 
BRANCH  14  15
ATOM     15  C   UNL     1      45.908   6.388  12.198  0.00  0.00    +0.000 A 
ATOM     16  C   UNL     1      46.229   5.670  13.359  0.00  0.00    +0.000 A 
ATOM     17  C   UNL     1      47.499   5.776  13.931  0.00  0.00    +0.000 A 
ATOM     18  C   UNL     1      48.460   6.601  13.346  0.00  0.00    +0.000 A 
ATOM     19  C   UNL     1      48.142   7.330  12.208  0.00  0.00    +0.000 A 
ATOM     20 CL   UNL     1      49.327   8.349  11.484  0.00  0.00    +0.000 Cl
ATOM     21  C   UNL     1      46.875   7.237  11.635  0.00  0.00    +0.000 A 
ENDBRANCH  14  15
ENDBRANCH   7  14
TORSDOF 4
ENDMDL
MODEL 4
REMARK VINA RESULT:    -6.425      2.309      3.184
REMARK INTER + INTRA:          -8.310
REMARK INTER:                  -7.877
REMARK INTRA:                  -0.433
REMARK UNBOUND:                -0.571
REMARK  Name = 
REMARK  4 active torsions:
REMARK  status: ('A' for Active; 'I' for Inactive)
REMARK    1  A    between atoms: N_1  and  C_2
REMARK    2  A    between atoms: C_2  and  C_3
REMARK    3  A    between atoms: N_9  and  C_10
REMARK    4  A    between atoms: C_10  and  C_11
REMARK                            x       y       z     vdW  Elec       q    Type
REMARK                         _______ _______ _______ _____ _____    ______ ____
ROOT
ATOM      1  C   UNL     1      48.608   7.461  12.138  0.00  0.00    +0.000 A 
ATOM      2  C   UNL     1      49.022   6.924  13.355  0.00  0.00    +0.000 A 
ATOM      3  N   UNL     1      48.350   6.016  14.096  0.00  0.00    +0.000 NA
ATOM      4  C   UNL     1      47.173   5.608  13.564  0.00  0.00    +0.000 A 
ATOM      5  C   UNL     1      46.240   4.688  14.091  0.00  0.00    +0.000 A 
ATOM      6  C   UNL     1      45.209   4.580  13.184  0.00  0.00    +0.000 A 
ATOM      7  N   UNL     1      45.490   5.408  12.120  0.00  0.00    +0.000 N 
ATOM      8  C   UNL     1      46.680   6.068  12.342  0.00  0.00    +0.000 A 
ATOM      9  C   UNL     1      47.391   7.021  11.604  0.00  0.00    +0.000 A 
ENDROOT
BRANCH   1  10
ATOM     10  C   UNL     1      49.453   8.465  11.406  0.00  0.00    +0.000 C 
BRANCH  10  11
ATOM     11  N   UNL     1      50.807   7.973  11.181  0.00  0.00    +0.000 NA
ATOM     12  H   UNL     1      51.240   8.512  10.433  0.00  0.00    +0.000 HD
ATOM     13  H   UNL     1      50.761   7.010  10.848  0.00  0.00    +0.000 HD
ENDBRANCH  10  11
ENDBRANCH   1  10
BRANCH   7  14
ATOM     14  C   UNL     1      44.671   5.501  10.915  0.00  0.00    +0.000 C 
BRANCH  14  15
ATOM     15  C   UNL     1      44.937   4.345   9.986  0.00  0.00    +0.000 A 
ATOM     16  C   UNL     1      44.392   3.079  10.248  0.00  0.00    +0.000 A 
ATOM     17  C   UNL     1      44.568   2.029   9.344  0.00  0.00    +0.000 A 
ATOM     18  C   UNL     1      45.289   2.236   8.167  0.00  0.00    +0.000 A 
ATOM     19  C   UNL     1      45.848   3.481   7.911  0.00  0.00    +0.000 A 
ATOM     20 CL   UNL     1      46.739   3.738   6.459  0.00  0.00    +0.000 Cl
ATOM     21  C   UNL     1      45.685   4.532   8.812  0.00  0.00    +0.000 A 
ENDBRANCH  14  15
ENDBRANCH   7  14
TORSDOF 4
ENDMDL
MODEL 5
REMARK VINA RESULT:    -6.210      1.595      2.144
REMARK INTER + INTRA:          -8.051
REMARK INTER:                  -7.568
REMARK INTRA:                  -0.483
REMARK UNBOUND:                -0.571
REMARK  Name = 
REMARK  4 active torsions:
REMARK  status: ('A' for Active; 'I' for Inactive)
REMARK    1  A    between atoms: N_1  and  C_2
REMARK    2  A    between atoms: C_2  and  C_3
REMARK    3  A    between atoms: N_9  and  C_10
REMARK    4  A    between atoms: C_10  and  C_11
REMARK                            x       y       z     vdW  Elec       q    Type
REMARK                         _______ _______ _______ _____ _____    ______ ____
ROOT
ATOM      1  C   UNL     1      45.672   9.200  12.161  0.00  0.00    +0.000 A 
ATOM      2  C   UNL     1      46.764   9.034  13.009  0.00  0.00    +0.000 A 
ATOM      3  N   UNL     1      47.235   7.859  13.482  0.00  0.00    +0.000 NA
ATOM      4  C   UNL     1      46.560   6.764  13.059  0.00  0.00    +0.000 A 
ATOM      5  C   UNL     1      46.792   5.408  13.377  0.00  0.00    +0.000 A 
ATOM      6  C   UNL     1      45.862   4.657  12.692  0.00  0.00    +0.000 A 
ATOM      7  N   UNL     1      45.073   5.519  11.963  0.00  0.00    +0.000 N 
ATOM      8  C   UNL     1      45.468   6.822  12.192  0.00  0.00    +0.000 A 
ATOM      9  C   UNL     1      44.992   8.054  11.731  0.00  0.00    +0.000 A 
ENDROOT
BRANCH   1  10
ATOM     10  C   UNL     1      45.248  10.565  11.700  0.00  0.00    +0.000 C 
BRANCH  10  11
ATOM     11  N   UNL     1      43.811  10.763  11.843  0.00  0.00    +0.000 NA
ATOM     12  H   UNL     1      43.380  10.775  10.919  0.00  0.00    +0.000 HD
ATOM     13  H   UNL     1      43.639  11.683  12.249  0.00  0.00    +0.000 HD
ENDBRANCH  10  11
ENDBRANCH   1  10
BRANCH   7  14
ATOM     14  C   UNL     1      44.028   5.091  11.039  0.00  0.00    +0.000 C 
BRANCH  14  15
ATOM     15  C   UNL     1      44.558   4.091  10.044  0.00  0.00    +0.000 A 
ATOM     16  C   UNL     1      44.211   2.735  10.143  0.00  0.00    +0.000 A 
ATOM     17  C   UNL     1      44.633   1.822   9.174  0.00  0.00    +0.000 A 
ATOM     18  C   UNL     1      45.403   2.257   8.095  0.00  0.00    +0.000 A 
ATOM     19  C   UNL     1      45.766   3.594   8.002  0.00  0.00    +0.000 A 
ATOM     20 CL   UNL     1      46.717   4.133   6.670  0.00  0.00    +0.000 Cl
ATOM     21  C   UNL     1      45.357   4.511   8.969  0.00  0.00    +0.000 A 
ENDBRANCH  14  15
ENDBRANCH   7  14
TORSDOF 4
ENDMDL
MODEL 6
REMARK VINA RESULT:    -5.708      3.066      6.149
REMARK INTER + INTRA:          -7.447
REMARK INTER:                  -7.088
REMARK INTRA:                  -0.359
REMARK UNBOUND:                -0.571
REMARK  Name = 
REMARK  4 active torsions:
REMARK  status: ('A' for Active; 'I' for Inactive)
REMARK    1  A    between atoms: N_1  and  C_2
REMARK    2  A    between atoms: C_2  and  C_3
REMARK    3  A    between atoms: N_9  and  C_10
REMARK    4  A    between atoms: C_10  and  C_11
REMARK                            x       y       z     vdW  Elec       q    Type
REMARK                         _______ _______ _______ _____ _____    ______ ____
ROOT
ATOM      1  C   UNL     1      45.106   4.011   9.014  0.00  0.00    +0.000 A 
ATOM      2  C   UNL     1      44.172   3.209   9.667  0.00  0.00    +0.000 A 
ATOM      3  N   UNL     1      43.816   3.296  10.967  0.00  0.00    +0.000 NA
ATOM      4  C   UNL     1      44.442   4.276  11.663  0.00  0.00    +0.000 A 
ATOM      5  C   UNL     1      44.301   4.616  13.027  0.00  0.00    +0.000 A 
ATOM      6  C   UNL     1      45.125   5.692  13.272  0.00  0.00    +0.000 A 
ATOM      7  N   UNL     1      45.761   6.017  12.094  0.00  0.00    +0.000 N 
ATOM      8  C   UNL     1      45.375   5.145  11.097  0.00  0.00    +0.000 A 
ATOM      9  C   UNL     1      45.736   5.020   9.751  0.00  0.00    +0.000 A 
ENDROOT
BRANCH   1  10
ATOM     10  C   UNL     1      45.412   3.816   7.557  0.00  0.00    +0.000 C 
BRANCH  10  11
ATOM     11  N   UNL     1      46.749   4.288   7.216  0.00  0.00    +0.000 NA
ATOM     12  H   UNL     1      46.673   5.089   6.592  0.00  0.00    +0.000 HD
ATOM     13  H   UNL     1      47.235   3.562   6.689  0.00  0.00    +0.000 HD
ENDBRANCH  10  11
ENDBRANCH   1  10
BRANCH   7  14
ATOM     14  C   UNL     1      46.652   7.162  11.933  0.00  0.00    +0.000 C 
BRANCH  14  15
ATOM     15  C   UNL     1      45.872   8.448  11.835  0.00  0.00    +0.000 A 
ATOM     16  C   UNL     1      46.469   9.671  12.179  0.00  0.00    +0.000 A 
ATOM     17  C   UNL     1      45.775  10.871  12.008  0.00  0.00    +0.000 A 
ATOM     18  C   UNL     1      44.480  10.861  11.491  0.00  0.00    +0.000 A 
ATOM     19  C   UNL     1      43.877   9.652  11.167  0.00  0.00    +0.000 A 
ATOM     20 CL   UNL     1      42.277   9.637  10.528  0.00  0.00    +0.000 Cl
ATOM     21  C   UNL     1      44.558   8.449  11.342  0.00  0.00    +0.000 A 
ENDBRANCH  14  15
ENDBRANCH   7  14
TORSDOF 4
ENDMDL
MODEL 7
REMARK VINA RESULT:    -5.627      3.487      5.929
REMARK INTER + INTRA:          -7.349
REMARK INTER:                  -6.824
REMARK INTRA:                  -0.524
REMARK UNBOUND:                -0.571
REMARK  Name = 
REMARK  4 active torsions:
REMARK  status: ('A' for Active; 'I' for Inactive)
REMARK    1  A    between atoms: N_1  and  C_2
REMARK    2  A    between atoms: C_2  and  C_3
REMARK    3  A    between atoms: N_9  and  C_10
REMARK    4  A    between atoms: C_10  and  C_11
REMARK                            x       y       z     vdW  Elec       q    Type
REMARK                         _______ _______ _______ _____ _____    ______ ____
ROOT
ATOM      1  C   UNL     1      44.889   4.350  10.857  0.00  0.00    +0.000 A 
ATOM      2  C   UNL     1      44.958   3.289  11.756  0.00  0.00    +0.000 A 
ATOM      3  N   UNL     1      45.621   3.283  12.934  0.00  0.00    +0.000 NA
ATOM      4  C   UNL     1      46.256   4.441  13.234  0.00  0.00    +0.000 A 
ATOM      5  C   UNL     1      47.037   4.749  14.370  0.00  0.00    +0.000 A 
ATOM      6  C   UNL     1      47.457   6.054  14.241  0.00  0.00    +0.000 A 
ATOM      7  N   UNL     1      46.952   6.549  13.060  0.00  0.00    +0.000 N 
ATOM      8  C   UNL     1      46.230   5.568  12.412  0.00  0.00    +0.000 A 
ATOM      9  C   UNL     1      45.548   5.539  11.190  0.00  0.00    +0.000 A 
ENDROOT
BRANCH   1  10
ATOM     10  C   UNL     1      44.110   4.234   9.577  0.00  0.00    +0.000 C 
BRANCH  10  11
ATOM     11  N   UNL     1      44.931   4.548   8.414  0.00  0.00    +0.000 NA
ATOM     12  H   UNL     1      45.654   3.838   8.311  0.00  0.00    +0.000 HD
ATOM     13  H   UNL     1      45.418   5.430   8.578  0.00  0.00    +0.000 HD
ENDBRANCH  10  11
ENDBRANCH   1  10
BRANCH   7  14
ATOM     14  C   UNL     1      47.109   7.930  12.616  0.00  0.00    +0.000 C 
BRANCH  14  15
ATOM     15  C   UNL     1      48.565   8.299  12.487  0.00  0.00    +0.000 A 
ATOM     16  C   UNL     1      49.156   9.194  13.391  0.00  0.00    +0.000 A 
ATOM     17  C   UNL     1      50.523   9.471  13.324  0.00  0.00    +0.000 A 
ATOM     18  C   UNL     1      51.313   8.852  12.354  0.00  0.00    +0.000 A 
ATOM     19  C   UNL     1      50.730   7.980  11.443  0.00  0.00    +0.000 A 
ATOM     20 CL   UNL     1      51.703   7.216  10.245  0.00  0.00    +0.000 Cl
ATOM     21  C   UNL     1      49.364   7.705  11.498  0.00  0.00    +0.000 A 
ENDBRANCH  14  15
ENDBRANCH   7  14
TORSDOF 4
ENDMDL
MODEL 8
REMARK VINA RESULT:    -5.613      3.884      6.803
REMARK INTER + INTRA:          -7.332
REMARK INTER:                  -6.789
REMARK INTRA:                  -0.544
REMARK UNBOUND:                -0.571
REMARK  Name = 
REMARK  4 active torsions:
REMARK  status: ('A' for Active; 'I' for Inactive)
REMARK    1  A    between atoms: N_1  and  C_2
REMARK    2  A    between atoms: C_2  and  C_3
REMARK    3  A    between atoms: N_9  and  C_10
REMARK    4  A    between atoms: C_10  and  C_11
REMARK                            x       y       z     vdW  Elec       q    Type
REMARK                         _______ _______ _______ _____ _____    ______ ____
ROOT
ATOM      1  C   UNL     1      44.309   4.278  11.298  0.00  0.00    +0.000 A 
ATOM      2  C   UNL     1      43.453   5.335  10.999  0.00  0.00    +0.000 A 
ATOM      3  N   UNL     1      43.629   6.628  11.350  0.00  0.00    +0.000 NA
ATOM      4  C   UNL     1      44.762   6.877  12.049  0.00  0.00    +0.000 A 
ATOM      5  C   UNL     1      45.226   8.107  12.567  0.00  0.00    +0.000 A 
ATOM      6  C   UNL     1      46.434   7.867  13.183  0.00  0.00    +0.000 A 
ATOM      7  N   UNL     1      46.720   6.526  13.053  0.00  0.00    +0.000 N 
ATOM      8  C   UNL     1      45.694   5.893  12.380  0.00  0.00    +0.000 A 
ATOM      9  C   UNL     1      45.477   4.559  12.017  0.00  0.00    +0.000 A 
ENDROOT
BRANCH   1  10
ATOM     10  C   UNL     1      44.002   2.879  10.844  0.00  0.00    +0.000 C 
BRANCH  10  11
ATOM     11  N   UNL     1      43.032   2.227  11.715  0.00  0.00    +0.000 NA
ATOM     12  H   UNL     1      43.124   2.600  12.659  0.00  0.00    +0.000 HD
ATOM     13  H   UNL     1      43.255   1.234  11.779  0.00  0.00    +0.000 HD
ENDBRANCH  10  11
ENDBRANCH   1  10
BRANCH   7  14
ATOM     14  C   UNL     1      47.960   5.904  13.504  0.00  0.00    +0.000 C 
BRANCH  14  15
ATOM     15  C   UNL     1      47.888   5.542  14.965  0.00  0.00    +0.000 A 
ATOM     16  C   UNL     1      47.152   4.425  15.387  0.00  0.00    +0.000 A 
ATOM     17  C   UNL     1      47.153   4.040  16.730  0.00  0.00    +0.000 A 
ATOM     18  C   UNL     1      47.894   4.767  17.662  0.00  0.00    +0.000 A 
ATOM     19  C   UNL     1      48.609   5.886  17.254  0.00  0.00    +0.000 A 
ATOM     20 CL   UNL     1      49.523   6.785  18.405  0.00  0.00    +0.000 Cl
ATOM     21  C   UNL     1      48.606   6.282  15.918  0.00  0.00    +0.000 A 
ENDBRANCH  14  15
ENDBRANCH   7  14
TORSDOF 4
ENDMDL
MODEL 9
REMARK VINA RESULT:    -5.582      2.153      3.319
REMARK INTER + INTRA:          -7.295
REMARK INTER:                  -6.938
REMARK INTRA:                  -0.357
REMARK UNBOUND:                -0.571
REMARK  Name = 
REMARK  4 active torsions:
REMARK  status: ('A' for Active; 'I' for Inactive)
REMARK    1  A    between atoms: N_1  and  C_2
REMARK    2  A    between atoms: C_2  and  C_3
REMARK    3  A    between atoms: N_9  and  C_10
REMARK    4  A    between atoms: C_10  and  C_11
REMARK                            x       y       z     vdW  Elec       q    Type
REMARK                         _______ _______ _______ _____ _____    ______ ____
ROOT
ATOM      1  C   UNL     1      45.531   9.927  11.892  0.00  0.00    +0.000 A 
ATOM      2  C   UNL     1      46.906  10.142  11.830  0.00  0.00    +0.000 A 
ATOM      3  N   UNL     1      47.868   9.246  12.142  0.00  0.00    +0.000 NA
ATOM      4  C   UNL     1      47.409   8.035  12.538  0.00  0.00    +0.000 A 
ATOM      5  C   UNL     1      48.150   6.900  12.938  0.00  0.00    +0.000 A 
ATOM      6  C   UNL     1      47.249   5.900  13.229  0.00  0.00    +0.000 A 
ATOM      7  N   UNL     1      45.981   6.394  13.014  0.00  0.00    +0.000 N 
ATOM      8  C   UNL     1      46.054   7.712  12.612  0.00  0.00    +0.000 A 
ATOM      9  C   UNL     1      45.079   8.666  12.299  0.00  0.00    +0.000 A 
ENDROOT
BRANCH   1  10
ATOM     10  C   UNL     1      44.559  11.007  11.512  0.00  0.00    +0.000 C 
BRANCH  10  11
ATOM     11  N   UNL     1      43.269  10.830  12.168  0.00  0.00    +0.000 NA
ATOM     12  H   UNL     1      42.958   9.868  12.044  0.00  0.00    +0.000 HD
ATOM     13  H   UNL     1      42.575  11.416  11.703  0.00  0.00    +0.000 HD
ENDBRANCH  10  11
ENDBRANCH   1  10
BRANCH   7  14
ATOM     14  C   UNL     1      44.761   5.601  13.132  0.00  0.00    +0.000 C 
BRANCH  14  15
ATOM     15  C   UNL     1      44.648   4.606  12.006  0.00  0.00    +0.000 A 
ATOM     16  C   UNL     1      43.926   3.415  12.177  0.00  0.00    +0.000 A 
ATOM     17  C   UNL     1      43.749   2.533  11.109  0.00  0.00    +0.000 A 
ATOM     18  C   UNL     1      44.291   2.833   9.860  0.00  0.00    +0.000 A 
ATOM     19  C   UNL     1      45.025   4.001   9.689  0.00  0.00    +0.000 A 
ATOM     20 CL   UNL     1      45.695   4.374   8.146  0.00  0.00    +0.000 Cl
ATOM     21  C   UNL     1      45.213   4.884  10.751  0.00  0.00    +0.000 A 
ENDBRANCH  14  15
ENDBRANCH   7  14
TORSDOF 4
ENDMDL
