MODEL 1
REMARK VINA RESULT:    -9.023      0.000      0.000
REMARK INTER + INTRA:         -12.370
REMARK INTER:                 -11.661
REMARK INTRA:                  -0.710
REMARK UNBOUND:                -0.710
REMARK  Name = 
REMARK  5 active torsions:
REMARK  status: ('A' for Active; 'I' for Inactive)
REMARK    1  A    between atoms: C_2  and  C_4
REMARK    2  A    between atoms: C_7  and  O_8
REMARK    3  A    between atoms: O_8  and  C_9
REMARK    4  A    between atoms: C_9  and  C_10
REMARK    5  A    between atoms: C_14  and  C_15
REMARK                            x       y       z     vdW  Elec       q    Type
REMARK                         _______ _______ _______ _____ _____    ______ ____
ROOT
ATOM      1  C   UNL     1      43.943   4.884  11.378  0.00  0.00    +0.000 C 
ATOM      2  C   UNL     1      42.654   5.150  12.137  0.00  0.00    +0.000 C 
ATOM      3  C   UNL     1      43.042   6.036  11.001  0.00  0.00    +0.000 C 
ENDROOT
BRANCH   1   4
ATOM      4  C   UNL     1      45.284   5.171  12.041  0.00  0.00    +0.000 A 
ATOM      5  C   UNL     1      46.098   6.229  11.627  0.00  0.00    +0.000 A 
ATOM      6  C   UNL     1      47.251   6.573  12.328  0.00  0.00    +0.000 A 
ATOM      7  C   UNL     1      47.609   5.868  13.480  0.00  0.00    +0.000 A 
ATOM      8  C   UNL     1      46.840   4.790  13.934  0.00  0.00    +0.000 A 
ATOM      9  C   UNL     1      45.696   4.444  13.182  0.00  0.00    +0.000 A 
BRANCH   8  10
ATOM     10  C   UNL     1      47.159   4.107  15.203  0.00  0.00    +0.000 A 
ATOM     11  C   UNL     1      46.795   4.593  16.459  0.00  0.00    +0.000 A 
ATOM     12  N   UNL     1      47.156   4.000  17.627  0.00  0.00    +0.000 NA
ATOM     13  C   UNL     1      47.912   2.891  17.495  0.00  0.00    +0.000 A 
ATOM     14  C   UNL     1      48.272   2.385  16.259  0.00  0.00    +0.000 A 
ATOM     15  N   UNL     1      47.897   2.968  15.098  0.00  0.00    +0.000 NA
ENDBRANCH   8  10
ENDBRANCH   1   4
BRANCH   1  16
ATOM     16  O   UNL     1      43.821   3.630  10.663  0.00  0.00    +0.000 OA
BRANCH  16  20
ATOM     17  C   UNL     1      46.387   2.689   7.584  0.00  0.00    +0.000 A 
ATOM     18  C   UNL     1      45.896   1.687   8.424  0.00  0.00    +0.000 A 
ATOM     19  C   UNL     1      45.044   2.042   9.465  0.00  0.00    +0.000 A 
ATOM     20  C   UNL     1      44.695   3.376   9.623  0.00  0.00    +0.000 A 
ATOM     21  N   UNL     1      45.130   4.367   8.818  0.00  0.00    +0.000 NA
ATOM     22  C   UNL     1      45.990   4.000   7.829  0.00  0.00    +0.000 A 
BRANCH  17  24
ATOM     23  N   UNL     1      47.285   3.202   5.385  0.00  0.00    +0.000 N 
ATOM     24  C   UNL     1      47.333   2.403   6.492  0.00  0.00    +0.000 C 
ATOM     25  O   UNL     1      48.155   1.494   6.586  0.00  0.00    +0.000 OA
ATOM     26  H   UNL     1      47.963   3.023   4.658  0.00  0.00    +0.000 HD
ATOM     27  H   UNL     1      46.791   4.089   5.359  0.00  0.00    +0.000 HD
ENDBRANCH  17  24
ENDBRANCH  16  20
ENDBRANCH   1  16
TORSDOF 5
ENDMDL
MODEL 2
REMARK VINA RESULT:    -7.928      2.301      3.505
REMARK INTER + INTRA:         -10.954
REMARK INTER:                 -10.247
REMARK INTRA:                  -0.707
REMARK UNBOUND:                -0.710
REMARK  Name = 
REMARK  5 active torsions:
REMARK  status: ('A' for Active; 'I' for Inactive)
REMARK    1  A    between atoms: C_2  and  C_4
REMARK    2  A    between atoms: C_7  and  O_8
REMARK    3  A    between atoms: O_8  and  C_9
REMARK    4  A    between atoms: C_9  and  C_10
REMARK    5  A    between atoms: C_14  and  C_15
REMARK                            x       y       z     vdW  Elec       q    Type
REMARK                         _______ _______ _______ _____ _____    ______ ____
ROOT
ATOM      1  C   UNL     1      43.647   4.947  11.424  0.00  0.00    +0.000 C 
ATOM      2  C   UNL     1      42.346   5.453  12.022  0.00  0.00    +0.000 C 
ATOM      3  C   UNL     1      43.018   6.233  10.943  0.00  0.00    +0.000 C 
ENDROOT
BRANCH   1   4
ATOM      4  C   UNL     1      44.929   5.004  12.245  0.00  0.00    +0.000 A 
ATOM      5  C   UNL     1      45.461   3.865  12.856  0.00  0.00    +0.000 A 
ATOM      6  C   UNL     1      46.706   3.893  13.481  0.00  0.00    +0.000 A 
ATOM      7  C   UNL     1      47.458   5.069  13.495  0.00  0.00    +0.000 A 
ATOM      8  C   UNL     1      46.969   6.245  12.911  0.00  0.00    +0.000 A 
ATOM      9  C   UNL     1      45.691   6.193  12.315  0.00  0.00    +0.000 A 
BRANCH   8  10
ATOM     10  C   UNL     1      47.801   7.462  12.836  0.00  0.00    +0.000 A 
ATOM     11  C   UNL     1      47.507   8.647  13.512  0.00  0.00    +0.000 A 
ATOM     12  N   UNL     1      48.234   9.787  13.379  0.00  0.00    +0.000 NA
ATOM     13  C   UNL     1      49.277   9.704  12.528  0.00  0.00    +0.000 A 
ATOM     14  C   UNL     1      49.593   8.536  11.859  0.00  0.00    +0.000 A 
ATOM     15  N   UNL     1      48.878   7.397  12.006  0.00  0.00    +0.000 NA
ENDBRANCH   8  10
ENDBRANCH   1   4
BRANCH   1  16
ATOM     16  O   UNL     1      43.389   3.721  10.697  0.00  0.00    +0.000 OA
BRANCH  16  20
ATOM     17  C   UNL     1      46.152   2.689   7.825  0.00  0.00    +0.000 A 
ATOM     18  C   UNL     1      45.727   4.014   7.952  0.00  0.00    +0.000 A 
ATOM     19  C   UNL     1      44.780   4.325   8.922  0.00  0.00    +0.000 A 
ATOM     20  C   UNL     1      44.302   3.314   9.744  0.00  0.00    +0.000 A 
ATOM     21  N   UNL     1      44.706   2.029   9.667  0.00  0.00    +0.000 NA
ATOM     22  C   UNL     1      45.606   1.743   8.687  0.00  0.00    +0.000 A 
BRANCH  17  24
ATOM     23  N   UNL     1      47.455   3.185   5.836  0.00  0.00    +0.000 N 
ATOM     24  C   UNL     1      47.112   2.270   6.791  0.00  0.00    +0.000 C 
ATOM     25  O   UNL     1      47.609   1.146   6.802  0.00  0.00    +0.000 OA
ATOM     26  H   UNL     1      48.144   2.902   5.152  0.00  0.00    +0.000 HD
ATOM     27  H   UNL     1      47.254   4.177   5.915  0.00  0.00    +0.000 HD
ENDBRANCH  17  24
ENDBRANCH  16  20
ENDBRANCH   1  16
TORSDOF 5
ENDMDL
MODEL 3
REMARK VINA RESULT:    -7.402      2.630      7.497
REMARK INTER + INTRA:         -10.275
REMARK INTER:                  -9.589
REMARK INTRA:                  -0.686
REMARK UNBOUND:                -0.710
REMARK  Name = 
REMARK  5 active torsions:
REMARK  status: ('A' for Active; 'I' for Inactive)
REMARK    1  A    between atoms: C_2  and  C_4
REMARK    2  A    between atoms: C_7  and  O_8
REMARK    3  A    between atoms: O_8  and  C_9
REMARK    4  A    between atoms: C_9  and  C_10
REMARK    5  A    between atoms: C_14  and  C_15
REMARK                            x       y       z     vdW  Elec       q    Type
REMARK                         _______ _______ _______ _____ _____    ______ ____
ROOT
ATOM      1  C   UNL     1      46.433   7.306  12.533  0.00  0.00    +0.000 C 
ATOM      2  C   UNL     1      46.658   8.699  11.972  0.00  0.00    +0.000 C 
ATOM      3  C   UNL     1      45.922   8.529  13.258  0.00  0.00    +0.000 C 
ENDROOT
BRANCH   1   4
ATOM      4  C   UNL     1      45.440   6.369  11.856  0.00  0.00    +0.000 A 
ATOM      5  C   UNL     1      44.061   6.501  12.042  0.00  0.00    +0.000 A 
ATOM      6  C   UNL     1      43.156   5.736  11.310  0.00  0.00    +0.000 A 
ATOM      7  C   UNL     1      43.616   4.825  10.356  0.00  0.00    +0.000 A 
ATOM      8  C   UNL     1      44.987   4.640  10.139  0.00  0.00    +0.000 A 
ATOM      9  C   UNL     1      45.879   5.405  10.920  0.00  0.00    +0.000 A 
BRANCH   8  10
ATOM     10  C   UNL     1      45.476   3.752   9.065  0.00  0.00    +0.000 A 
ATOM     11  C   UNL     1      45.447   2.359   9.136  0.00  0.00    +0.000 A 
ATOM     12  N   UNL     1      45.967   1.548   8.178  0.00  0.00    +0.000 NA
ATOM     13  C   UNL     1      46.533   2.187   7.134  0.00  0.00    +0.000 A 
ATOM     14  C   UNL     1      46.560   3.566   7.038  0.00  0.00    +0.000 A 
ATOM     15  N   UNL     1      46.026   4.371   7.985  0.00  0.00    +0.000 NA
ENDBRANCH   8  10
ENDBRANCH   1   4
BRANCH   1  16
ATOM     16  O   UNL     1      47.709   6.739  12.919  0.00  0.00    +0.000 OA
BRANCH  16  20
ATOM     17  C   UNL     1      47.883   4.593  16.429  0.00  0.00    +0.000 A 
ATOM     18  C   UNL     1      47.085   4.152  15.371  0.00  0.00    +0.000 A 
ATOM     19  C   UNL     1      47.037   4.910  14.205  0.00  0.00    +0.000 A 
ATOM     20  C   UNL     1      47.796   6.068  14.125  0.00  0.00    +0.000 A 
ATOM     21  N   UNL     1      48.596   6.514  15.116  0.00  0.00    +0.000 NA
ATOM     22  C   UNL     1      48.599   5.774  16.258  0.00  0.00    +0.000 A 
BRANCH  17  24
ATOM     23  N   UNL     1      47.062   2.856  17.916  0.00  0.00    +0.000 N 
ATOM     24  C   UNL     1      47.948   3.876  17.713  0.00  0.00    +0.000 C 
ATOM     25  O   UNL     1      48.789   4.166  18.561  0.00  0.00    +0.000 OA
ATOM     26  H   UNL     1      47.139   2.345  18.784  0.00  0.00    +0.000 HD
ATOM     27  H   UNL     1      46.514   2.437  17.171  0.00  0.00    +0.000 HD
ENDBRANCH  17  24
ENDBRANCH  16  20
ENDBRANCH   1  16
TORSDOF 5
ENDMDL
MODEL 4
REMARK VINA RESULT:    -7.083      3.164      5.545
REMARK INTER + INTRA:          -9.863
REMARK INTER:                 -10.215
REMARK INTRA:                   0.352
REMARK UNBOUND:                -0.710
REMARK  Name = 
REMARK  5 active torsions:
REMARK  status: ('A' for Active; 'I' for Inactive)
REMARK    1  A    between atoms: C_2  and  C_4
REMARK    2  A    between atoms: C_7  and  O_8
REMARK    3  A    between atoms: O_8  and  C_9
REMARK    4  A    between atoms: C_9  and  C_10
REMARK    5  A    between atoms: C_14  and  C_15
REMARK                            x       y       z     vdW  Elec       q    Type
REMARK                         _______ _______ _______ _____ _____    ______ ____
ROOT
ATOM      1  C   UNL     1      44.159   4.466  11.619  0.00  0.00    +0.000 C 
ATOM      2  C   UNL     1      44.930   3.297  12.208  0.00  0.00    +0.000 C 
ATOM      3  C   UNL     1      43.622   3.697  12.803  0.00  0.00    +0.000 C 
ENDROOT
BRANCH   1   4
ATOM      4  C   UNL     1      44.671   5.887  11.820  0.00  0.00    +0.000 A 
ATOM      5  C   UNL     1      45.937   6.144  12.352  0.00  0.00    +0.000 A 
ATOM      6  C   UNL     1      46.455   7.437  12.399  0.00  0.00    +0.000 A 
ATOM      7  C   UNL     1      45.713   8.508  11.895  0.00  0.00    +0.000 A 
ATOM      8  C   UNL     1      44.432   8.312  11.364  0.00  0.00    +0.000 A 
ATOM      9  C   UNL     1      43.923   6.996  11.362  0.00  0.00    +0.000 A 
BRANCH   8  10
ATOM     10  C   UNL     1      43.687   9.424  10.741  0.00  0.00    +0.000 A 
ATOM     11  C   UNL     1      42.297   9.547  10.783  0.00  0.00    +0.000 A 
ATOM     12  N   UNL     1      41.612  10.530  10.144  0.00  0.00    +0.000 NA
ATOM     13  C   UNL     1      42.373  11.396   9.442  0.00  0.00    +0.000 A 
ATOM     14  C   UNL     1      43.752  11.298   9.399  0.00  0.00    +0.000 A 
ATOM     15  N   UNL     1      44.433  10.328  10.051  0.00  0.00    +0.000 NA
ENDBRANCH   8  10
ENDBRANCH   1   4
BRANCH   1  16
ATOM     16  O   UNL     1      43.710   4.115  10.287  0.00  0.00    +0.000 OA
BRANCH  16  20
ATOM     17  C   UNL     1      46.541   2.808   7.598  0.00  0.00    +0.000 A 
ATOM     18  C   UNL     1      46.346   4.175   7.810  0.00  0.00    +0.000 A 
ATOM     19  C   UNL     1      45.370   4.582   8.713  0.00  0.00    +0.000 A 
ATOM     20  C   UNL     1      44.635   3.618   9.388  0.00  0.00    +0.000 A 
ATOM     21  N   UNL     1      44.811   2.290   9.228  0.00  0.00    +0.000 NA
ATOM     22  C   UNL     1      45.747   1.918   8.313  0.00  0.00    +0.000 A 
BRANCH  17  24
ATOM     23  N   UNL     1      47.550   2.886   5.389  0.00  0.00    +0.000 N 
ATOM     24  C   UNL     1      47.518   2.298   6.622  0.00  0.00    +0.000 C 
ATOM     25  O   UNL     1      48.296   1.393   6.915  0.00  0.00    +0.000 OA
ATOM     26  H   UNL     1      48.249   2.555   4.739  0.00  0.00    +0.000 HD
ATOM     27  H   UNL     1      47.097   3.771   5.182  0.00  0.00    +0.000 HD
ENDBRANCH  17  24
ENDBRANCH  16  20
ENDBRANCH   1  16
TORSDOF 5
ENDMDL
MODEL 5
REMARK VINA RESULT:    -6.716      2.811      4.628
REMARK INTER + INTRA:          -9.388
REMARK INTER:                  -8.743
REMARK INTRA:                  -0.645
REMARK UNBOUND:                -0.710
REMARK  Name = 
REMARK  5 active torsions:
REMARK  status: ('A' for Active; 'I' for Inactive)
REMARK    1  A    between atoms: C_2  and  C_4
REMARK    2  A    between atoms: C_7  and  O_8
REMARK    3  A    between atoms: O_8  and  C_9
REMARK    4  A    between atoms: C_9  and  C_10
REMARK    5  A    between atoms: C_14  and  C_15
REMARK                            x       y       z     vdW  Elec       q    Type
REMARK                         _______ _______ _______ _____ _____    ______ ____
ROOT
ATOM      1  C   UNL     1      48.082   8.072  12.499  0.00  0.00    +0.000 C 
ATOM      2  C   UNL     1      48.813   9.139  11.704  0.00  0.00    +0.000 C 
ATOM      3  C   UNL     1      49.107   7.698  11.455  0.00  0.00    +0.000 C 
ENDROOT
BRANCH   1   4
ATOM      4  C   UNL     1      48.409   7.871  13.974  0.00  0.00    +0.000 A 
ATOM      5  C   UNL     1      48.615   8.952  14.835  0.00  0.00    +0.000 A 
ATOM      6  C   UNL     1      48.770   8.766  16.207  0.00  0.00    +0.000 A 
ATOM      7  C   UNL     1      48.706   7.481  16.753  0.00  0.00    +0.000 A 
ATOM      8  C   UNL     1      48.517   6.359  15.936  0.00  0.00    +0.000 A 
ATOM      9  C   UNL     1      48.397   6.578  14.547  0.00  0.00    +0.000 A 
BRANCH   8  10
ATOM     10  C   UNL     1      48.349   5.013  16.517  0.00  0.00    +0.000 A 
ATOM     11  C   UNL     1      47.112   4.394  16.698  0.00  0.00    +0.000 A 
ATOM     12  N   UNL     1      46.958   3.186  17.302  0.00  0.00    +0.000 NA
ATOM     13  C   UNL     1      48.100   2.614  17.735  0.00  0.00    +0.000 A 
ATOM     14  C   UNL     1      49.337   3.205  17.553  0.00  0.00    +0.000 A 
ATOM     15  N   UNL     1      49.489   4.398  16.935  0.00  0.00    +0.000 NA
ENDBRANCH   8  10
ENDBRANCH   1   4
BRANCH   1  16
ATOM     16  O   UNL     1      46.679   8.088  12.137  0.00  0.00    +0.000 OA
BRANCH  16  20
ATOM     17  C   UNL     1      44.676   4.524  11.650  0.00  0.00    +0.000 A 
ATOM     18  C   UNL     1      44.606   5.213  12.863  0.00  0.00    +0.000 A 
ATOM     19  C   UNL     1      45.308   6.406  12.999  0.00  0.00    +0.000 A 
ATOM     20  C   UNL     1      46.040   6.881  11.920  0.00  0.00    +0.000 A 
ATOM     21  N   UNL     1      46.112   6.257  10.727  0.00  0.00    +0.000 NA
ATOM     22  C   UNL     1      45.445   5.075  10.630  0.00  0.00    +0.000 A 
BRANCH  17  24
ATOM     23  N   UNL     1      43.740   2.469  12.548  0.00  0.00    +0.000 N 
ATOM     24  C   UNL     1      44.004   3.230  11.444  0.00  0.00    +0.000 C 
ATOM     25  O   UNL     1      43.667   2.861  10.321  0.00  0.00    +0.000 OA
ATOM     26  H   UNL     1      43.244   1.601  12.401  0.00  0.00    +0.000 HD
ATOM     27  H   UNL     1      43.789   2.827  13.496  0.00  0.00    +0.000 HD
ENDBRANCH  17  24
ENDBRANCH  16  20
ENDBRANCH   1  16
TORSDOF 5
ENDMDL
MODEL 6
REMARK VINA RESULT:    -6.335      4.039      8.253
REMARK INTER + INTRA:          -8.896
REMARK INTER:                  -8.771
REMARK INTRA:                  -0.126
REMARK UNBOUND:                -0.710
REMARK  Name = 
REMARK  5 active torsions:
REMARK  status: ('A' for Active; 'I' for Inactive)
REMARK    1  A    between atoms: C_2  and  C_4
REMARK    2  A    between atoms: C_7  and  O_8
REMARK    3  A    between atoms: O_8  and  C_9
REMARK    4  A    between atoms: C_9  and  C_10
REMARK    5  A    between atoms: C_14  and  C_15
REMARK                            x       y       z     vdW  Elec       q    Type
REMARK                         _______ _______ _______ _____ _____    ______ ____
ROOT
ATOM      1  C   UNL     1      48.009   4.715  16.900  0.00  0.00    +0.000 C 
ATOM      2  C   UNL     1      46.966   4.837  17.997  0.00  0.00    +0.000 C 
ATOM      3  C   UNL     1      47.201   3.517  17.341  0.00  0.00    +0.000 C 
ENDROOT
BRANCH   1   4
ATOM      4  C   UNL     1      47.744   5.332  15.532  0.00  0.00    +0.000 A 
ATOM      5  C   UNL     1      48.596   6.294  14.983  0.00  0.00    +0.000 A 
ATOM      6  C   UNL     1      48.430   6.747  13.676  0.00  0.00    +0.000 A 
ATOM      7  C   UNL     1      47.406   6.230  12.878  0.00  0.00    +0.000 A 
ATOM      8  C   UNL     1      46.514   5.274  13.381  0.00  0.00    +0.000 A 
ATOM      9  C   UNL     1      46.688   4.861  14.719  0.00  0.00    +0.000 A 
BRANCH   8  10
ATOM     10  C   UNL     1      45.494   4.652  12.512  0.00  0.00    +0.000 A 
ATOM     11  C   UNL     1      44.997   5.246  11.351  0.00  0.00    +0.000 A 
ATOM     12  N   UNL     1      44.005   4.704  10.598  0.00  0.00    +0.000 NA
ATOM     13  C   UNL     1      43.513   3.534  11.055  0.00  0.00    +0.000 A 
ATOM     14  C   UNL     1      44.002   2.923  12.196  0.00  0.00    +0.000 A 
ATOM     15  N   UNL     1      45.001   3.456  12.935  0.00  0.00    +0.000 NA
ENDBRANCH   8  10
ENDBRANCH   1   4
BRANCH   1  16
ATOM     16  O   UNL     1      49.323   4.929  17.470  0.00  0.00    +0.000 OA
BRANCH  16  20
ATOM     17  C   UNL     1      52.076   1.873  17.654  0.00  0.00    +0.000 A 
ATOM     18  C   UNL     1      52.330   3.090  18.290  0.00  0.00    +0.000 A 
ATOM     19  C   UNL     1      51.386   4.107  18.194  0.00  0.00    +0.000 A 
ATOM     20  C   UNL     1      50.216   3.873  17.486  0.00  0.00    +0.000 A 
ATOM     21  N   UNL     1      49.925   2.704  16.879  0.00  0.00    +0.000 NA
ATOM     22  C   UNL     1      50.879   1.737  16.957  0.00  0.00    +0.000 A 
BRANCH  17  24
ATOM     23  N   UNL     1      52.700  -0.375  18.335  0.00  0.00    +0.000 N 
ATOM     24  C   UNL     1      53.047   0.765  17.665  0.00  0.00    +0.000 C 
ATOM     25  O   UNL     1      54.118   0.853  17.071  0.00  0.00    +0.000 OA
ATOM     26  H   UNL     1      53.356  -1.144  18.305  0.00  0.00    +0.000 HD
ATOM     27  H   UNL     1      51.753  -0.577  18.639  0.00  0.00    +0.000 HD
ENDBRANCH  17  24
ENDBRANCH  16  20
ENDBRANCH   1  16
TORSDOF 5
ENDMDL
MODEL 7
REMARK VINA RESULT:    -6.310      3.466      8.256
REMARK INTER + INTRA:          -8.863
REMARK INTER:                  -7.874
REMARK INTRA:                  -0.989
REMARK UNBOUND:                -0.710
REMARK  Name = 
REMARK  5 active torsions:
REMARK  status: ('A' for Active; 'I' for Inactive)
REMARK    1  A    between atoms: C_2  and  C_4
REMARK    2  A    between atoms: C_7  and  O_8
REMARK    3  A    between atoms: O_8  and  C_9
REMARK    4  A    between atoms: C_9  and  C_10
REMARK    5  A    between atoms: C_14  and  C_15
REMARK                            x       y       z     vdW  Elec       q    Type
REMARK                         _______ _______ _______ _____ _____    ______ ____
ROOT
ATOM      1  C   UNL     1      49.190   7.845  12.899  0.00  0.00    +0.000 C 
ATOM      2  C   UNL     1      50.061   8.013  11.666  0.00  0.00    +0.000 C 
ATOM      3  C   UNL     1      49.778   9.189  12.540  0.00  0.00    +0.000 C 
ENDROOT
BRANCH   1   4
ATOM      4  C   UNL     1      47.691   7.619  12.741  0.00  0.00    +0.000 A 
ATOM      5  C   UNL     1      46.757   8.564  13.173  0.00  0.00    +0.000 A 
ATOM      6  C   UNL     1      45.399   8.418  12.896  0.00  0.00    +0.000 A 
ATOM      7  C   UNL     1      44.946   7.320  12.161  0.00  0.00    +0.000 A 
ATOM      8  C   UNL     1      45.836   6.334  11.716  0.00  0.00    +0.000 A 
ATOM      9  C   UNL     1      47.200   6.493  12.041  0.00  0.00    +0.000 A 
BRANCH   8  10
ATOM     10  C   UNL     1      45.377   5.226  10.855  0.00  0.00    +0.000 A 
ATOM     11  C   UNL     1      44.677   4.115  11.327  0.00  0.00    +0.000 A 
ATOM     12  N   UNL     1      44.324   3.062  10.544  0.00  0.00    +0.000 NA
ATOM     13  C   UNL     1      44.707   3.155   9.254  0.00  0.00    +0.000 A 
ATOM     14  C   UNL     1      45.389   4.254   8.764  0.00  0.00    +0.000 A 
ATOM     15  N   UNL     1      45.724   5.308   9.542  0.00  0.00    +0.000 NA
ENDBRANCH   8  10
ENDBRANCH   1   4
BRANCH   1  16
ATOM     16  O   UNL     1      49.881   7.005  13.856  0.00  0.00    +0.000 OA
BRANCH  16  20
ATOM     17  C   UNL     1      48.240   6.714  17.621  0.00  0.00    +0.000 A 
ATOM     18  C   UNL     1      48.811   7.914  17.191  0.00  0.00    +0.000 A 
ATOM     19  C   UNL     1      49.371   7.973  15.919  0.00  0.00    +0.000 A 
ATOM     20  C   UNL     1      49.328   6.845  15.113  0.00  0.00    +0.000 A 
ATOM     21  N   UNL     1      48.765   5.676  15.484  0.00  0.00    +0.000 NA
ATOM     22  C   UNL     1      48.255   5.633  16.745  0.00  0.00    +0.000 A 
BRANCH  17  24
ATOM     23  N   UNL     1      46.976   5.410  19.234  0.00  0.00    +0.000 N 
ATOM     24  C   UNL     1      47.673   6.555  18.971  0.00  0.00    +0.000 C 
ATOM     25  O   UNL     1      47.844   7.409  19.836  0.00  0.00    +0.000 OA
ATOM     26  H   UNL     1      46.623   5.292  20.174  0.00  0.00    +0.000 HD
ATOM     27  H   UNL     1      47.004   4.590  18.637  0.00  0.00    +0.000 HD
ENDBRANCH  17  24
ENDBRANCH  16  20
ENDBRANCH   1  16
TORSDOF 5
ENDMDL
MODEL 8
REMARK VINA RESULT:    -6.116      3.208      7.059
REMARK INTER + INTRA:          -8.614
REMARK INTER:                  -7.709
REMARK INTRA:                  -0.905
REMARK UNBOUND:                -0.710
REMARK  Name = 
REMARK  5 active torsions:
REMARK  status: ('A' for Active; 'I' for Inactive)
REMARK    1  A    between atoms: C_2  and  C_4
REMARK    2  A    between atoms: C_7  and  O_8
REMARK    3  A    between atoms: O_8  and  C_9
REMARK    4  A    between atoms: C_9  and  C_10
REMARK    5  A    between atoms: C_14  and  C_15
REMARK                            x       y       z     vdW  Elec       q    Type
REMARK                         _______ _______ _______ _____ _____    ______ ____
ROOT
ATOM      1  C   UNL     1      46.204   5.084  13.390  0.00  0.00    +0.000 C 
ATOM      2  C   UNL     1      45.984   4.374  14.714  0.00  0.00    +0.000 C 
ATOM      3  C   UNL     1      47.161   4.018  13.869  0.00  0.00    +0.000 C 
ENDROOT
BRANCH   1   4
ATOM      4  C   UNL     1      45.286   4.789  12.210  0.00  0.00    +0.000 A 
ATOM      5  C   UNL     1      44.010   5.351  12.115  0.00  0.00    +0.000 A 
ATOM      6  C   UNL     1      43.234   5.194  10.969  0.00  0.00    +0.000 A 
ATOM      7  C   UNL     1      43.730   4.478   9.877  0.00  0.00    +0.000 A 
ATOM      8  C   UNL     1      44.996   3.881   9.922  0.00  0.00    +0.000 A 
ATOM      9  C   UNL     1      45.744   4.029  11.110  0.00  0.00    +0.000 A 
BRANCH   8  10
ATOM     10  C   UNL     1      45.565   3.208   8.737  0.00  0.00    +0.000 A 
ATOM     11  C   UNL     1      45.833   1.840   8.675  0.00  0.00    +0.000 A 
ATOM     12  N   UNL     1      46.427   1.240   7.610  0.00  0.00    +0.000 NA
ATOM     13  C   UNL     1      46.755   2.067   6.597  0.00  0.00    +0.000 A 
ATOM     14  C   UNL     1      46.486   3.423   6.634  0.00  0.00    +0.000 A 
ATOM     15  N   UNL     1      45.879   4.016   7.688  0.00  0.00    +0.000 NA
ENDBRANCH   8  10
ENDBRANCH   1   4
BRANCH   1  16
ATOM     16  O   UNL     1      46.515   6.476  13.645  0.00  0.00    +0.000 OA
BRANCH  16  20
ATOM     17  C   UNL     1      50.116   7.969  12.321  0.00  0.00    +0.000 A 
ATOM     18  C   UNL     1      49.055   7.791  11.430  0.00  0.00    +0.000 A 
ATOM     19  C   UNL     1      47.858   7.269  11.908  0.00  0.00    +0.000 A 
ATOM     20  C   UNL     1      47.750   6.960  13.256  0.00  0.00    +0.000 A 
ATOM     21  N   UNL     1      48.743   7.139  14.150  0.00  0.00    +0.000 NA
ATOM     22  C   UNL     1      49.916   7.618  13.652  0.00  0.00    +0.000 A 
BRANCH  17  24
ATOM     23  N   UNL     1      52.509   8.187  12.676  0.00  0.00    +0.000 N 
ATOM     24  C   UNL     1      51.431   8.467  11.885  0.00  0.00    +0.000 C 
ATOM     25  O   UNL     1      51.558   9.089  10.833  0.00  0.00    +0.000 OA
ATOM     26  H   UNL     1      53.414   8.500  12.349  0.00  0.00    +0.000 HD
ATOM     27  H   UNL     1      52.492   7.495  13.418  0.00  0.00    +0.000 HD
ENDBRANCH  17  24
ENDBRANCH  16  20
ENDBRANCH   1  16
TORSDOF 5
ENDMDL
