MODEL 1
REMARK VINA RESULT:    -7.833      0.000      0.000
REMARK INTER + INTRA:         -11.833
REMARK INTER:                 -10.580
REMARK INTRA:                  -1.253
REMARK UNBOUND:                -1.253
REMARK  Name = 
REMARK  6 active torsions:
REMARK  status: ('A' for Active; 'I' for Inactive)
REMARK    1  A    between atoms: C_2  and  C_21
REMARK    2  A    between atoms: N_3  and  C_4
REMARK    3  A    between atoms: C_4  and  C_5
REMARK    4  A    between atoms: C_8  and  C_9
REMARK    5  A    between atoms: C_9  and  C_10
REMARK    6  A    between atoms: C_10  and  C_11
REMARK                            x       y       z     vdW  Elec       q    Type
REMARK                         _______ _______ _______ _____ _____    ______ ____
ROOT
ATOM      1  C   UNL     1      48.650   7.760  12.606  0.00  0.00    +0.000 C 
ENDROOT
BRANCH   1   2
ATOM      2  C   UNL     1      47.325   7.045  12.672  0.00  0.00    +0.000 A 
ATOM      3  C   UNL     1      47.270   5.718  13.107  0.00  0.00    +0.000 A 
ATOM      4  C   UNL     1      46.049   5.047  13.185  0.00  0.00    +0.000 A 
ATOM      5  C   UNL     1      44.852   5.689  12.834  0.00  0.00    +0.000 A 
ATOM      6  C   UNL     1      44.912   7.006  12.364  0.00  0.00    +0.000 A 
ATOM      7  C   UNL     1      46.138   7.675  12.275  0.00  0.00    +0.000 A 
BRANCH   5   8
ATOM      8  C   UNL     1      43.525   4.968  12.949  0.00  0.00    +0.000 C 
BRANCH   8   9
ATOM      9  C   UNL     1      42.951   4.622  11.576  0.00  0.00    +0.000 C 
BRANCH   9  10
ATOM     10  C   UNL     1      43.357   3.247  11.073  0.00  0.00    +0.000 C 
ATOM     11  O   UNL     1      43.047   2.224  11.682  0.00  0.00    +0.000 OA
ATOM     12  N   UNL     1      44.106   3.225   9.894  0.00  0.00    +0.000 N 
ATOM     13  C   UNL     1      44.381   1.936   9.259  0.00  0.00    +0.000 C 
ATOM     14  C   UNL     1      45.775   1.890   8.633  0.00  0.00    +0.000 C 
ATOM     15  C   UNL     1      46.045   3.100   7.741  0.00  0.00    +0.000 C 
ATOM     16  C   UNL     1      45.765   4.395   8.493  0.00  0.00    +0.000 C 
ATOM     17  C   UNL     1      44.350   4.401   9.056  0.00  0.00    +0.000 C 
ENDBRANCH   9  10
ENDBRANCH   8   9
ENDBRANCH   5   8
ENDBRANCH   1   2
BRANCH   1  20
ATOM     18  O   UNL     1      49.074   8.695  15.243  0.00  0.00    +0.000 OA
ATOM     19  C   UNL     1      49.693   7.711  14.847  0.00  0.00    +0.000 C 
ATOM     20  N   UNL     1      49.582   7.233  13.570  0.00  0.00    +0.000 N 
ATOM     21  H   UNL     1      49.971   6.326  13.345  0.00  0.00    +0.000 HD
BRANCH  19  22
ATOM     22  C   UNL     1      50.650   7.004  15.712  0.00  0.00    +0.000 A 
ATOM     23  C   UNL     1      51.991   7.357  15.693  0.00  0.00    +0.000 A 
ATOM     24  S   UNL     1      52.960   6.418  16.736  0.00  0.00    +0.000 S 
ATOM     25  C   UNL     1      51.611   5.540  17.290  0.00  0.00    +0.000 A 
ATOM     26  N   UNL     1      51.746   4.576  18.239  0.00  0.00    +0.000 NA
ATOM     27  C   UNL     1      50.634   4.025  18.601  0.00  0.00    +0.000 A 
ATOM     28  N   UNL     1      49.403   4.342  18.090  0.00  0.00    +0.000 N 
ATOM     29  C   UNL     1      49.233   5.240  17.066  0.00  0.00    +0.000 A 
ATOM     30  O   UNL     1      48.140   5.381  16.526  0.00  0.00    +0.000 OA
ATOM     31  C   UNL     1      50.443   5.935  16.664  0.00  0.00    +0.000 A 
ATOM     32  H   UNL     1      48.575   3.848  18.389  0.00  0.00    +0.000 HD
ENDBRANCH  19  22
ENDBRANCH   1  20
TORSDOF 6
ENDMDL
MODEL 2
REMARK VINA RESULT:    -7.770      1.734      2.035
REMARK INTER + INTRA:         -11.749
REMARK INTER:                 -10.814
REMARK INTRA:                  -0.934
REMARK UNBOUND:                -1.253
REMARK  Name = 
REMARK  6 active torsions:
REMARK  status: ('A' for Active; 'I' for Inactive)
REMARK    1  A    between atoms: C_2  and  C_21
REMARK    2  A    between atoms: N_3  and  C_4
REMARK    3  A    between atoms: C_4  and  C_5
REMARK    4  A    between atoms: C_8  and  C_9
REMARK    5  A    between atoms: C_9  and  C_10
REMARK    6  A    between atoms: C_10  and  C_11
REMARK                            x       y       z     vdW  Elec       q    Type
REMARK                         _______ _______ _______ _____ _____    ______ ____
ROOT
ATOM      1  C   UNL     1      47.417   8.430  13.435  0.00  0.00    +0.000 C 
ENDROOT
BRANCH   1   2
ATOM      2  C   UNL     1      46.444   7.533  12.715  0.00  0.00    +0.000 A 
ATOM      3  C   UNL     1      46.715   6.167  12.589  0.00  0.00    +0.000 A 
ATOM      4  C   UNL     1      45.819   5.323  11.935  0.00  0.00    +0.000 A 
ATOM      5  C   UNL     1      44.624   5.823  11.394  0.00  0.00    +0.000 A 
ATOM      6  C   UNL     1      44.370   7.196  11.487  0.00  0.00    +0.000 A 
ATOM      7  C   UNL     1      45.275   8.045  12.134  0.00  0.00    +0.000 A 
BRANCH   5   8
ATOM      8  C   UNL     1      43.638   4.898  10.712  0.00  0.00    +0.000 C 
BRANCH   8   9
ATOM      9  C   UNL     1      44.164   4.409   9.363  0.00  0.00    +0.000 C 
BRANCH   9  10
ATOM     10  C   UNL     1      44.596   2.952   9.368  0.00  0.00    +0.000 C 
ATOM     11  O   UNL     1      44.229   2.177  10.250  0.00  0.00    +0.000 OA
ATOM     12  N   UNL     1      45.436   2.561   8.322  0.00  0.00    +0.000 N 
ATOM     13  C   UNL     1      45.748   1.141   8.164  0.00  0.00    +0.000 C 
ATOM     14  C   UNL     1      47.187   0.917   7.699  0.00  0.00    +0.000 C 
ATOM     15  C   UNL     1      47.538   1.776   6.486  0.00  0.00    +0.000 C 
ATOM     16  C   UNL     1      47.212   3.240   6.751  0.00  0.00    +0.000 C 
ATOM     17  C   UNL     1      45.757   3.405   7.170  0.00  0.00    +0.000 C 
ENDBRANCH   9  10
ENDBRANCH   8   9
ENDBRANCH   5   8
ENDBRANCH   1   2
BRANCH   1  20
ATOM     18  O   UNL     1      49.791   7.023  14.059  0.00  0.00    +0.000 OA
ATOM     19  C   UNL     1      48.980   7.259  14.950  0.00  0.00    +0.000 C 
ATOM     20  N   UNL     1      47.787   7.885  14.717  0.00  0.00    +0.000 N 
ATOM     21  H   UNL     1      47.238   8.212  15.501  0.00  0.00    +0.000 HD
BRANCH  19  22
ATOM     22  C   UNL     1      49.215   6.828  16.337  0.00  0.00    +0.000 A 
ATOM     23  C   UNL     1      49.868   7.673  17.223  0.00  0.00    +0.000 A 
ATOM     24  S   UNL     1      50.078   7.004  18.777  0.00  0.00    +0.000 S 
ATOM     25  C   UNL     1      49.258   5.579  18.335  0.00  0.00    +0.000 A 
ATOM     26  N   UNL     1      49.058   4.579  19.236  0.00  0.00    +0.000 NA
ATOM     27  C   UNL     1      48.379   3.579  18.779  0.00  0.00    +0.000 A 
ATOM     28  N   UNL     1      47.892   3.484  17.503  0.00  0.00    +0.000 N 
ATOM     29  C   UNL     1      48.151   4.424  16.537  0.00  0.00    +0.000 A 
ATOM     30  O   UNL     1      47.837   4.230  15.366  0.00  0.00    +0.000 OA
ATOM     31  C   UNL     1      48.857   5.600  17.013  0.00  0.00    +0.000 A 
ATOM     32  H   UNL     1      47.399   2.657  17.197  0.00  0.00    +0.000 HD
ENDBRANCH  19  22
ENDBRANCH   1  20
TORSDOF 6
ENDMDL
MODEL 3
REMARK VINA RESULT:    -7.548      2.745      3.451
REMARK INTER + INTRA:         -11.448
REMARK INTER:                 -10.465
REMARK INTRA:                  -0.983
REMARK UNBOUND:                -1.253
REMARK  Name = 
REMARK  6 active torsions:
REMARK  status: ('A' for Active; 'I' for Inactive)
REMARK    1  A    between atoms: C_2  and  C_21
REMARK    2  A    between atoms: N_3  and  C_4
REMARK    3  A    between atoms: C_4  and  C_5
REMARK    4  A    between atoms: C_8  and  C_9
REMARK    5  A    between atoms: C_9  and  C_10
REMARK    6  A    between atoms: C_10  and  C_11
REMARK                            x       y       z     vdW  Elec       q    Type
REMARK                         _______ _______ _______ _____ _____    ______ ____
ROOT
ATOM      1  C   UNL     1      48.369   6.291  14.382  0.00  0.00    +0.000 C 
ENDROOT
BRANCH   1   2
ATOM      2  C   UNL     1      47.114   5.990  13.605  0.00  0.00    +0.000 A 
ATOM      3  C   UNL     1      46.571   6.957  12.753  0.00  0.00    +0.000 A 
ATOM      4  C   UNL     1      45.416   6.687  12.019  0.00  0.00    +0.000 A 
ATOM      5  C   UNL     1      44.779   5.441  12.113  0.00  0.00    +0.000 A 
ATOM      6  C   UNL     1      45.301   4.486  12.992  0.00  0.00    +0.000 A 
ATOM      7  C   UNL     1      46.453   4.760  13.738  0.00  0.00    +0.000 A 
BRANCH   5   8
ATOM      8  C   UNL     1      43.543   5.141  11.290  0.00  0.00    +0.000 C 
BRANCH   8   9
ATOM      9  C   UNL     1      43.905   4.677   9.880  0.00  0.00    +0.000 C 
BRANCH   9  10
ATOM     10  C   UNL     1      44.234   3.196   9.790  0.00  0.00    +0.000 C 
ATOM     11  O   UNL     1      43.820   2.394  10.627  0.00  0.00    +0.000 OA
ATOM     12  N   UNL     1      45.037   2.814   8.712  0.00  0.00    +0.000 N 
ATOM     13  C   UNL     1      45.248   1.388   8.463  0.00  0.00    +0.000 C 
ATOM     14  C   UNL     1      46.664   1.095   7.968  0.00  0.00    +0.000 C 
ATOM     15  C   UNL     1      47.066   2.001   6.806  0.00  0.00    +0.000 C 
ATOM     16  C   UNL     1      46.844   3.465   7.166  0.00  0.00    +0.000 C 
ATOM     17  C   UNL     1      45.407   3.704   7.610  0.00  0.00    +0.000 C 
ENDBRANCH   9  10
ENDBRANCH   8   9
ENDBRANCH   5   8
ENDBRANCH   1   2
BRANCH   1  20
ATOM     18  O   UNL     1      50.055   5.539  16.526  0.00  0.00    +0.000 OA
ATOM     19  C   UNL     1      48.988   6.095  16.767  0.00  0.00    +0.000 C 
ATOM     20  N   UNL     1      48.096   6.439  15.789  0.00  0.00    +0.000 N 
ATOM     21  H   UNL     1      47.320   7.047  16.017  0.00  0.00    +0.000 HD
BRANCH  19  22
ATOM     22  C   UNL     1      48.564   6.382  18.146  0.00  0.00    +0.000 A 
ATOM     23  C   UNL     1      48.631   5.387  19.112  0.00  0.00    +0.000 A 
ATOM     24  S   UNL     1      48.075   5.885  20.645  0.00  0.00    +0.000 S 
ATOM     25  C   UNL     1      47.773   7.464  20.085  0.00  0.00    +0.000 A 
ATOM     26  N   UNL     1      47.301   8.425  20.924  0.00  0.00    +0.000 NA
ATOM     27  C   UNL     1      47.165   9.588  20.378  0.00  0.00    +0.000 A 
ATOM     28  N   UNL     1      47.444   9.873  19.068  0.00  0.00    +0.000 N 
ATOM     29  C   UNL     1      47.831   8.914  18.166  0.00  0.00    +0.000 A 
ATOM     30  O   UNL     1      47.917   9.172  16.969  0.00  0.00    +0.000 OA
ATOM     31  C   UNL     1      48.061   7.601  18.740  0.00  0.00    +0.000 A 
ATOM     32  H   UNL     1      47.280  10.796  18.693  0.00  0.00    +0.000 HD
ENDBRANCH  19  22
ENDBRANCH   1  20
TORSDOF 6
ENDMDL
MODEL 4
REMARK VINA RESULT:    -7.158      4.140      9.733
REMARK INTER + INTRA:         -10.922
REMARK INTER:                 -10.035
REMARK INTRA:                  -0.886
REMARK UNBOUND:                -1.253
REMARK  Name = 
REMARK  6 active torsions:
REMARK  status: ('A' for Active; 'I' for Inactive)
REMARK    1  A    between atoms: C_2  and  C_21
REMARK    2  A    between atoms: N_3  and  C_4
REMARK    3  A    between atoms: C_4  and  C_5
REMARK    4  A    between atoms: C_8  and  C_9
REMARK    5  A    between atoms: C_9  and  C_10
REMARK    6  A    between atoms: C_10  and  C_11
REMARK                            x       y       z     vdW  Elec       q    Type
REMARK                         _______ _______ _______ _____ _____    ______ ____
ROOT
ATOM      1  C   UNL     1      47.170   3.427  16.811  0.00  0.00    +0.000 C 
ENDROOT
BRANCH   1   2
ATOM      2  C   UNL     1      48.633   3.512  17.160  0.00  0.00    +0.000 A 
ATOM      3  C   UNL     1      49.178   4.726  17.591  0.00  0.00    +0.000 A 
ATOM      4  C   UNL     1      50.528   4.816  17.928  0.00  0.00    +0.000 A 
ATOM      5  C   UNL     1      51.367   3.694  17.849  0.00  0.00    +0.000 A 
ATOM      6  C   UNL     1      50.830   2.489  17.382  0.00  0.00    +0.000 A 
ATOM      7  C   UNL     1      49.478   2.400  17.032  0.00  0.00    +0.000 A 
BRANCH   5   8
ATOM      8  C   UNL     1      52.825   3.789  18.246  0.00  0.00    +0.000 C 
BRANCH   8   9
ATOM      9  C   UNL     1      53.653   2.667  17.621  0.00  0.00    +0.000 C 
BRANCH   9  10
ATOM     10  C   UNL     1      54.133   1.631  18.624  0.00  0.00    +0.000 C 
ATOM     11  O   UNL     1      54.274   1.907  19.814  0.00  0.00    +0.000 OA
ATOM     12  N   UNL     1      54.412   0.364  18.106  0.00  0.00    +0.000 N 
ATOM     13  C   UNL     1      54.708  -0.727  19.035  0.00  0.00    +0.000 C 
ATOM     14  C   UNL     1      55.775  -1.675  18.487  0.00  0.00    +0.000 C 
ATOM     15  C   UNL     1      55.461  -2.131  17.064  0.00  0.00    +0.000 C 
ATOM     16  C   UNL     1      55.199  -0.932  16.161  0.00  0.00    +0.000 C 
ATOM     17  C   UNL     1      54.100  -0.048  16.736  0.00  0.00    +0.000 C 
ENDBRANCH   9  10
ENDBRANCH   8   9
ENDBRANCH   5   8
ENDBRANCH   1   2
BRANCH   1  20
ATOM     18  O   UNL     1      47.282   3.055  14.008  0.00  0.00    +0.000 OA
ATOM     19  C   UNL     1      46.847   4.111  14.457  0.00  0.00    +0.000 C 
ATOM     20  N   UNL     1      46.813   4.387  15.797  0.00  0.00    +0.000 N 
ATOM     21  H   UNL     1      46.288   5.187  16.125  0.00  0.00    +0.000 HD
BRANCH  19  22
ATOM     22  C   UNL     1      46.380   5.190  13.572  0.00  0.00    +0.000 A 
ATOM     23  C   UNL     1      47.217   6.258  13.282  0.00  0.00    +0.000 A 
ATOM     24  S   UNL     1      46.506   7.427  12.265  0.00  0.00    +0.000 S 
ATOM     25  C   UNL     1      45.070   6.521  12.134  0.00  0.00    +0.000 A 
ATOM     26  N   UNL     1      44.036   6.956  11.365  0.00  0.00    +0.000 NA
ATOM     27  C   UNL     1      43.031   6.147  11.318  0.00  0.00    +0.000 A 
ATOM     28  N   UNL     1      42.960   4.950  11.980  0.00  0.00    +0.000 N 
ATOM     29  C   UNL     1      43.938   4.518  12.840  0.00  0.00    +0.000 A 
ATOM     30  O   UNL     1      43.771   3.522  13.537  0.00  0.00    +0.000 OA
ATOM     31  C   UNL     1      45.121   5.359  12.882  0.00  0.00    +0.000 A 
ATOM     32  H   UNL     1      42.128   4.379  11.931  0.00  0.00    +0.000 HD
ENDBRANCH  19  22
ENDBRANCH   1  20
TORSDOF 6
ENDMDL
MODEL 5
REMARK VINA RESULT:    -7.050      3.052      8.359
REMARK INTER + INTRA:         -10.776
REMARK INTER:                  -9.394
REMARK INTRA:                  -1.382
REMARK UNBOUND:                -1.253
REMARK  Name = 
REMARK  6 active torsions:
REMARK  status: ('A' for Active; 'I' for Inactive)
REMARK    1  A    between atoms: C_2  and  C_21
REMARK    2  A    between atoms: N_3  and  C_4
REMARK    3  A    between atoms: C_4  and  C_5
REMARK    4  A    between atoms: C_8  and  C_9
REMARK    5  A    between atoms: C_9  and  C_10
REMARK    6  A    between atoms: C_10  and  C_11
REMARK                            x       y       z     vdW  Elec       q    Type
REMARK                         _______ _______ _______ _____ _____    ______ ____
ROOT
ATOM      1  C   UNL     1      47.215   7.985  12.092  0.00  0.00    +0.000 C 
ENDROOT
BRANCH   1   2
ATOM      2  C   UNL     1      47.921   8.044  13.422  0.00  0.00    +0.000 A 
ATOM      3  C   UNL     1      47.711   9.131  14.276  0.00  0.00    +0.000 A 
ATOM      4  C   UNL     1      48.348   9.193  15.515  0.00  0.00    +0.000 A 
ATOM      5  C   UNL     1      49.207   8.166  15.934  0.00  0.00    +0.000 A 
ATOM      6  C   UNL     1      49.445   7.096  15.064  0.00  0.00    +0.000 A 
ATOM      7  C   UNL     1      48.816   7.039  13.816  0.00  0.00    +0.000 A 
BRANCH   5   8
ATOM      8  C   UNL     1      49.872   8.220  17.294  0.00  0.00    +0.000 C 
BRANCH   8   9
ATOM      9  C   UNL     1      49.157   7.329  18.307  0.00  0.00    +0.000 C 
BRANCH   9  10
ATOM     10  C   UNL     1      49.810   5.969  18.494  0.00  0.00    +0.000 C 
ATOM     11  O   UNL     1      50.902   5.853  19.050  0.00  0.00    +0.000 OA
ATOM     12  N   UNL     1      49.102   4.877  17.987  0.00  0.00    +0.000 N 
ATOM     13  C   UNL     1      49.583   3.528  18.284  0.00  0.00    +0.000 C 
ATOM     14  C   UNL     1      49.380   2.573  17.108  0.00  0.00    +0.000 C 
ATOM     15  C   UNL     1      47.954   2.626  16.565  0.00  0.00    +0.000 C 
ATOM     16  C   UNL     1      47.550   4.061  16.253  0.00  0.00    +0.000 C 
ATOM     17  C   UNL     1      47.734   4.955  17.472  0.00  0.00    +0.000 C 
ENDBRANCH   9  10
ENDBRANCH   8   9
ENDBRANCH   5   8
ENDBRANCH   1   2
BRANCH   1  20
ATOM     18  O   UNL     1      44.453   7.608  11.609  0.00  0.00    +0.000 OA
ATOM     19  C   UNL     1      45.198   6.633  11.631  0.00  0.00    +0.000 C 
ATOM     20  N   UNL     1      46.533   6.729  11.911  0.00  0.00    +0.000 N 
ATOM     21  H   UNL     1      47.134   5.931  11.744  0.00  0.00    +0.000 HD
BRANCH  19  22
ATOM     22  C   UNL     1      44.689   5.271  11.409  0.00  0.00    +0.000 A 
ATOM     23  C   UNL     1      43.920   4.653  12.385  0.00  0.00    +0.000 A 
ATOM     24  S   UNL     1      43.438   3.069  11.974  0.00  0.00    +0.000 S 
ATOM     25  C   UNL     1      44.198   3.172  10.454  0.00  0.00    +0.000 A 
ATOM     26  N   UNL     1      44.140   2.140   9.571  0.00  0.00    +0.000 NA
ATOM     27  C   UNL     1      44.717   2.373   8.439  0.00  0.00    +0.000 A 
ATOM     28  N   UNL     1      45.357   3.540   8.115  0.00  0.00    +0.000 N 
ATOM     29  C   UNL     1      45.521   4.569   9.008  0.00  0.00    +0.000 A 
ATOM     30  O   UNL     1      46.236   5.530   8.739  0.00  0.00    +0.000 OA
ATOM     31  C   UNL     1      44.837   4.385  10.275  0.00  0.00    +0.000 A 
ATOM     32  H   UNL     1      45.821   3.646   7.225  0.00  0.00    +0.000 HD
ENDBRANCH  19  22
ENDBRANCH   1  20
TORSDOF 6
ENDMDL
MODEL 6
REMARK VINA RESULT:    -6.878      2.589      4.254
REMARK INTER + INTRA:         -10.544
REMARK INTER:                  -9.398
REMARK INTRA:                  -1.145
REMARK UNBOUND:                -1.253
REMARK  Name = 
REMARK  6 active torsions:
REMARK  status: ('A' for Active; 'I' for Inactive)
REMARK    1  A    between atoms: C_2  and  C_21
REMARK    2  A    between atoms: N_3  and  C_4
REMARK    3  A    between atoms: C_4  and  C_5
REMARK    4  A    between atoms: C_8  and  C_9
REMARK    5  A    between atoms: C_9  and  C_10
REMARK    6  A    between atoms: C_10  and  C_11
REMARK                            x       y       z     vdW  Elec       q    Type
REMARK                         _______ _______ _______ _____ _____    ______ ____
ROOT
ATOM      1  C   UNL     1      47.928   5.874  14.429  0.00  0.00    +0.000 C 
ENDROOT
BRANCH   1   2
ATOM      2  C   UNL     1      46.849   5.622  13.409  0.00  0.00    +0.000 A 
ATOM      3  C   UNL     1      45.859   4.668  13.661  0.00  0.00    +0.000 A 
ATOM      4  C   UNL     1      44.847   4.432  12.730  0.00  0.00    +0.000 A 
ATOM      5  C   UNL     1      44.797   5.149  11.525  0.00  0.00    +0.000 A 
ATOM      6  C   UNL     1      45.809   6.078  11.257  0.00  0.00    +0.000 A 
ATOM      7  C   UNL     1      46.831   6.306  12.185  0.00  0.00    +0.000 A 
BRANCH   5   8
ATOM      8  C   UNL     1      43.679   4.913  10.531  0.00  0.00    +0.000 C 
BRANCH   8   9
ATOM      9  C   UNL     1      44.215   4.416   9.189  0.00  0.00    +0.000 C 
BRANCH   9  10
ATOM     10  C   UNL     1      44.639   2.957   9.203  0.00  0.00    +0.000 C 
ATOM     11  O   UNL     1      44.216   2.174  10.053  0.00  0.00    +0.000 OA
ATOM     12  N   UNL     1      45.537   2.573   8.205  0.00  0.00    +0.000 N 
ATOM     13  C   UNL     1      45.851   1.152   8.050  0.00  0.00    +0.000 C 
ATOM     14  C   UNL     1      47.314   0.926   7.668  0.00  0.00    +0.000 C 
ATOM     15  C   UNL     1      47.742   1.795   6.488  0.00  0.00    +0.000 C 
ATOM     16  C   UNL     1      47.407   3.258   6.750  0.00  0.00    +0.000 C 
ATOM     17  C   UNL     1      45.930   3.427   7.083  0.00  0.00    +0.000 C 
ENDBRANCH   9  10
ENDBRANCH   8   9
ENDBRANCH   5   8
ENDBRANCH   1   2
BRANCH   1  20
ATOM     18  O   UNL     1      50.400   6.707  15.525  0.00  0.00    +0.000 OA
ATOM     19  C   UNL     1      49.827   7.430  14.715  0.00  0.00    +0.000 C 
ATOM     20  N   UNL     1      48.605   7.122  14.184  0.00  0.00    +0.000 N 
ATOM     21  H   UNL     1      48.259   7.654  13.396  0.00  0.00    +0.000 HD
BRANCH  19  22
ATOM     22  C   UNL     1      50.397   8.721  14.298  0.00  0.00    +0.000 A 
ATOM     23  C   UNL     1      50.634   9.710  15.242  0.00  0.00    +0.000 A 
ATOM     24  S   UNL     1      51.270  11.148  14.580  0.00  0.00    +0.000 S 
ATOM     25  C   UNL     1      51.301  10.480  13.015  0.00  0.00    +0.000 A 
ATOM     26  N   UNL     1      51.774  11.194  11.959  0.00  0.00    +0.000 NA
ATOM     27  C   UNL     1      51.786  10.547  10.840  0.00  0.00    +0.000 A 
ATOM     28  N   UNL     1      51.355   9.257  10.680  0.00  0.00    +0.000 N 
ATOM     29  C   UNL     1      50.783   8.534  11.696  0.00  0.00    +0.000 A 
ATOM     30  O   UNL     1      50.263   7.443  11.480  0.00  0.00    +0.000 OA
ATOM     31  C   UNL     1      50.803   9.190  12.991  0.00  0.00    +0.000 A 
ATOM     32  H   UNL     1      51.355   8.820   9.770  0.00  0.00    +0.000 HD
ENDBRANCH  19  22
ENDBRANCH   1  20
TORSDOF 6
ENDMDL
MODEL 7
REMARK VINA RESULT:    -6.864      3.361      9.030
REMARK INTER + INTRA:         -10.524
REMARK INTER:                  -8.969
REMARK INTRA:                  -1.555
REMARK UNBOUND:                -1.253
REMARK  Name = 
REMARK  6 active torsions:
REMARK  status: ('A' for Active; 'I' for Inactive)
REMARK    1  A    between atoms: C_2  and  C_21
REMARK    2  A    between atoms: N_3  and  C_4
REMARK    3  A    between atoms: C_4  and  C_5
REMARK    4  A    between atoms: C_8  and  C_9
REMARK    5  A    between atoms: C_9  and  C_10
REMARK    6  A    between atoms: C_10  and  C_11
REMARK                            x       y       z     vdW  Elec       q    Type
REMARK                         _______ _______ _______ _____ _____    ______ ____
ROOT
ATOM      1  C   UNL     1      47.272   3.554  16.645  0.00  0.00    +0.000 C 
ENDROOT
BRANCH   1   2
ATOM      2  C   UNL     1      48.075   4.248  17.714  0.00  0.00    +0.000 A 
ATOM      3  C   UNL     1      49.446   3.999  17.830  0.00  0.00    +0.000 A 
ATOM      4  C   UNL     1      50.203   4.642  18.808  0.00  0.00    +0.000 A 
ATOM      5  C   UNL     1      49.610   5.556  19.692  0.00  0.00    +0.000 A 
ATOM      6  C   UNL     1      48.232   5.778  19.600  0.00  0.00    +0.000 A 
ATOM      7  C   UNL     1      47.469   5.123  18.626  0.00  0.00    +0.000 A 
BRANCH   5   8
ATOM      8  C   UNL     1      50.442   6.277  20.732  0.00  0.00    +0.000 C 
BRANCH   8   9
ATOM      9  C   UNL     1      51.166   7.483  20.137  0.00  0.00    +0.000 C 
BRANCH   9  10
ATOM     10  C   UNL     1      50.275   8.700  19.950  0.00  0.00    +0.000 C 
ATOM     11  O   UNL     1      49.997   9.442  20.892  0.00  0.00    +0.000 OA
ATOM     12  N   UNL     1      49.791   8.909  18.657  0.00  0.00    +0.000 N 
ATOM     13  C   UNL     1      49.075  10.151  18.366  0.00  0.00    +0.000 C 
ATOM     14  C   UNL     1      47.923   9.934  17.384  0.00  0.00    +0.000 C 
ATOM     15  C   UNL     1      48.364   9.158  16.144  0.00  0.00    +0.000 C 
ATOM     16  C   UNL     1      49.069   7.867  16.541  0.00  0.00    +0.000 C 
ATOM     17  C   UNL     1      50.231   8.150  17.485  0.00  0.00    +0.000 C 
ENDBRANCH   9  10
ENDBRANCH   8   9
ENDBRANCH   5   8
ENDBRANCH   1   2
BRANCH   1  20
ATOM     18  O   UNL     1      47.238   3.223  13.835  0.00  0.00    +0.000 OA
ATOM     19  C   UNL     1      46.745   4.233  14.327  0.00  0.00    +0.000 C 
ATOM     20  N   UNL     1      46.772   4.491  15.670  0.00  0.00    +0.000 N 
ATOM     21  H   UNL     1      46.204   5.240  16.043  0.00  0.00    +0.000 HD
BRANCH  19  22
ATOM     22  C   UNL     1      46.135   5.278  13.489  0.00  0.00    +0.000 A 
ATOM     23  C   UNL     1      46.841   6.437  13.204  0.00  0.00    +0.000 A 
ATOM     24  S   UNL     1      45.973   7.549  12.246  0.00  0.00    +0.000 S 
ATOM     25  C   UNL     1      44.640   6.496  12.134  0.00  0.00    +0.000 A 
ATOM     26  N   UNL     1      43.539   6.836  11.411  0.00  0.00    +0.000 NA
ATOM     27  C   UNL     1      42.625   5.924  11.372  0.00  0.00    +0.000 A 
ATOM     28  N   UNL     1      42.706   4.709  12.000  0.00  0.00    +0.000 N 
ATOM     29  C   UNL     1      43.755   4.364  12.815  0.00  0.00    +0.000 A 
ATOM     30  O   UNL     1      43.720   3.337  13.487  0.00  0.00    +0.000 OA
ATOM     31  C   UNL     1      44.841   5.328  12.844  0.00  0.00    +0.000 A 
ATOM     32  H   UNL     1      41.940   4.053  11.960  0.00  0.00    +0.000 HD
ENDBRANCH  19  22
ENDBRANCH   1  20
TORSDOF 6
ENDMDL
MODEL 8
REMARK VINA RESULT:    -6.735      2.896      3.543
REMARK INTER + INTRA:         -10.351
REMARK INTER:                  -9.492
REMARK INTRA:                  -0.858
REMARK UNBOUND:                -1.253
REMARK  Name = 
REMARK  6 active torsions:
REMARK  status: ('A' for Active; 'I' for Inactive)
REMARK    1  A    between atoms: C_2  and  C_21
REMARK    2  A    between atoms: N_3  and  C_4
REMARK    3  A    between atoms: C_4  and  C_5
REMARK    4  A    between atoms: C_8  and  C_9
REMARK    5  A    between atoms: C_9  and  C_10
REMARK    6  A    between atoms: C_10  and  C_11
REMARK                            x       y       z     vdW  Elec       q    Type
REMARK                         _______ _______ _______ _____ _____    ______ ____
ROOT
ATOM      1  C   UNL     1      47.801   5.237  14.658  0.00  0.00    +0.000 C 
ENDROOT
BRANCH   1   2
ATOM      2  C   UNL     1      46.703   5.152  13.631  0.00  0.00    +0.000 A 
ATOM      3  C   UNL     1      46.741   5.971  12.499  0.00  0.00    +0.000 A 
ATOM      4  C   UNL     1      45.737   5.895  11.533  0.00  0.00    +0.000 A 
ATOM      5  C   UNL     1      44.673   4.992  11.673  0.00  0.00    +0.000 A 
ATOM      6  C   UNL     1      44.615   4.197  12.823  0.00  0.00    +0.000 A 
ATOM      7  C   UNL     1      45.615   4.282  13.798  0.00  0.00    +0.000 A 
BRANCH   5   8
ATOM      8  C   UNL     1      43.601   4.889  10.607  0.00  0.00    +0.000 C 
BRANCH   8   9
ATOM      9  C   UNL     1      44.179   4.427   9.270  0.00  0.00    +0.000 C 
BRANCH   9  10
ATOM     10  C   UNL     1      44.516   2.945   9.229  0.00  0.00    +0.000 C 
ATOM     11  O   UNL     1      44.015   2.152  10.026  0.00  0.00    +0.000 OA
ATOM     12  N   UNL     1      45.428   2.553   8.247  0.00  0.00    +0.000 N 
ATOM     13  C   UNL     1      45.664   1.125   8.035  0.00  0.00    +0.000 C 
ATOM     14  C   UNL     1      47.124   0.828   7.696  0.00  0.00    +0.000 C 
ATOM     15  C   UNL     1      47.647   1.724   6.574  0.00  0.00    +0.000 C 
ATOM     16  C   UNL     1      47.389   3.191   6.894  0.00  0.00    +0.000 C 
ATOM     17  C   UNL     1      45.913   3.433   7.182  0.00  0.00    +0.000 C 
ENDBRANCH   9  10
ENDBRANCH   8   9
ENDBRANCH   5   8
ENDBRANCH   1   2
BRANCH   1  20
ATOM     18  O   UNL     1      49.984   6.348  16.075  0.00  0.00    +0.000 OA
ATOM     19  C   UNL     1      48.984   7.033  15.877  0.00  0.00    +0.000 C 
ATOM     20  N   UNL     1      47.869   6.549  15.249  0.00  0.00    +0.000 N 
ATOM     21  H   UNL     1      47.147   7.195  14.955  0.00  0.00    +0.000 HD
BRANCH  19  22
ATOM     22  C   UNL     1      48.894   8.420  16.359  0.00  0.00    +0.000 A 
ATOM     23  C   UNL     1      49.406   9.455  15.589  0.00  0.00    +0.000 A 
ATOM     24  S   UNL     1      49.241  10.990  16.311  0.00  0.00    +0.000 S 
ATOM     25  C   UNL     1      48.432  10.333  17.657  0.00  0.00    +0.000 A 
ATOM     26  N   UNL     1      47.980  11.132  18.660  0.00  0.00    +0.000 NA
ATOM     27  C   UNL     1      47.341  10.506  19.592  0.00  0.00    +0.000 A 
ATOM     28  N   UNL     1      47.125   9.154  19.619  0.00  0.00    +0.000 N 
ATOM     29  C   UNL     1      47.644   8.301  18.677  0.00  0.00    +0.000 A 
ATOM     30  O   UNL     1      47.568   7.084  18.818  0.00  0.00    +0.000 OA
ATOM     31  C   UNL     1      48.318   8.958  17.572  0.00  0.00    +0.000 A 
ATOM     32  H   UNL     1      46.649   8.720  20.396  0.00  0.00    +0.000 HD
ENDBRANCH  19  22
ENDBRANCH   1  20
TORSDOF 6
ENDMDL
MODEL 9
REMARK VINA RESULT:    -6.556      4.914      8.636
REMARK INTER + INTRA:         -10.109
REMARK INTER:                  -9.222
REMARK INTRA:                  -0.886
REMARK UNBOUND:                -1.253
REMARK  Name = 
REMARK  6 active torsions:
REMARK  status: ('A' for Active; 'I' for Inactive)
REMARK    1  A    between atoms: C_2  and  C_21
REMARK    2  A    between atoms: N_3  and  C_4
REMARK    3  A    between atoms: C_4  and  C_5
REMARK    4  A    between atoms: C_8  and  C_9
REMARK    5  A    between atoms: C_9  and  C_10
REMARK    6  A    between atoms: C_10  and  C_11
REMARK                            x       y       z     vdW  Elec       q    Type
REMARK                         _______ _______ _______ _____ _____    ______ ____
ROOT
ATOM      1  C   UNL     1      46.137   7.980  12.938  0.00  0.00    +0.000 C 
ENDROOT
BRANCH   1   2
ATOM      2  C   UNL     1      47.543   8.232  12.459  0.00  0.00    +0.000 A 
ATOM      3  C   UNL     1      48.462   7.180  12.411  0.00  0.00    +0.000 A 
ATOM      4  C   UNL     1      49.764   7.396  11.959  0.00  0.00    +0.000 A 
ATOM      5  C   UNL     1      50.177   8.669  11.539  0.00  0.00    +0.000 A 
ATOM      6  C   UNL     1      49.268   9.729  11.622  0.00  0.00    +0.000 A 
ATOM      7  C   UNL     1      47.965   9.515  12.086  0.00  0.00    +0.000 A 
BRANCH   5   8
ATOM      8  C   UNL     1      51.582   8.894  11.019  0.00  0.00    +0.000 C 
BRANCH   8   9
ATOM      9  C   UNL     1      52.025   7.767  10.087  0.00  0.00    +0.000 C 
BRANCH   9  10
ATOM     10  C   UNL     1      52.850   8.241   8.903  0.00  0.00    +0.000 C 
ATOM     11  O   UNL     1      52.934   9.435   8.616  0.00  0.00    +0.000 OA
ATOM     12  N   UNL     1      53.490   7.242   8.166  0.00  0.00    +0.000 N 
ATOM     13  C   UNL     1      54.439   7.635   7.124  0.00  0.00    +0.000 C 
ATOM     14  C   UNL     1      54.377   6.706   5.911  0.00  0.00    +0.000 C 
ATOM     15  C   UNL     1      54.457   5.234   6.310  0.00  0.00    +0.000 C 
ATOM     16  C   UNL     1      53.414   4.908   7.372  0.00  0.00    +0.000 C 
ATOM     17  C   UNL     1      53.552   5.836   8.571  0.00  0.00    +0.000 C 
ENDBRANCH   9  10
ENDBRANCH   8   9
ENDBRANCH   5   8
ENDBRANCH   1   2
BRANCH   1  20
ATOM     18  O   UNL     1      43.929   7.367  11.277  0.00  0.00    +0.000 OA
ATOM     19  C   UNL     1      44.629   6.455  11.708  0.00  0.00    +0.000 C 
ATOM     20  N   UNL     1      45.678   6.667  12.559  0.00  0.00    +0.000 N 
ATOM     21  H   UNL     1      46.326   5.912  12.744  0.00  0.00    +0.000 HD
BRANCH  19  22
ATOM     22  C   UNL     1      44.347   5.049  11.381  0.00  0.00    +0.000 A 
ATOM     23  C   UNL     1      43.566   4.283  12.234  0.00  0.00    +0.000 A 
ATOM     24  S   UNL     1      43.365   2.671  11.714  0.00  0.00    +0.000 S 
ATOM     25  C   UNL     1      44.272   2.954  10.302  0.00  0.00    +0.000 A 
ATOM     26  N   UNL     1      44.463   1.969   9.384  0.00  0.00    +0.000 NA
ATOM     27  C   UNL     1      45.127   2.337   8.338  0.00  0.00    +0.000 A 
ATOM     28  N   UNL     1      45.629   3.595   8.134  0.00  0.00    +0.000 N 
ATOM     29  C   UNL     1      45.541   4.591   9.075  0.00  0.00    +0.000 A 
ATOM     30  O   UNL     1      46.138   5.653   8.927  0.00  0.00    +0.000 OA
ATOM     31  C   UNL     1      44.749   4.251  10.243  0.00  0.00    +0.000 A 
ATOM     32  H   UNL     1      46.172   3.809   7.311  0.00  0.00    +0.000 HD
ENDBRANCH  19  22
ENDBRANCH   1  20
TORSDOF 6
ENDMDL
