MODEL 1
REMARK VINA RESULT:    -8.552      0.000      0.000
REMARK INTER + INTRA:         -12.600
REMARK INTER:                 -11.551
REMARK INTRA:                  -1.049
REMARK UNBOUND:                -1.049
REMARK  Name = 
REMARK  6 active torsions:
REMARK  status: ('A' for Active; 'I' for Inactive)
REMARK    1  A    between atoms: C_2  and  C_19
REMARK    2  A    between atoms: N_3  and  C_4
REMARK    3  A    between atoms: C_4  and  C_5
REMARK    4  A    between atoms: C_8  and  C_9
REMARK    5  A    between atoms: C_9  and  O_10
REMARK    6  A    between atoms: O_10  and  C_11
REMARK                            x       y       z     vdW  Elec       q    Type
REMARK                         _______ _______ _______ _____ _____    ______ ____
ROOT
ATOM      1  O   UNL     1      49.002   6.540  13.129  0.00  0.00    +0.000 OA
ATOM      2  C   UNL     1      48.261   6.643  14.097  0.00  0.00    +0.000 C 
ATOM      3  N   UNL     1      46.958   7.065  14.005  0.00  0.00    +0.000 N 
ATOM      4  H   UNL     1      46.445   7.281  14.848  0.00  0.00    +0.000 HD
ENDROOT
BRANCH   2   5
ATOM      5  C   UNL     1      48.692   6.259  15.448  0.00  0.00    +0.000 A 
ATOM      6  C   UNL     1      49.618   7.020  16.148  0.00  0.00    +0.000 A 
ATOM      7  S   UNL     1      49.988   6.387  17.687  0.00  0.00    +0.000 S 
ATOM      8  C   UNL     1      48.894   5.097  17.482  0.00  0.00    +0.000 A 
ATOM      9  N   UNL     1      48.704   4.168  18.458  0.00  0.00    +0.000 NA
ATOM     10  C   UNL     1      47.824   3.266  18.175  0.00  0.00    +0.000 A 
ATOM     11  N   UNL     1      47.119   3.208  16.998  0.00  0.00    +0.000 N 
ATOM     12  C   UNL     1      47.332   4.071  15.965  0.00  0.00    +0.000 A 
ATOM     13  O   UNL     1      46.791   3.885  14.876  0.00  0.00    +0.000 OA
ATOM     14  C   UNL     1      48.277   5.134  16.246  0.00  0.00    +0.000 A 
ATOM     15  H   UNL     1      46.471   2.447  16.819  0.00  0.00    +0.000 HD
ENDBRANCH   2   5
BRANCH   3  16
ATOM     16  C   UNL     1      46.355   7.525  12.781  0.00  0.00    +0.000 C 
BRANCH  16  17
ATOM     17  C   UNL     1      45.886   6.395  11.901  0.00  0.00    +0.000 A 
ATOM     18  C   UNL     1      45.048   5.408  12.436  0.00  0.00    +0.000 A 
ATOM     19  C   UNL     1      44.549   4.378  11.635  0.00  0.00    +0.000 A 
ATOM     20  C   UNL     1      44.892   4.303  10.279  0.00  0.00    +0.000 A 
ATOM     21  C   UNL     1      45.740   5.282   9.743  0.00  0.00    +0.000 A 
ATOM     22  C   UNL     1      46.248   6.308  10.550  0.00  0.00    +0.000 A 
BRANCH  20  23
ATOM     23  C   UNL     1      44.382   3.177   9.414  0.00  0.00    +0.000 C 
BRANCH  23  24
ATOM     24  O   UNL     1      44.666   3.433   8.037  0.00  0.00    +0.000 OA
BRANCH  24  25
ATOM     25  C   UNL     1      45.780   2.812   7.531  0.00  0.00    +0.000 A 
ATOM     26  C   UNL     1      46.626   3.329   6.554  0.00  0.00    +0.000 A 
ATOM     27  C   UNL     1      47.724   2.576   6.165  0.00  0.00    +0.000 A 
ATOM     28  N   UNL     1      48.023   1.364   6.674  0.00  0.00    +0.000 NA
ATOM     29  C   UNL     1      47.185   0.883   7.616  0.00  0.00    +0.000 A 
ATOM     30  C   UNL     1      46.064   1.559   8.069  0.00  0.00    +0.000 A 
ENDBRANCH  24  25
ENDBRANCH  23  24
ENDBRANCH  20  23
ENDBRANCH  16  17
ENDBRANCH   3  16
TORSDOF 6
ENDMDL
MODEL 2
REMARK VINA RESULT:    -7.826      2.355      4.047
REMARK INTER + INTRA:         -11.620
REMARK INTER:                 -10.527
REMARK INTRA:                  -1.094
REMARK UNBOUND:                -1.049
REMARK  Name = 
REMARK  6 active torsions:
REMARK  status: ('A' for Active; 'I' for Inactive)
REMARK    1  A    between atoms: C_2  and  C_19
REMARK    2  A    between atoms: N_3  and  C_4
REMARK    3  A    between atoms: C_4  and  C_5
REMARK    4  A    between atoms: C_8  and  C_9
REMARK    5  A    between atoms: C_9  and  O_10
REMARK    6  A    between atoms: O_10  and  C_11
REMARK                            x       y       z     vdW  Elec       q    Type
REMARK                         _______ _______ _______ _____ _____    ______ ____
ROOT
ATOM      1  O   UNL     1      49.038   5.864  15.550  0.00  0.00    +0.000 OA
ATOM      2  C   UNL     1      48.432   6.713  14.911  0.00  0.00    +0.000 C 
ATOM      3  N   UNL     1      47.255   6.462  14.252  0.00  0.00    +0.000 N 
ATOM      4  H   UNL     1      46.884   7.153  13.616  0.00  0.00    +0.000 HD
ENDROOT
BRANCH   2   5
ATOM      5  C   UNL     1      48.889   8.108  14.849  0.00  0.00    +0.000 A 
ATOM      6  C   UNL     1      48.908   8.907  15.984  0.00  0.00    +0.000 A 
ATOM      7  S   UNL     1      49.457  10.493  15.685  0.00  0.00    +0.000 S 
ATOM      8  C   UNL     1      49.722  10.152  14.037  0.00  0.00    +0.000 A 
ATOM      9  N   UNL     1      50.217  11.094  13.190  0.00  0.00    +0.000 NA
ATOM     10  C   UNL     1      50.394  10.685  11.978  0.00  0.00    +0.000 A 
ATOM     11  N   UNL     1      50.115   9.415  11.536  0.00  0.00    +0.000 N 
ATOM     12  C   UNL     1      49.548   8.464  12.331  0.00  0.00    +0.000 A 
ATOM     13  O   UNL     1      49.173   7.395  11.851  0.00  0.00    +0.000 OA
ATOM     14  C   UNL     1      49.371   8.854  13.715  0.00  0.00    +0.000 A 
ATOM     15  H   UNL     1      50.235   9.168  10.559  0.00  0.00    +0.000 HD
ENDBRANCH   2   5
BRANCH   3  16
ATOM     16  C   UNL     1      46.660   5.154  14.157  0.00  0.00    +0.000 C 
BRANCH  16  17
ATOM     17  C   UNL     1      46.100   4.866  12.788  0.00  0.00    +0.000 A 
ATOM     18  C   UNL     1      45.529   3.613  12.527  0.00  0.00    +0.000 A 
ATOM     19  C   UNL     1      44.951   3.332  11.286  0.00  0.00    +0.000 A 
ATOM     20  C   UNL     1      44.946   4.296  10.271  0.00  0.00    +0.000 A 
ATOM     21  C   UNL     1      45.527   5.546  10.524  0.00  0.00    +0.000 A 
ATOM     22  C   UNL     1      46.115   5.823  11.764  0.00  0.00    +0.000 A 
BRANCH  20  23
ATOM     23  C   UNL     1      44.351   3.989   8.918  0.00  0.00    +0.000 C 
BRANCH  23  24
ATOM     24  O   UNL     1      45.296   4.258   7.881  0.00  0.00    +0.000 OA
BRANCH  24  25
ATOM     25  C   UNL     1      46.069   3.195   7.487  0.00  0.00    +0.000 A 
ATOM     26  C   UNL     1      46.132   1.956   8.119  0.00  0.00    +0.000 A 
ATOM     27  C   UNL     1      46.955   0.980   7.579  0.00  0.00    +0.000 A 
ATOM     28  N   UNL     1      47.709   1.158   6.474  0.00  0.00    +0.000 NA
ATOM     29  C   UNL     1      47.635   2.369   5.884  0.00  0.00    +0.000 A 
ATOM     30  C   UNL     1      46.843   3.407   6.348  0.00  0.00    +0.000 A 
ENDBRANCH  24  25
ENDBRANCH  23  24
ENDBRANCH  20  23
ENDBRANCH  16  17
ENDBRANCH   3  16
TORSDOF 6
ENDMDL
MODEL 3
REMARK VINA RESULT:    -7.812      1.534      2.177
REMARK INTER + INTRA:         -11.601
REMARK INTER:                 -10.673
REMARK INTRA:                  -0.927
REMARK UNBOUND:                -1.049
REMARK  Name = 
REMARK  6 active torsions:
REMARK  status: ('A' for Active; 'I' for Inactive)
REMARK    1  A    between atoms: C_2  and  C_19
REMARK    2  A    between atoms: N_3  and  C_4
REMARK    3  A    between atoms: C_4  and  C_5
REMARK    4  A    between atoms: C_8  and  C_9
REMARK    5  A    between atoms: C_9  and  O_10
REMARK    6  A    between atoms: O_10  and  C_11
REMARK                            x       y       z     vdW  Elec       q    Type
REMARK                         _______ _______ _______ _____ _____    ______ ____
ROOT
ATOM      1  O   UNL     1      50.143   6.745  15.146  0.00  0.00    +0.000 OA
ATOM      2  C   UNL     1      49.021   6.902  15.606  0.00  0.00    +0.000 C 
ATOM      3  N   UNL     1      47.903   7.060  14.827  0.00  0.00    +0.000 N 
ATOM      4  H   UNL     1      47.033   7.341  15.256  0.00  0.00    +0.000 HD
ENDROOT
BRANCH   2   5
ATOM      5  C   UNL     1      48.766   6.871  17.053  0.00  0.00    +0.000 A 
ATOM      6  C   UNL     1      48.421   8.024  17.745  0.00  0.00    +0.000 A 
ATOM      7  S   UNL     1      48.186   7.766  19.413  0.00  0.00    +0.000 S 
ATOM      8  C   UNL     1      48.501   6.099  19.258  0.00  0.00    +0.000 A 
ATOM      9  N   UNL     1      48.446   5.266  20.332  0.00  0.00    +0.000 NA
ATOM     10  C   UNL     1      48.678   4.025  20.060  0.00  0.00    +0.000 A 
ATOM     11  N   UNL     1      48.963   3.543  18.806  0.00  0.00    +0.000 N 
ATOM     12  C   UNL     1      49.103   4.351  17.718  0.00  0.00    +0.000 A 
ATOM     13  O   UNL     1      49.512   3.894  16.651  0.00  0.00    +0.000 OA
ATOM     14  C   UNL     1      48.807   5.750  17.957  0.00  0.00    +0.000 A 
ATOM     15  H   UNL     1      49.179   2.561  18.665  0.00  0.00    +0.000 HD
ENDBRANCH   2   5
BRANCH   3  16
ATOM     16  C   UNL     1      47.942   7.158  13.391  0.00  0.00    +0.000 C 
BRANCH  16  17
ATOM     17  C   UNL     1      46.940   6.256  12.717  0.00  0.00    +0.000 A 
ATOM     18  C   UNL     1      46.439   6.604  11.456  0.00  0.00    +0.000 A 
ATOM     19  C   UNL     1      45.552   5.763  10.779  0.00  0.00    +0.000 A 
ATOM     20  C   UNL     1      45.133   4.558  11.357  0.00  0.00    +0.000 A 
ATOM     21  C   UNL     1      45.623   4.213  12.624  0.00  0.00    +0.000 A 
ATOM     22  C   UNL     1      46.504   5.061  13.307  0.00  0.00    +0.000 A 
BRANCH  20  23
ATOM     23  C   UNL     1      44.152   3.660  10.646  0.00  0.00    +0.000 C 
BRANCH  23  24
ATOM     24  O   UNL     1      44.244   3.836   9.231  0.00  0.00    +0.000 OA
BRANCH  24  25
ATOM     25  C   UNL     1      45.204   3.088   8.596  0.00  0.00    +0.000 A 
ATOM     26  C   UNL     1      45.412   1.722   8.763  0.00  0.00    +0.000 A 
ATOM     27  C   UNL     1      46.418   1.112   8.029  0.00  0.00    +0.000 A 
ATOM     28  N   UNL     1      47.218   1.766   7.161  0.00  0.00    +0.000 NA
ATOM     29  C   UNL     1      47.000   3.090   7.023  0.00  0.00    +0.000 A 
ATOM     30  C   UNL     1      46.021   3.788   7.711  0.00  0.00    +0.000 A 
ENDBRANCH  24  25
ENDBRANCH  23  24
ENDBRANCH  20  23
ENDBRANCH  16  17
ENDBRANCH   3  16
TORSDOF 6
ENDMDL
MODEL 4
REMARK VINA RESULT:    -7.371      2.655      3.505
REMARK INTER + INTRA:         -11.006
REMARK INTER:                  -9.905
REMARK INTRA:                  -1.101
REMARK UNBOUND:                -1.049
REMARK  Name = 
REMARK  6 active torsions:
REMARK  status: ('A' for Active; 'I' for Inactive)
REMARK    1  A    between atoms: C_2  and  C_19
REMARK    2  A    between atoms: N_3  and  C_4
REMARK    3  A    between atoms: C_4  and  C_5
REMARK    4  A    between atoms: C_8  and  C_9
REMARK    5  A    between atoms: C_9  and  O_10
REMARK    6  A    between atoms: O_10  and  C_11
REMARK                            x       y       z     vdW  Elec       q    Type
REMARK                         _______ _______ _______ _____ _____    ______ ____
ROOT
ATOM      1  O   UNL     1      49.875   5.646  16.239  0.00  0.00    +0.000 OA
ATOM      2  C   UNL     1      48.862   6.303  16.434  0.00  0.00    +0.000 C 
ATOM      3  N   UNL     1      48.063   6.771  15.421  0.00  0.00    +0.000 N 
ATOM      4  H   UNL     1      47.332   7.437  15.632  0.00  0.00    +0.000 HD
ENDROOT
BRANCH   2   5
ATOM      5  C   UNL     1      48.376   6.596  17.790  0.00  0.00    +0.000 A 
ATOM      6  C   UNL     1      48.200   5.582  18.722  0.00  0.00    +0.000 A 
ATOM      7  S   UNL     1      47.615   6.139  20.223  0.00  0.00    +0.000 S 
ATOM      8  C   UNL     1      47.615   7.757  19.687  0.00  0.00    +0.000 A 
ATOM      9  N   UNL     1      47.232   8.773  20.506  0.00  0.00    +0.000 NA
ATOM     10  C   UNL     1      47.311   9.948  19.975  0.00  0.00    +0.000 A 
ATOM     11  N   UNL     1      47.735  10.195  18.693  0.00  0.00    +0.000 N 
ATOM     12  C   UNL     1      48.054   9.203  17.815  0.00  0.00    +0.000 A 
ATOM     13  O   UNL     1      48.277   9.465  16.634  0.00  0.00    +0.000 OA
ATOM     14  C   UNL     1      48.029   7.866  18.373  0.00  0.00    +0.000 A 
ATOM     15  H   UNL     1      47.734  11.139  18.320  0.00  0.00    +0.000 HD
ENDBRANCH   2   5
BRANCH   3  16
ATOM     16  C   UNL     1      48.381   6.627  14.025  0.00  0.00    +0.000 C 
BRANCH  16  17
ATOM     17  C   UNL     1      47.266   5.991  13.235  0.00  0.00    +0.000 A 
ATOM     18  C   UNL     1      46.699   4.793  13.686  0.00  0.00    +0.000 A 
ATOM     19  C   UNL     1      45.627   4.206  13.008  0.00  0.00    +0.000 A 
ATOM     20  C   UNL     1      45.107   4.800  11.851  0.00  0.00    +0.000 A 
ATOM     21  C   UNL     1      45.680   5.993  11.390  0.00  0.00    +0.000 A 
ATOM     22  C   UNL     1      46.761   6.575  12.064  0.00  0.00    +0.000 A 
BRANCH  20  23
ATOM     23  C   UNL     1      43.969   4.157  11.097  0.00  0.00    +0.000 C 
BRANCH  23  24
ATOM     24  O   UNL     1      44.088   4.412   9.696  0.00  0.00    +0.000 OA
BRANCH  24  25
ATOM     25  C   UNL     1      44.922   3.571   9.003  0.00  0.00    +0.000 A 
ATOM     26  C   UNL     1      45.011   2.192   9.175  0.00  0.00    +0.000 A 
ATOM     27  C   UNL     1      45.897   1.484   8.377  0.00  0.00    +0.000 A 
ATOM     28  N   UNL     1      46.687   2.051   7.443  0.00  0.00    +0.000 NA
ATOM     29  C   UNL     1      46.586   3.388   7.301  0.00  0.00    +0.000 A 
ATOM     30  C   UNL     1      45.731   4.182   8.049  0.00  0.00    +0.000 A 
ENDBRANCH  24  25
ENDBRANCH  23  24
ENDBRANCH  20  23
ENDBRANCH  16  17
ENDBRANCH   3  16
TORSDOF 6
ENDMDL
MODEL 5
REMARK VINA RESULT:    -7.183      4.403      8.747
REMARK INTER + INTRA:         -10.751
REMARK INTER:                  -9.883
REMARK INTRA:                  -0.868
REMARK UNBOUND:                -1.049
REMARK  Name = 
REMARK  6 active torsions:
REMARK  status: ('A' for Active; 'I' for Inactive)
REMARK    1  A    between atoms: C_2  and  C_19
REMARK    2  A    between atoms: N_3  and  C_4
REMARK    3  A    between atoms: C_4  and  C_5
REMARK    4  A    between atoms: C_8  and  C_9
REMARK    5  A    between atoms: C_9  and  O_10
REMARK    6  A    between atoms: O_10  and  C_11
REMARK                            x       y       z     vdW  Elec       q    Type
REMARK                         _______ _______ _______ _____ _____    ______ ____
ROOT
ATOM      1  O   UNL     1      47.237   3.065  14.026  0.00  0.00    +0.000 OA
ATOM      2  C   UNL     1      46.815   4.124  14.468  0.00  0.00    +0.000 C 
ATOM      3  N   UNL     1      46.765   4.412  15.809  0.00  0.00    +0.000 N 
ATOM      4  H   UNL     1      46.265   5.232  16.124  0.00  0.00    +0.000 HD
ENDROOT
BRANCH   2   5
ATOM      5  C   UNL     1      46.379   5.214  13.586  0.00  0.00    +0.000 A 
ATOM      6  C   UNL     1      47.201   6.305  13.335  0.00  0.00    +0.000 A 
ATOM      7  S   UNL     1      46.494   7.459  12.298  0.00  0.00    +0.000 S 
ATOM      8  C   UNL     1      45.083   6.520  12.121  0.00  0.00    +0.000 A 
ATOM      9  N   UNL     1      44.055   6.930  11.331  0.00  0.00    +0.000 NA
ATOM     10  C   UNL     1      43.064   6.104  11.269  0.00  0.00    +0.000 A 
ATOM     11  N   UNL     1      43.010   4.903  11.932  0.00  0.00    +0.000 N 
ATOM     12  C   UNL     1      43.982   4.489  12.792  0.00  0.00    +0.000 A 
ATOM     13  O   UNL     1      43.816   3.483  13.481  0.00  0.00    +0.000 OA
ATOM     14  C   UNL     1      45.140   5.356  12.865  0.00  0.00    +0.000 A 
ATOM     15  H   UNL     1      42.183   4.317  11.876  0.00  0.00    +0.000 HD
ENDBRANCH   2   5
BRANCH   3  16
ATOM     16  C   UNL     1      47.109   3.467  16.839  0.00  0.00    +0.000 C 
BRANCH  16  17
ATOM     17  C   UNL     1      48.571   3.506  17.203  0.00  0.00    +0.000 A 
ATOM     18  C   UNL     1      49.353   2.356  17.033  0.00  0.00    +0.000 A 
ATOM     19  C   UNL     1      50.723   2.374  17.307  0.00  0.00    +0.000 A 
ATOM     20  C   UNL     1      51.340   3.541  17.775  0.00  0.00    +0.000 A 
ATOM     21  C   UNL     1      50.557   4.689  17.959  0.00  0.00    +0.000 A 
ATOM     22  C   UNL     1      49.182   4.668  17.694  0.00  0.00    +0.000 A 
BRANCH  20  23
ATOM     23  C   UNL     1      52.812   3.559  18.103  0.00  0.00    +0.000 C 
BRANCH  23  24
ATOM     24  O   UNL     1      53.247   2.268  18.534  0.00  0.00    +0.000 OA
BRANCH  24  25
ATOM     25  C   UNL     1      53.989   1.553  17.628  0.00  0.00    +0.000 A 
ATOM     26  C   UNL     1      53.810   0.210  17.310  0.00  0.00    +0.000 A 
ATOM     27  C   UNL     1      54.638  -0.359  16.354  0.00  0.00    +0.000 A 
ATOM     28  N   UNL     1      55.617   0.311  15.713  0.00  0.00    +0.000 NA
ATOM     29  C   UNL     1      55.774   1.610  16.043  0.00  0.00    +0.000 A 
ATOM     30  C   UNL     1      54.997   2.267  16.984  0.00  0.00    +0.000 A 
ENDBRANCH  24  25
ENDBRANCH  23  24
ENDBRANCH  20  23
ENDBRANCH  16  17
ENDBRANCH   3  16
TORSDOF 6
ENDMDL
MODEL 6
REMARK VINA RESULT:    -7.012      2.026      3.029
REMARK INTER + INTRA:         -10.521
REMARK INTER:                  -9.529
REMARK INTRA:                  -0.992
REMARK UNBOUND:                -1.049
REMARK  Name = 
REMARK  6 active torsions:
REMARK  status: ('A' for Active; 'I' for Inactive)
REMARK    1  A    between atoms: C_2  and  C_19
REMARK    2  A    between atoms: N_3  and  C_4
REMARK    3  A    between atoms: C_4  and  C_5
REMARK    4  A    between atoms: C_8  and  C_9
REMARK    5  A    between atoms: C_9  and  O_10
REMARK    6  A    between atoms: O_10  and  C_11
REMARK                            x       y       z     vdW  Elec       q    Type
REMARK                         _______ _______ _______ _____ _____    ______ ____
ROOT
ATOM      1  O   UNL     1      46.390   4.253  16.686  0.00  0.00    +0.000 OA
ATOM      2  C   UNL     1      47.463   4.379  16.112  0.00  0.00    +0.000 C 
ATOM      3  N   UNL     1      47.643   5.202  15.028  0.00  0.00    +0.000 N 
ATOM      4  H   UNL     1      48.503   5.148  14.500  0.00  0.00    +0.000 HD
ENDROOT
BRANCH   2   5
ATOM      5  C   UNL     1      48.678   3.698  16.579  0.00  0.00    +0.000 A 
ATOM      6  C   UNL     1      48.823   2.324  16.450  0.00  0.00    +0.000 A 
ATOM      7  S   UNL     1      50.299   1.739  17.072  0.00  0.00    +0.000 S 
ATOM      8  C   UNL     1      50.807   3.309  17.498  0.00  0.00    +0.000 A 
ATOM      9  N   UNL     1      52.020   3.528  18.073  0.00  0.00    +0.000 NA
ATOM     10  C   UNL     1      52.281   4.769  18.315  0.00  0.00    +0.000 A 
ATOM     11  N   UNL     1      51.434   5.813  18.034  0.00  0.00    +0.000 N 
ATOM     12  C   UNL     1      50.181   5.632  17.530  0.00  0.00    +0.000 A 
ATOM     13  O   UNL     1      49.402   6.580  17.442  0.00  0.00    +0.000 OA
ATOM     14  C   UNL     1      49.852   4.261  17.196  0.00  0.00    +0.000 A 
ATOM     15  H   UNL     1      51.681   6.764  18.288  0.00  0.00    +0.000 HD
ENDBRANCH   2   5
BRANCH   3  16
ATOM     16  C   UNL     1      46.574   5.926  14.392  0.00  0.00    +0.000 C 
BRANCH  16  17
ATOM     17  C   UNL     1      45.999   5.194  13.206  0.00  0.00    +0.000 A 
ATOM     18  C   UNL     1      45.937   5.838  11.964  0.00  0.00    +0.000 A 
ATOM     19  C   UNL     1      45.462   5.170  10.832  0.00  0.00    +0.000 A 
ATOM     20  C   UNL     1      45.023   3.844  10.922  0.00  0.00    +0.000 A 
ATOM     21  C   UNL     1      45.071   3.201  12.166  0.00  0.00    +0.000 A 
ATOM     22  C   UNL     1      45.538   3.874  13.302  0.00  0.00    +0.000 A 
BRANCH  20  23
ATOM     23  C   UNL     1      44.480   3.126   9.711  0.00  0.00    +0.000 C 
BRANCH  23  24
ATOM     24  O   UNL     1      45.069   3.642   8.516  0.00  0.00    +0.000 OA
BRANCH  24  25
ATOM     25  C   UNL     1      45.948   2.807   7.873  0.00  0.00    +0.000 A 
ATOM     26  C   UNL     1      46.208   1.483   8.215  0.00  0.00    +0.000 A 
ATOM     27  C   UNL     1      47.117   0.769   7.447  0.00  0.00    +0.000 A 
ATOM     28  N   UNL     1      47.772   1.283   6.386  0.00  0.00    +0.000 NA
ATOM     29  C   UNL     1      47.506   2.569   6.080  0.00  0.00    +0.000 A 
ATOM     30  C   UNL     1      46.616   3.363   6.785  0.00  0.00    +0.000 A 
ENDBRANCH  24  25
ENDBRANCH  23  24
ENDBRANCH  20  23
ENDBRANCH  16  17
ENDBRANCH   3  16
TORSDOF 6
ENDMDL
MODEL 7
REMARK VINA RESULT:    -6.964      3.820      7.654
REMARK INTER + INTRA:         -10.456
REMARK INTER:                  -9.026
REMARK INTRA:                  -1.430
REMARK UNBOUND:                -1.049
REMARK  Name = 
REMARK  6 active torsions:
REMARK  status: ('A' for Active; 'I' for Inactive)
REMARK    1  A    between atoms: C_2  and  C_19
REMARK    2  A    between atoms: N_3  and  C_4
REMARK    3  A    between atoms: C_4  and  C_5
REMARK    4  A    between atoms: C_8  and  C_9
REMARK    5  A    between atoms: C_9  and  O_10
REMARK    6  A    between atoms: O_10  and  C_11
REMARK                            x       y       z     vdW  Elec       q    Type
REMARK                         _______ _______ _______ _____ _____    ______ ____
ROOT
ATOM      1  O   UNL     1      48.213   7.054  12.162  0.00  0.00    +0.000 OA
ATOM      2  C   UNL     1      47.161   7.300  12.737  0.00  0.00    +0.000 C 
ATOM      3  N   UNL     1      47.056   8.214  13.754  0.00  0.00    +0.000 N 
ATOM      4  H   UNL     1      46.204   8.261  14.295  0.00  0.00    +0.000 HD
ENDROOT
BRANCH   2   5
ATOM      5  C   UNL     1      45.894   6.672  12.337  0.00  0.00    +0.000 A 
ATOM      6  C   UNL     1      44.881   7.417  11.749  0.00  0.00    +0.000 A 
ATOM      7  S   UNL     1      43.494   6.497  11.380  0.00  0.00    +0.000 S 
ATOM      8  C   UNL     1      44.218   5.067  11.958  0.00  0.00    +0.000 A 
ATOM      9  N   UNL     1      43.564   3.876  11.917  0.00  0.00    +0.000 NA
ATOM     10  C   UNL     1      44.246   2.874  12.362  0.00  0.00    +0.000 A 
ATOM     11  N   UNL     1      45.527   2.959  12.849  0.00  0.00    +0.000 N 
ATOM     12  C   UNL     1      46.191   4.142  12.979  0.00  0.00    +0.000 A 
ATOM     13  O   UNL     1      47.273   4.188  13.564  0.00  0.00    +0.000 OA
ATOM     14  C   UNL     1      45.489   5.295  12.451  0.00  0.00    +0.000 A 
ATOM     15  H   UNL     1      45.995   2.140  13.225  0.00  0.00    +0.000 HD
ENDBRANCH   2   5
BRANCH   3  16
ATOM     16  C   UNL     1      48.184   8.907  14.321  0.00  0.00    +0.000 C 
BRANCH  16  17
ATOM     17  C   UNL     1      48.846   8.134  15.432  0.00  0.00    +0.000 A 
ATOM     18  C   UNL     1      48.293   8.169  16.719  0.00  0.00    +0.000 A 
ATOM     19  C   UNL     1      48.849   7.419  17.760  0.00  0.00    +0.000 A 
ATOM     20  C   UNL     1      49.983   6.628  17.538  0.00  0.00    +0.000 A 
ATOM     21  C   UNL     1      50.546   6.601  16.255  0.00  0.00    +0.000 A 
ATOM     22  C   UNL     1      49.995   7.361  15.216  0.00  0.00    +0.000 A 
BRANCH  20  23
ATOM     23  C   UNL     1      50.607   5.840  18.663  0.00  0.00    +0.000 C 
BRANCH  23  24
ATOM     24  O   UNL     1      49.753   4.764  19.056  0.00  0.00    +0.000 OA
BRANCH  24  25
ATOM     25  C   UNL     1      49.561   3.780  18.119  0.00  0.00    +0.000 A 
ATOM     26  C   UNL     1      48.363   3.500  17.468  0.00  0.00    +0.000 A 
ATOM     27  C   UNL     1      48.344   2.479  16.530  0.00  0.00    +0.000 A 
ATOM     28  N   UNL     1      49.420   1.731  16.210  0.00  0.00    +0.000 NA
ATOM     29  C   UNL     1      50.567   2.019  16.859  0.00  0.00    +0.000 A 
ATOM     30  C   UNL     1      50.686   3.018  17.811  0.00  0.00    +0.000 A 
ENDBRANCH  24  25
ENDBRANCH  23  24
ENDBRANCH  20  23
ENDBRANCH  16  17
ENDBRANCH   3  16
TORSDOF 6
ENDMDL
MODEL 8
REMARK VINA RESULT:    -6.774      2.187      2.781
REMARK INTER + INTRA:         -10.199
REMARK INTER:                  -9.272
REMARK INTRA:                  -0.927
REMARK UNBOUND:                -1.049
REMARK  Name = 
REMARK  6 active torsions:
REMARK  status: ('A' for Active; 'I' for Inactive)
REMARK    1  A    between atoms: C_2  and  C_19
REMARK    2  A    between atoms: N_3  and  C_4
REMARK    3  A    between atoms: C_4  and  C_5
REMARK    4  A    between atoms: C_8  and  C_9
REMARK    5  A    between atoms: C_9  and  O_10
REMARK    6  A    between atoms: O_10  and  C_11
REMARK                            x       y       z     vdW  Elec       q    Type
REMARK                         _______ _______ _______ _____ _____    ______ ____
ROOT
ATOM      1  O   UNL     1      47.963   6.149  17.252  0.00  0.00    +0.000 OA
ATOM      2  C   UNL     1      48.933   5.933  16.538  0.00  0.00    +0.000 C 
ATOM      3  N   UNL     1      49.022   6.370  15.240  0.00  0.00    +0.000 N 
ATOM      4  H   UNL     1      49.771   6.030  14.651  0.00  0.00    +0.000 HD
ENDROOT
BRANCH   2   5
ATOM      5  C   UNL     1      50.123   5.233  17.038  0.00  0.00    +0.000 A 
ATOM      6  C   UNL     1      51.213   5.937  17.533  0.00  0.00    +0.000 A 
ATOM      7  S   UNL     1      52.491   4.931  18.044  0.00  0.00    +0.000 S 
ATOM      8  C   UNL     1      51.614   3.523  17.656  0.00  0.00    +0.000 A 
ATOM      9  N   UNL     1      52.134   2.284  17.869  0.00  0.00    +0.000 NA
ATOM     10  C   UNL     1      51.346   1.311  17.555  0.00  0.00    +0.000 A 
ATOM     11  N   UNL     1      50.082   1.467  17.042  0.00  0.00    +0.000 N 
ATOM     12  C   UNL     1      49.551   2.686  16.742  0.00  0.00    +0.000 A 
ATOM     13  O   UNL     1      48.481   2.769  16.141  0.00  0.00    +0.000 OA
ATOM     14  C   UNL     1      50.375   3.817  17.118  0.00  0.00    +0.000 A 
ATOM     15  H   UNL     1      49.527   0.660  16.775  0.00  0.00    +0.000 HD
ENDBRANCH   2   5
BRANCH   3  16
ATOM     16  C   UNL     1      47.951   7.039  14.549  0.00  0.00    +0.000 C 
BRANCH  16  17
ATOM     17  C   UNL     1      47.088   6.092  13.754  0.00  0.00    +0.000 A 
ATOM     18  C   UNL     1      47.238   4.711  13.931  0.00  0.00    +0.000 A 
ATOM     19  C   UNL     1      46.417   3.807  13.251  0.00  0.00    +0.000 A 
ATOM     20  C   UNL     1      45.435   4.267  12.365  0.00  0.00    +0.000 A 
ATOM     21  C   UNL     1      45.291   5.648  12.177  0.00  0.00    +0.000 A 
ATOM     22  C   UNL     1      46.121   6.553  12.850  0.00  0.00    +0.000 A 
BRANCH  20  23
ATOM     23  C   UNL     1      44.565   3.297  11.605  0.00  0.00    +0.000 C 
BRANCH  23  24
ATOM     24  O   UNL     1      44.297   3.786  10.290  0.00  0.00    +0.000 OA
BRANCH  24  25
ATOM     25  C   UNL     1      45.110   3.302   9.295  0.00  0.00    +0.000 A 
ATOM     26  C   UNL     1      45.390   1.960   9.055  0.00  0.00    +0.000 A 
ATOM     27  C   UNL     1      46.221   1.638   7.993  0.00  0.00    +0.000 A 
ATOM     28  N   UNL     1      46.784   2.551   7.175  0.00  0.00    +0.000 NA
ATOM     29  C   UNL     1      46.501   3.845   7.432  0.00  0.00    +0.000 A 
ATOM     30  C   UNL     1      45.683   4.265   8.468  0.00  0.00    +0.000 A 
ENDBRANCH  24  25
ENDBRANCH  23  24
ENDBRANCH  20  23
ENDBRANCH  16  17
ENDBRANCH   3  16
TORSDOF 6
ENDMDL
MODEL 9
REMARK VINA RESULT:    -6.201      3.661      5.122
REMARK INTER + INTRA:          -9.425
REMARK INTER:                  -8.367
REMARK INTRA:                  -1.058
REMARK UNBOUND:                -1.049
REMARK  Name = 
REMARK  6 active torsions:
REMARK  status: ('A' for Active; 'I' for Inactive)
REMARK    1  A    between atoms: C_2  and  C_19
REMARK    2  A    between atoms: N_3  and  C_4
REMARK    3  A    between atoms: C_4  and  C_5
REMARK    4  A    between atoms: C_8  and  C_9
REMARK    5  A    between atoms: C_9  and  O_10
REMARK    6  A    between atoms: O_10  and  C_11
REMARK                            x       y       z     vdW  Elec       q    Type
REMARK                         _______ _______ _______ _____ _____    ______ ____
ROOT
ATOM      1  O   UNL     1      50.270   7.398  14.107  0.00  0.00    +0.000 OA
ATOM      2  C   UNL     1      49.723   8.177  13.339  0.00  0.00    +0.000 C 
ATOM      3  N   UNL     1      48.364   8.223  13.156  0.00  0.00    +0.000 N 
ATOM      4  H   UNL     1      47.983   8.773  12.398  0.00  0.00    +0.000 HD
ENDROOT
BRANCH   2   5
ATOM      5  C   UNL     1      50.483   9.184  12.586  0.00  0.00    +0.000 A 
ATOM      6  C   UNL     1      50.486  10.517  12.974  0.00  0.00    +0.000 A 
ATOM      7  S   UNL     1      51.417  11.516  11.953  0.00  0.00    +0.000 S 
ATOM      8  C   UNL     1      51.875  10.193  10.982  0.00  0.00    +0.000 A 
ATOM      9  N   UNL     1      52.703  10.352   9.915  0.00  0.00    +0.000 NA
ATOM     10  C   UNL     1      52.988   9.259   9.289  0.00  0.00    +0.000 A 
ATOM     11  N   UNL     1      52.513   8.018   9.635  0.00  0.00    +0.000 N 
ATOM     12  C   UNL     1      51.622   7.823  10.648  0.00  0.00    +0.000 A 
ATOM     13  O   UNL     1      51.105   6.720  10.820  0.00  0.00    +0.000 OA
ATOM     14  C   UNL     1      51.304   9.012  11.415  0.00  0.00    +0.000 A 
ATOM     15  H   UNL     1      52.739   7.202   9.076  0.00  0.00    +0.000 HD
ENDBRANCH   2   5
BRANCH   3  16
ATOM     16  C   UNL     1      47.447   7.298  13.768  0.00  0.00    +0.000 C 
BRANCH  16  17
ATOM     17  C   UNL     1      46.732   6.433  12.763  0.00  0.00    +0.000 A 
ATOM     18  C   UNL     1      45.999   5.324  13.206  0.00  0.00    +0.000 A 
ATOM     19  C   UNL     1      45.279   4.533  12.306  0.00  0.00    +0.000 A 
ATOM     20  C   UNL     1      45.288   4.827  10.937  0.00  0.00    +0.000 A 
ATOM     21  C   UNL     1      46.030   5.928  10.489  0.00  0.00    +0.000 A 
ATOM     22  C   UNL     1      46.760   6.714  11.389  0.00  0.00    +0.000 A 
BRANCH  20  23
ATOM     23  C   UNL     1      44.538   3.961   9.956  0.00  0.00    +0.000 C 
BRANCH  23  24
ATOM     24  O   UNL     1      44.959   4.235   8.618  0.00  0.00    +0.000 OA
BRANCH  24  25
ATOM     25  C   UNL     1      45.745   3.276   8.031  0.00  0.00    +0.000 A 
ATOM     26  C   UNL     1      46.636   3.486   6.982  0.00  0.00    +0.000 A 
ATOM     27  C   UNL     1      47.371   2.407   6.514  0.00  0.00    +0.000 A 
ATOM     28  N   UNL     1      47.272   1.157   7.011  0.00  0.00    +0.000 NA
ATOM     29  C   UNL     1      46.398   0.979   8.022  0.00  0.00    +0.000 A 
ATOM     30  C   UNL     1      45.620   1.993   8.558  0.00  0.00    +0.000 A 
ENDBRANCH  24  25
ENDBRANCH  23  24
ENDBRANCH  20  23
ENDBRANCH  16  17
ENDBRANCH   3  16
TORSDOF 6
ENDMDL
