MODEL 1
REMARK VINA RESULT:    -8.366      0.000      0.000
REMARK INTER + INTRA:         -13.827
REMARK INTER:                 -12.279
REMARK INTRA:                  -1.548
REMARK UNBOUND:                -1.548
REMARK  Name = 
REMARK  10 active torsions:
REMARK  status: ('A' for Active; 'I' for Inactive)
REMARK    1  A    between atoms: C_1  and  O_2
REMARK    2  A    between atoms: O_2  and  C_3
REMARK    3  A    between atoms: C_10  and  C_11
REMARK    4  A    between atoms: N_13  and  C_14
REMARK    5  A    between atoms: C_14  and  C_15
REMARK    6  A    between atoms: C_18  and  C_19
REMARK    7  A    between atoms: C_19  and  N_20
REMARK    8  A    between atoms: N_20  and  C_21
REMARK    9  A    between atoms: N_20  and  C_22
REMARK   10  A    between atoms: C_22  and  C_23
REMARK                            x       y       z     vdW  Elec       q    Type
REMARK                         _______ _______ _______ _____ _____    ______ ____
ROOT
ATOM      1  C   UNL     1      47.092   8.261  13.325  0.00  0.00    +0.000 C 
ENDROOT
BRANCH   1   2
ATOM      2  C   UNL     1      46.286   7.413  12.377  0.00  0.00    +0.000 A 
ATOM      3  C   UNL     1      46.908   6.674  11.365  0.00  0.00    +0.000 A 
ATOM      4  C   UNL     1      46.164   5.797  10.569  0.00  0.00    +0.000 A 
ATOM      5  C   UNL     1      44.786   5.640  10.783  0.00  0.00    +0.000 A 
ATOM      6  C   UNL     1      44.154   6.447  11.737  0.00  0.00    +0.000 A 
ATOM      7  C   UNL     1      44.895   7.333  12.519  0.00  0.00    +0.000 A 
BRANCH   5   8
ATOM      8  C   UNL     1      43.989   4.602  10.022  0.00  0.00    +0.000 C 
BRANCH   8   9
ATOM      9  N   UNL     1      44.449   3.215  10.245  0.00  0.00    +0.000 NA
ATOM     10  C   UNL     1      43.683   2.557  11.313  0.00  0.00    +0.000 C 
BRANCH   9  11
ATOM     11  C   UNL     1      44.320   2.416   9.009  0.00  0.00    +0.000 C 
BRANCH  11  12
ATOM     12  C   UNL     1      45.583   2.345   8.191  0.00  0.00    +0.000 A 
ATOM     13  C   UNL     1      46.132   3.481   7.590  0.00  0.00    +0.000 A 
ATOM     14  C   UNL     1      47.318   3.376   6.872  0.00  0.00    +0.000 A 
ATOM     15  C   UNL     1      47.918   2.132   6.776  0.00  0.00    +0.000 A 
ATOM     16  N   UNL     1      47.413   1.007   7.327  0.00  0.00    +0.000 NA
ATOM     17  C   UNL     1      46.260   1.141   8.021  0.00  0.00    +0.000 A 
ENDBRANCH  11  12
ENDBRANCH   9  11
ENDBRANCH   8   9
ENDBRANCH   5   8
ENDBRANCH   1   2
BRANCH   1  20
ATOM     18  C   UNL     1      48.688   6.939  14.608  0.00  0.00    +0.000 C 
ATOM     19  O   UNL     1      49.487   6.976  13.672  0.00  0.00    +0.000 OA
ATOM     20  N   UNL     1      47.467   7.549  14.518  0.00  0.00    +0.000 N 
ATOM     21  H   UNL     1      46.816   7.528  15.292  0.00  0.00    +0.000 HD
BRANCH  18  29
ATOM     22  C   UNL     1      47.292   4.243  16.256  0.00  0.00    +0.000 A 
ATOM     23  N   UNL     1      46.952   3.257  17.111  0.00  0.00    +0.000 NA
ATOM     24  C   UNL     1      47.695   3.085  18.206  0.00  0.00    +0.000 A 
ATOM     25  N   UNL     1      48.761   3.793  18.567  0.00  0.00    +0.000 NA
ATOM     26  C   UNL     1      49.057   4.776  17.699  0.00  0.00    +0.000 A 
ATOM     27  S   UNL     1      50.393   5.778  18.005  0.00  0.00    +0.000 S 
ATOM     28  C   UNL     1      50.110   6.664  16.585  0.00  0.00    +0.000 A 
ATOM     29  C   UNL     1      49.011   6.227  15.853  0.00  0.00    +0.000 A 
ATOM     30  C   UNL     1      48.383   5.090  16.520  0.00  0.00    +0.000 A 
BRANCH  22  32
ATOM     31  C   UNL     1      47.080   3.715  13.995  0.00  0.00    +0.000 C 
ATOM     32  O   UNL     1      46.525   4.402  15.118  0.00  0.00    +0.000 OA
ENDBRANCH  22  32
ENDBRANCH  18  29
ENDBRANCH   1  20
TORSDOF 8
ENDMDL
MODEL 2
REMARK VINA RESULT:    -7.504      1.730      2.153
REMARK INTER + INTRA:         -12.561
REMARK INTER:                 -11.366
REMARK INTRA:                  -1.195
REMARK UNBOUND:                -1.548
REMARK  Name = 
REMARK  10 active torsions:
REMARK  status: ('A' for Active; 'I' for Inactive)
REMARK    1  A    between atoms: C_1  and  O_2
REMARK    2  A    between atoms: O_2  and  C_3
REMARK    3  A    between atoms: C_10  and  C_11
REMARK    4  A    between atoms: N_13  and  C_14
REMARK    5  A    between atoms: C_14  and  C_15
REMARK    6  A    between atoms: C_18  and  C_19
REMARK    7  A    between atoms: C_19  and  N_20
REMARK    8  A    between atoms: N_20  and  C_21
REMARK    9  A    between atoms: N_20  and  C_22
REMARK   10  A    between atoms: C_22  and  C_23
REMARK                            x       y       z     vdW  Elec       q    Type
REMARK                         _______ _______ _______ _____ _____    ______ ____
ROOT
ATOM      1  C   UNL     1      49.322   7.266  13.717  0.00  0.00    +0.000 C 
ENDROOT
BRANCH   1   2
ATOM      2  C   UNL     1      48.126   6.619  13.069  0.00  0.00    +0.000 A 
ATOM      3  C   UNL     1      47.470   5.545  13.677  0.00  0.00    +0.000 A 
ATOM      4  C   UNL     1      46.291   5.032  13.126  0.00  0.00    +0.000 A 
ATOM      5  C   UNL     1      45.747   5.596  11.963  0.00  0.00    +0.000 A 
ATOM      6  C   UNL     1      46.455   6.613  11.310  0.00  0.00    +0.000 A 
ATOM      7  C   UNL     1      47.640   7.112  11.852  0.00  0.00    +0.000 A 
BRANCH   5   8
ATOM      8  C   UNL     1      44.405   5.144  11.426  0.00  0.00    +0.000 C 
BRANCH   8   9
ATOM      9  N   UNL     1      44.427   3.790  10.831  0.00  0.00    +0.000 NA
ATOM     10  C   UNL     1      43.380   2.933  11.402  0.00  0.00    +0.000 C 
BRANCH   9  11
ATOM     11  C   UNL     1      44.236   3.859   9.368  0.00  0.00    +0.000 C 
BRANCH  11  12
ATOM     12  C   UNL     1      45.272   3.102   8.578  0.00  0.00    +0.000 A 
ATOM     13  C   UNL     1      46.086   3.739   7.637  0.00  0.00    +0.000 A 
ATOM     14  C   UNL     1      47.053   3.009   6.955  0.00  0.00    +0.000 A 
ATOM     15  C   UNL     1      47.174   1.658   7.236  0.00  0.00    +0.000 A 
ATOM     16  N   UNL     1      46.398   1.002   8.125  0.00  0.00    +0.000 NA
ATOM     17  C   UNL     1      45.468   1.738   8.774  0.00  0.00    +0.000 A 
ENDBRANCH  11  12
ENDBRANCH   9  11
ENDBRANCH   8   9
ENDBRANCH   5   8
ENDBRANCH   1   2
BRANCH   1  20
ATOM     18  C   UNL     1      48.751   7.914  15.997  0.00  0.00    +0.000 C 
ATOM     19  O   UNL     1      48.157   8.908  15.576  0.00  0.00    +0.000 OA
ATOM     20  N   UNL     1      49.365   7.044  15.139  0.00  0.00    +0.000 N 
ATOM     21  H   UNL     1      49.842   6.221  15.484  0.00  0.00    +0.000 HD
BRANCH  18  29
ATOM     22  C   UNL     1      48.705   5.017  17.876  0.00  0.00    +0.000 A 
ATOM     23  N   UNL     1      48.688   4.076  18.842  0.00  0.00    +0.000 NA
ATOM     24  C   UNL     1      48.790   4.473  20.113  0.00  0.00    +0.000 A 
ATOM     25  N   UNL     1      48.906   5.723  20.551  0.00  0.00    +0.000 NA
ATOM     26  C   UNL     1      48.902   6.631  19.560  0.00  0.00    +0.000 A 
ATOM     27  S   UNL     1      49.045   8.278  19.944  0.00  0.00    +0.000 S 
ATOM     28  C   UNL     1      48.966   8.712  18.304  0.00  0.00    +0.000 A 
ATOM     29  C   UNL     1      48.832   7.633  17.437  0.00  0.00    +0.000 A 
ATOM     30  C   UNL     1      48.799   6.383  18.192  0.00  0.00    +0.000 A 
BRANCH  22  32
ATOM     31  C   UNL     1      47.914   3.353  16.446  0.00  0.00    +0.000 C 
ATOM     32  O   UNL     1      48.615   4.593  16.564  0.00  0.00    +0.000 OA
ENDBRANCH  22  32
ENDBRANCH  18  29
ENDBRANCH   1  20
TORSDOF 8
ENDMDL
MODEL 3
REMARK VINA RESULT:    -7.244      2.581      3.401
REMARK INTER + INTRA:         -12.180
REMARK INTER:                 -10.936
REMARK INTRA:                  -1.245
REMARK UNBOUND:                -1.548
REMARK  Name = 
REMARK  10 active torsions:
REMARK  status: ('A' for Active; 'I' for Inactive)
REMARK    1  A    between atoms: C_1  and  O_2
REMARK    2  A    between atoms: O_2  and  C_3
REMARK    3  A    between atoms: C_10  and  C_11
REMARK    4  A    between atoms: N_13  and  C_14
REMARK    5  A    between atoms: C_14  and  C_15
REMARK    6  A    between atoms: C_18  and  C_19
REMARK    7  A    between atoms: C_19  and  N_20
REMARK    8  A    between atoms: N_20  and  C_21
REMARK    9  A    between atoms: N_20  and  C_22
REMARK   10  A    between atoms: C_22  and  C_23
REMARK                            x       y       z     vdW  Elec       q    Type
REMARK                         _______ _______ _______ _____ _____    ______ ____
ROOT
ATOM      1  C   UNL     1      48.855   6.978  14.266  0.00  0.00    +0.000 C 
ENDROOT
BRANCH   1   2
ATOM      2  C   UNL     1      47.810   6.369  13.368  0.00  0.00    +0.000 A 
ATOM      3  C   UNL     1      47.116   5.216  13.749  0.00  0.00    +0.000 A 
ATOM      4  C   UNL     1      46.066   4.730  12.964  0.00  0.00    +0.000 A 
ATOM      5  C   UNL     1      45.689   5.400  11.790  0.00  0.00    +0.000 A 
ATOM      6  C   UNL     1      46.443   6.501  11.368  0.00  0.00    +0.000 A 
ATOM      7  C   UNL     1      47.501   6.975  12.144  0.00  0.00    +0.000 A 
BRANCH   5   8
ATOM      8  C   UNL     1      44.473   4.967  10.998  0.00  0.00    +0.000 C 
BRANCH   8   9
ATOM      9  N   UNL     1      44.476   3.533  10.635  0.00  0.00    +0.000 NA
ATOM     10  C   UNL     1      43.451   2.787  11.377  0.00  0.00    +0.000 C 
BRANCH   9  11
ATOM     11  C   UNL     1      44.235   3.359   9.189  0.00  0.00    +0.000 C 
BRANCH  11  12
ATOM     12  C   UNL     1      45.429   2.853   8.424  0.00  0.00    +0.000 A 
ATOM     13  C   UNL     1      45.789   1.502   8.437  0.00  0.00    +0.000 A 
ATOM     14  C   UNL     1      46.879   1.072   7.689  0.00  0.00    +0.000 A 
ATOM     15  C   UNL     1      47.580   2.011   6.951  0.00  0.00    +0.000 A 
ATOM     16  N   UNL     1      47.276   3.327   6.924  0.00  0.00    +0.000 NA
ATOM     17  C   UNL     1      46.210   3.715   7.660  0.00  0.00    +0.000 A 
ENDBRANCH  11  12
ENDBRANCH   9  11
ENDBRANCH   8   9
ENDBRANCH   5   8
ENDBRANCH   1   2
BRANCH   1  20
ATOM     18  C   UNL     1      49.276   6.406  16.598  0.00  0.00    +0.000 C 
ATOM     19  O   UNL     1      50.351   5.891  16.288  0.00  0.00    +0.000 OA
ATOM     20  N   UNL     1      48.464   6.968  15.651  0.00  0.00    +0.000 N 
ATOM     21  H   UNL     1      47.587   7.402  15.908  0.00  0.00    +0.000 HD
BRANCH  18  29
ATOM     22  C   UNL     1      47.797   8.802  18.597  0.00  0.00    +0.000 A 
ATOM     23  N   UNL     1      47.252   9.530  19.594  0.00  0.00    +0.000 NA
ATOM     24  C   UNL     1      47.083   8.948  20.783  0.00  0.00    +0.000 A 
ATOM     25  N   UNL     1      47.402   7.699  21.113  0.00  0.00    +0.000 NA
ATOM     26  C   UNL     1      47.957   7.013  20.099  0.00  0.00    +0.000 A 
ATOM     27  S   UNL     1      48.421   5.399  20.347  0.00  0.00    +0.000 S 
ATOM     28  C   UNL     1      48.974   5.267  18.747  0.00  0.00    +0.000 A 
ATOM     29  C   UNL     1      48.821   6.427  17.995  0.00  0.00    +0.000 A 
ATOM     30  C   UNL     1      48.205   7.473  18.806  0.00  0.00    +0.000 A 
BRANCH  22  32
ATOM     31  C   UNL     1      48.617  10.672  17.470  0.00  0.00    +0.000 C 
ATOM     32  O   UNL     1      47.952   9.411  17.367  0.00  0.00    +0.000 OA
ENDBRANCH  22  32
ENDBRANCH  18  29
ENDBRANCH   1  20
TORSDOF 8
ENDMDL
MODEL 4
REMARK VINA RESULT:    -6.970      2.781      4.048
REMARK INTER + INTRA:         -11.778
REMARK INTER:                 -10.623
REMARK INTRA:                  -1.155
REMARK UNBOUND:                -1.548
REMARK  Name = 
REMARK  10 active torsions:
REMARK  status: ('A' for Active; 'I' for Inactive)
REMARK    1  A    between atoms: C_1  and  O_2
REMARK    2  A    between atoms: O_2  and  C_3
REMARK    3  A    between atoms: C_10  and  C_11
REMARK    4  A    between atoms: N_13  and  C_14
REMARK    5  A    between atoms: C_14  and  C_15
REMARK    6  A    between atoms: C_18  and  C_19
REMARK    7  A    between atoms: C_19  and  N_20
REMARK    8  A    between atoms: N_20  and  C_21
REMARK    9  A    between atoms: N_20  and  C_22
REMARK   10  A    between atoms: C_22  and  C_23
REMARK                            x       y       z     vdW  Elec       q    Type
REMARK                         _______ _______ _______ _____ _____    ______ ____
ROOT
ATOM      1  C   UNL     1      47.857   4.568  16.086  0.00  0.00    +0.000 C 
ENDROOT
BRANCH   1   2
ATOM      2  C   UNL     1      47.337   4.753  14.685  0.00  0.00    +0.000 A 
ATOM      3  C   UNL     1      46.642   3.729  14.033  0.00  0.00    +0.000 A 
ATOM      4  C   UNL     1      46.061   3.953  12.782  0.00  0.00    +0.000 A 
ATOM      5  C   UNL     1      46.157   5.211  12.169  0.00  0.00    +0.000 A 
ATOM      6  C   UNL     1      46.928   6.205  12.784  0.00  0.00    +0.000 A 
ATOM      7  C   UNL     1      47.522   5.974  14.025  0.00  0.00    +0.000 A 
BRANCH   5   8
ATOM      8  C   UNL     1      45.425   5.513  10.878  0.00  0.00    +0.000 C 
BRANCH   8   9
ATOM      9  N   UNL     1      44.509   4.436  10.446  0.00  0.00    +0.000 NA
ATOM     10  C   UNL     1      43.150   4.642  10.965  0.00  0.00    +0.000 C 
BRANCH   9  11
ATOM     11  C   UNL     1      44.447   4.362   8.972  0.00  0.00    +0.000 C 
BRANCH  11  12
ATOM     12  C   UNL     1      45.361   3.327   8.371  0.00  0.00    +0.000 A 
ATOM     13  C   UNL     1      46.284   3.655   7.374  0.00  0.00    +0.000 A 
ATOM     14  C   UNL     1      47.132   2.675   6.871  0.00  0.00    +0.000 A 
ATOM     15  C   UNL     1      47.028   1.392   7.382  0.00  0.00    +0.000 A 
ATOM     16  N   UNL     1      46.140   1.030   8.333  0.00  0.00    +0.000 NA
ATOM     17  C   UNL     1      45.330   2.004   8.804  0.00  0.00    +0.000 A 
ENDBRANCH  11  12
ENDBRANCH   9  11
ENDBRANCH   8   9
ENDBRANCH   5   8
ENDBRANCH   1   2
BRANCH   1  20
ATOM     18  C   UNL     1      48.126   5.767  18.191  0.00  0.00    +0.000 C 
ATOM     19  O   UNL     1      48.692   4.792  18.686  0.00  0.00    +0.000 OA
ATOM     20  N   UNL     1      47.673   5.740  16.901  0.00  0.00    +0.000 N 
ATOM     21  H   UNL     1      47.219   6.547  16.491  0.00  0.00    +0.000 HD
BRANCH  18  29
ATOM     22  C   UNL     1      48.094   9.131  17.408  0.00  0.00    +0.000 A 
ATOM     23  N   UNL     1      48.049  10.479  17.399  0.00  0.00    +0.000 NA
ATOM     24  C   UNL     1      47.799  11.110  18.548  0.00  0.00    +0.000 A 
ATOM     25  N   UNL     1      47.586  10.552  19.736  0.00  0.00    +0.000 NA
ATOM     26  C   UNL     1      47.657   9.210  19.706  0.00  0.00    +0.000 A 
ATOM     27  S   UNL     1      47.406   8.335  21.139  0.00  0.00    +0.000 S 
ATOM     28  C   UNL     1      47.639   6.860  20.330  0.00  0.00    +0.000 A 
ATOM     29  C   UNL     1      47.907   6.993  18.972  0.00  0.00    +0.000 A 
ATOM     30  C   UNL     1      47.912   8.404  18.597  0.00  0.00    +0.000 A 
BRANCH  22  32
ATOM     31  C   UNL     1      49.150   9.272  15.333  0.00  0.00    +0.000 C 
ATOM     32  O   UNL     1      48.338   8.488  16.209  0.00  0.00    +0.000 OA
ENDBRANCH  22  32
ENDBRANCH  18  29
ENDBRANCH   1  20
TORSDOF 8
ENDMDL
MODEL 5
REMARK VINA RESULT:    -6.857      2.716      3.637
REMARK INTER + INTRA:         -11.612
REMARK INTER:                 -10.386
REMARK INTRA:                  -1.226
REMARK UNBOUND:                -1.548
REMARK  Name = 
REMARK  10 active torsions:
REMARK  status: ('A' for Active; 'I' for Inactive)
REMARK    1  A    between atoms: C_1  and  O_2
REMARK    2  A    between atoms: O_2  and  C_3
REMARK    3  A    between atoms: C_10  and  C_11
REMARK    4  A    between atoms: N_13  and  C_14
REMARK    5  A    between atoms: C_14  and  C_15
REMARK    6  A    between atoms: C_18  and  C_19
REMARK    7  A    between atoms: C_19  and  N_20
REMARK    8  A    between atoms: N_20  and  C_21
REMARK    9  A    between atoms: N_20  and  C_22
REMARK   10  A    between atoms: C_22  and  C_23
REMARK                            x       y       z     vdW  Elec       q    Type
REMARK                         _______ _______ _______ _____ _____    ______ ____
ROOT
ATOM      1  C   UNL     1      47.607   4.431  16.016  0.00  0.00    +0.000 C 
ENDROOT
BRANCH   1   2
ATOM      2  C   UNL     1      47.164   4.658  14.595  0.00  0.00    +0.000 A 
ATOM      3  C   UNL     1      46.565   3.633  13.855  0.00  0.00    +0.000 A 
ATOM      4  C   UNL     1      46.049   3.889  12.581  0.00  0.00    +0.000 A 
ATOM      5  C   UNL     1      46.115   5.180  12.034  0.00  0.00    +0.000 A 
ATOM      6  C   UNL     1      46.794   6.179  12.741  0.00  0.00    +0.000 A 
ATOM      7  C   UNL     1      47.323   5.918  14.006  0.00  0.00    +0.000 A 
BRANCH   5   8
ATOM      8  C   UNL     1      45.447   5.507  10.715  0.00  0.00    +0.000 C 
BRANCH   8   9
ATOM      9  N   UNL     1      44.518   4.460  10.241  0.00  0.00    +0.000 NA
ATOM     10  C   UNL     1      43.140   4.722  10.679  0.00  0.00    +0.000 C 
BRANCH   9  11
ATOM     11  C   UNL     1      44.537   4.372   8.766  0.00  0.00    +0.000 C 
BRANCH  11  12
ATOM     12  C   UNL     1      45.458   3.310   8.227  0.00  0.00    +0.000 A 
ATOM     13  C   UNL     1      46.399   3.592   7.232  0.00  0.00    +0.000 A 
ATOM     14  C   UNL     1      47.254   2.590   6.788  0.00  0.00    +0.000 A 
ATOM     15  C   UNL     1      47.138   1.331   7.353  0.00  0.00    +0.000 A 
ATOM     16  N   UNL     1      46.233   1.013   8.303  0.00  0.00    +0.000 NA
ATOM     17  C   UNL     1      45.417   2.008   8.717  0.00  0.00    +0.000 A 
ENDBRANCH  11  12
ENDBRANCH   9  11
ENDBRANCH   8   9
ENDBRANCH   5   8
ENDBRANCH   1   2
BRANCH   1  20
ATOM     18  C   UNL     1      49.200   5.999  16.989  0.00  0.00    +0.000 C 
ATOM     19  O   UNL     1      50.134   5.261  16.673  0.00  0.00    +0.000 OA
ATOM     20  N   UNL     1      47.906   5.660  16.703  0.00  0.00    +0.000 N 
ATOM     21  H   UNL     1      47.140   6.273  16.951  0.00  0.00    +0.000 HD
BRANCH  18  29
ATOM     22  C   UNL     1      48.081   7.328  19.974  0.00  0.00    +0.000 A 
ATOM     23  N   UNL     1      47.795   8.091  21.048  0.00  0.00    +0.000 NA
ATOM     24  C   UNL     1      48.365   9.294  21.139  0.00  0.00    +0.000 A 
ATOM     25  N   UNL     1      49.203   9.848  20.268  0.00  0.00    +0.000 NA
ATOM     26  C   UNL     1      49.449   9.064  19.204  0.00  0.00    +0.000 A 
ATOM     27  S   UNL     1      50.503   9.617  17.994  0.00  0.00    +0.000 S 
ATOM     28  C   UNL     1      50.300   8.187  17.101  0.00  0.00    +0.000 A 
ATOM     29  C   UNL     1      49.440   7.267  17.693  0.00  0.00    +0.000 A 
ATOM     30  C   UNL     1      48.934   7.793  18.957  0.00  0.00    +0.000 A 
BRANCH  22  32
ATOM     31  C   UNL     1      48.296   5.073  20.529  0.00  0.00    +0.000 C 
ATOM     32  O   UNL     1      47.498   6.077  19.899  0.00  0.00    +0.000 OA
ENDBRANCH  22  32
ENDBRANCH  18  29
ENDBRANCH   1  20
TORSDOF 8
ENDMDL
MODEL 6
REMARK VINA RESULT:    -6.693      3.036      7.825
REMARK INTER + INTRA:         -11.371
REMARK INTER:                  -9.585
REMARK INTRA:                  -1.786
REMARK UNBOUND:                -1.548
REMARK  Name = 
REMARK  10 active torsions:
REMARK  status: ('A' for Active; 'I' for Inactive)
REMARK    1  A    between atoms: C_1  and  O_2
REMARK    2  A    between atoms: O_2  and  C_3
REMARK    3  A    between atoms: C_10  and  C_11
REMARK    4  A    between atoms: N_13  and  C_14
REMARK    5  A    between atoms: C_14  and  C_15
REMARK    6  A    between atoms: C_18  and  C_19
REMARK    7  A    between atoms: C_19  and  N_20
REMARK    8  A    between atoms: N_20  and  C_21
REMARK    9  A    between atoms: N_20  and  C_22
REMARK   10  A    between atoms: C_22  and  C_23
REMARK                            x       y       z     vdW  Elec       q    Type
REMARK                         _______ _______ _______ _____ _____    ______ ____
ROOT
ATOM      1  C   UNL     1      48.359   7.958  11.876  0.00  0.00    +0.000 C 
ENDROOT
BRANCH   1   2
ATOM      2  C   UNL     1      48.465   7.944  13.378  0.00  0.00    +0.000 A 
ATOM      3  C   UNL     1      49.251   6.993  14.036  0.00  0.00    +0.000 A 
ATOM      4  C   UNL     1      49.437   7.065  15.420  0.00  0.00    +0.000 A 
ATOM      5  C   UNL     1      48.848   8.099  16.164  0.00  0.00    +0.000 A 
ATOM      6  C   UNL     1      47.992   8.996  15.513  0.00  0.00    +0.000 A 
ATOM      7  C   UNL     1      47.793   8.912  14.135  0.00  0.00    +0.000 A 
BRANCH   5   8
ATOM      8  C   UNL     1      49.144   8.270  17.639  0.00  0.00    +0.000 C 
BRANCH   8   9
ATOM      9  N   UNL     1      49.806   7.100  18.255  0.00  0.00    +0.000 NA
ATOM     10  C   UNL     1      50.831   7.509  19.225  0.00  0.00    +0.000 C 
BRANCH   9  11
ATOM     11  C   UNL     1      48.819   6.243  18.942  0.00  0.00    +0.000 C 
BRANCH  11  12
ATOM     12  C   UNL     1      48.503   4.965  18.210  0.00  0.00    +0.000 A 
ATOM     13  C   UNL     1      49.509   4.080  17.812  0.00  0.00    +0.000 A 
ATOM     14  C   UNL     1      49.169   2.895  17.169  0.00  0.00    +0.000 A 
ATOM     15  C   UNL     1      47.829   2.633  16.942  0.00  0.00    +0.000 A 
ATOM     16  N   UNL     1      46.828   3.468  17.295  0.00  0.00    +0.000 NA
ATOM     17  C   UNL     1      47.188   4.611  17.920  0.00  0.00    +0.000 A 
ENDBRANCH  11  12
ENDBRANCH   9  11
ENDBRANCH   8   9
ENDBRANCH   5   8
ENDBRANCH   1   2
BRANCH   1  20
ATOM     18  C   UNL     1      46.289   6.861  11.201  0.00  0.00    +0.000 C 
ATOM     19  O   UNL     1      45.647   7.869  11.496  0.00  0.00    +0.000 OA
ATOM     20  N   UNL     1      47.647   6.817  11.364  0.00  0.00    +0.000 N 
ATOM     21  H   UNL     1      48.175   5.992  11.110  0.00  0.00    +0.000 HD
BRANCH  18  29
ATOM     22  C   UNL     1      44.474   4.303  12.647  0.00  0.00    +0.000 A 
ATOM     23  N   UNL     1      43.768   3.190  12.932  0.00  0.00    +0.000 NA
ATOM     24  C   UNL     1      43.425   2.383  11.926  0.00  0.00    +0.000 A 
ATOM     25  N   UNL     1      43.708   2.550  10.637  0.00  0.00    +0.000 NA
ATOM     26  C   UNL     1      44.427   3.660  10.397  0.00  0.00    +0.000 A 
ATOM     27  S   UNL     1      44.873   4.027   8.800  0.00  0.00    +0.000 S 
ATOM     28  C   UNL     1      45.673   5.439   9.303  0.00  0.00    +0.000 A 
ATOM     29  C   UNL     1      45.620   5.663  10.675  0.00  0.00    +0.000 A 
ATOM     30  C   UNL     1      44.867   4.597  11.329  0.00  0.00    +0.000 A 
BRANCH  22  32
ATOM     31  C   UNL     1      46.136   4.896  14.171  0.00  0.00    +0.000 C 
ATOM     32  O   UNL     1      44.811   5.138  13.695  0.00  0.00    +0.000 OA
ENDBRANCH  22  32
ENDBRANCH  18  29
ENDBRANCH   1  20
TORSDOF 8
ENDMDL
MODEL 7
REMARK VINA RESULT:    -6.657      3.481      8.703
REMARK INTER + INTRA:         -11.319
REMARK INTER:                  -9.803
REMARK INTRA:                  -1.516
REMARK UNBOUND:                -1.548
REMARK  Name = 
REMARK  10 active torsions:
REMARK  status: ('A' for Active; 'I' for Inactive)
REMARK    1  A    between atoms: C_1  and  O_2
REMARK    2  A    between atoms: O_2  and  C_3
REMARK    3  A    between atoms: C_10  and  C_11
REMARK    4  A    between atoms: N_13  and  C_14
REMARK    5  A    between atoms: C_14  and  C_15
REMARK    6  A    between atoms: C_18  and  C_19
REMARK    7  A    between atoms: C_19  and  N_20
REMARK    8  A    between atoms: N_20  and  C_21
REMARK    9  A    between atoms: N_20  and  C_22
REMARK   10  A    between atoms: C_22  and  C_23
REMARK                            x       y       z     vdW  Elec       q    Type
REMARK                         _______ _______ _______ _____ _____    ______ ____
ROOT
ATOM      1  C   UNL     1      47.362   3.203  17.032  0.00  0.00    +0.000 C 
ENDROOT
BRANCH   1   2
ATOM      2  C   UNL     1      48.822   3.159  17.398  0.00  0.00    +0.000 A 
ATOM      3  C   UNL     1      49.640   2.107  16.971  0.00  0.00    +0.000 A 
ATOM      4  C   UNL     1      51.017   2.138  17.214  0.00  0.00    +0.000 A 
ATOM      5  C   UNL     1      51.596   3.230  17.878  0.00  0.00    +0.000 A 
ATOM      6  C   UNL     1      50.762   4.236  18.380  0.00  0.00    +0.000 A 
ATOM      7  C   UNL     1      49.386   4.195  18.151  0.00  0.00    +0.000 A 
BRANCH   5   8
ATOM      8  C   UNL     1      53.098   3.345  18.034  0.00  0.00    +0.000 C 
BRANCH   8   9
ATOM      9  N   UNL     1      53.576   4.734  18.199  0.00  0.00    +0.000 NA
ATOM     10  C   UNL     1      54.340   4.897  19.444  0.00  0.00    +0.000 C 
BRANCH   9  11
ATOM     11  C   UNL     1      54.432   5.132  17.063  0.00  0.00    +0.000 C 
BRANCH  11  12
ATOM     12  C   UNL     1      53.812   6.168  16.163  0.00  0.00    +0.000 A 
ATOM     13  C   UNL     1      52.519   6.651  16.382  0.00  0.00    +0.000 A 
ATOM     14  C   UNL     1      51.999   7.633  15.546  0.00  0.00    +0.000 A 
ATOM     15  C   UNL     1      52.791   8.100  14.511  0.00  0.00    +0.000 A 
ATOM     16  N   UNL     1      54.038   7.648  14.254  0.00  0.00    +0.000 NA
ATOM     17  C   UNL     1      54.518   6.695  15.085  0.00  0.00    +0.000 A 
ENDBRANCH  11  12
ENDBRANCH   9  11
ENDBRANCH   8   9
ENDBRANCH   5   8
ENDBRANCH   1   2
BRANCH   1  20
ATOM     18  C   UNL     1      47.096   4.141  14.798  0.00  0.00    +0.000 C 
ATOM     19  O   UNL     1      47.418   3.062  14.296  0.00  0.00    +0.000 OA
ATOM     20  N   UNL     1      47.047   4.300  16.155  0.00  0.00    +0.000 N 
ATOM     21  H   UNL     1      46.770   5.182  16.566  0.00  0.00    +0.000 HD
BRANCH  18  29
ATOM     22  C   UNL     1      44.457   4.898  12.702  0.00  0.00    +0.000 A 
ATOM     23  N   UNL     1      43.591   5.438  11.821  0.00  0.00    +0.000 NA
ATOM     24  C   UNL     1      43.864   6.648  11.327  0.00  0.00    +0.000 A 
ATOM     25  N   UNL     1      44.921   7.404  11.606  0.00  0.00    +0.000 NA
ATOM     26  C   UNL     1      45.768   6.824  12.474  0.00  0.00    +0.000 A 
ATOM     27  S   UNL     1      47.172   7.655  12.943  0.00  0.00    +0.000 S 
ATOM     28  C   UNL     1      47.648   6.373  13.950  0.00  0.00    +0.000 A 
ATOM     29  C   UNL     1      46.764   5.299  13.956  0.00  0.00    +0.000 A 
ATOM     30  C   UNL     1      45.634   5.573  13.074  0.00  0.00    +0.000 A 
BRANCH  22  32
ATOM     31  C   UNL     1      43.538   2.803  12.250  0.00  0.00    +0.000 C 
ATOM     32  O   UNL     1      44.157   3.653  13.219  0.00  0.00    +0.000 OA
ENDBRANCH  22  32
ENDBRANCH  18  29
ENDBRANCH   1  20
TORSDOF 8
ENDMDL
MODEL 8
REMARK VINA RESULT:    -6.579      3.309      4.907
REMARK INTER + INTRA:         -11.204
REMARK INTER:                 -10.038
REMARK INTRA:                  -1.165
REMARK UNBOUND:                -1.548
REMARK  Name = 
REMARK  10 active torsions:
REMARK  status: ('A' for Active; 'I' for Inactive)
REMARK    1  A    between atoms: C_1  and  O_2
REMARK    2  A    between atoms: O_2  and  C_3
REMARK    3  A    between atoms: C_10  and  C_11
REMARK    4  A    between atoms: N_13  and  C_14
REMARK    5  A    between atoms: C_14  and  C_15
REMARK    6  A    between atoms: C_18  and  C_19
REMARK    7  A    between atoms: C_19  and  N_20
REMARK    8  A    between atoms: N_20  and  C_21
REMARK    9  A    between atoms: N_20  and  C_22
REMARK   10  A    between atoms: C_22  and  C_23
REMARK                            x       y       z     vdW  Elec       q    Type
REMARK                         _______ _______ _______ _____ _____    ______ ____
ROOT
ATOM      1  C   UNL     1      48.681   6.697  14.923  0.00  0.00    +0.000 C 
ENDROOT
BRANCH   1   2
ATOM      2  C   UNL     1      47.706   6.218  13.881  0.00  0.00    +0.000 A 
ATOM      3  C   UNL     1      46.997   5.024  14.053  0.00  0.00    +0.000 A 
ATOM      4  C   UNL     1      46.008   4.651  13.138  0.00  0.00    +0.000 A 
ATOM      5  C   UNL     1      45.706   5.474  12.043  0.00  0.00    +0.000 A 
ATOM      6  C   UNL     1      46.479   6.622  11.827  0.00  0.00    +0.000 A 
ATOM      7  C   UNL     1      47.477   6.985  12.732  0.00  0.00    +0.000 A 
BRANCH   5   8
ATOM      8  C   UNL     1      44.552   5.155  11.116  0.00  0.00    +0.000 C 
BRANCH   8   9
ATOM      9  N   UNL     1      44.556   3.764  10.616  0.00  0.00    +0.000 NA
ATOM     10  C   UNL     1      43.503   2.959  11.251  0.00  0.00    +0.000 C 
BRANCH   9  11
ATOM     11  C   UNL     1      44.357   3.733   9.153  0.00  0.00    +0.000 C 
BRANCH  11  12
ATOM     12  C   UNL     1      45.408   2.954   8.407  0.00  0.00    +0.000 A 
ATOM     13  C   UNL     1      46.250   3.566   7.474  0.00  0.00    +0.000 A 
ATOM     14  C   UNL     1      47.230   2.815   6.834  0.00  0.00    +0.000 A 
ATOM     15  C   UNL     1      47.335   1.470   7.147  0.00  0.00    +0.000 A 
ATOM     16  N   UNL     1      46.532   0.838   8.029  0.00  0.00    +0.000 NA
ATOM     17  C   UNL     1      45.590   1.593   8.637  0.00  0.00    +0.000 A 
ENDBRANCH  11  12
ENDBRANCH   9  11
ENDBRANCH   8   9
ENDBRANCH   5   8
ENDBRANCH   1   2
BRANCH   1  20
ATOM     18  C   UNL     1      50.785   7.924  15.033  0.00  0.00    +0.000 C 
ATOM     19  O   UNL     1      50.470   8.386  16.130  0.00  0.00    +0.000 OA
ATOM     20  N   UNL     1      49.950   7.076  14.358  0.00  0.00    +0.000 N 
ATOM     21  H   UNL     1      50.214   6.687  13.463  0.00  0.00    +0.000 HD
BRANCH  18  29
ATOM     22  C   UNL     1      51.707   8.836  11.832  0.00  0.00    +0.000 A 
ATOM     23  N   UNL     1      52.346   9.180  10.695  0.00  0.00    +0.000 NA
ATOM     24  C   UNL     1      53.667   9.365  10.743  0.00  0.00    +0.000 A 
ATOM     25  N   UNL     1      54.452   9.242  11.810  0.00  0.00    +0.000 NA
ATOM     26  C   UNL     1      53.780   8.881  12.917  0.00  0.00    +0.000 A 
ATOM     27  S   UNL     1      54.630   8.683  14.373  0.00  0.00    +0.000 S 
ATOM     28  C   UNL     1      53.206   8.270  15.200  0.00  0.00    +0.000 A 
ATOM     29  C   UNL     1      52.066   8.273  14.402  0.00  0.00    +0.000 A 
ATOM     30  C   UNL     1      52.411   8.646  13.034  0.00  0.00    +0.000 A 
BRANCH  22  32
ATOM     31  C   UNL     1      49.655   9.878  11.456  0.00  0.00    +0.000 C 
ATOM     32  O   UNL     1      50.338   8.663  11.773  0.00  0.00    +0.000 OA
ENDBRANCH  22  32
ENDBRANCH  18  29
ENDBRANCH   1  20
TORSDOF 8
ENDMDL
MODEL 9
REMARK VINA RESULT:    -6.524      3.179      5.681
REMARK INTER + INTRA:         -11.124
REMARK INTER:                  -9.791
REMARK INTRA:                  -1.332
REMARK UNBOUND:                -1.548
REMARK  Name = 
REMARK  10 active torsions:
REMARK  status: ('A' for Active; 'I' for Inactive)
REMARK    1  A    between atoms: C_1  and  O_2
REMARK    2  A    between atoms: O_2  and  C_3
REMARK    3  A    between atoms: C_10  and  C_11
REMARK    4  A    between atoms: N_13  and  C_14
REMARK    5  A    between atoms: C_14  and  C_15
REMARK    6  A    between atoms: C_18  and  C_19
REMARK    7  A    between atoms: C_19  and  N_20
REMARK    8  A    between atoms: N_20  and  C_21
REMARK    9  A    between atoms: N_20  and  C_22
REMARK   10  A    between atoms: C_22  and  C_23
REMARK                            x       y       z     vdW  Elec       q    Type
REMARK                         _______ _______ _______ _____ _____    ______ ____
ROOT
ATOM      1  C   UNL     1      47.956   3.487  17.344  0.00  0.00    +0.000 C 
ENDROOT
BRANCH   1   2
ATOM      2  C   UNL     1      47.834   4.294  16.079  0.00  0.00    +0.000 A 
ATOM      3  C   UNL     1      47.174   3.781  14.958  0.00  0.00    +0.000 A 
ATOM      4  C   UNL     1      46.962   4.584  13.833  0.00  0.00    +0.000 A 
ATOM      5  C   UNL     1      47.399   5.918  13.820  0.00  0.00    +0.000 A 
ATOM      6  C   UNL     1      48.136   6.399  14.909  0.00  0.00    +0.000 A 
ATOM      7  C   UNL     1      48.361   5.590  16.024  0.00  0.00    +0.000 A 
BRANCH   5   8
ATOM      8  C   UNL     1      47.064   6.841  12.667  0.00  0.00    +0.000 C 
BRANCH   8   9
ATOM      9  N   UNL     1      45.693   7.392  12.723  0.00  0.00    +0.000 NA
ATOM     10  C   UNL     1      45.702   8.861  12.738  0.00  0.00    +0.000 C 
BRANCH   9  11
ATOM     11  C   UNL     1      44.898   6.936  11.565  0.00  0.00    +0.000 C 
BRANCH  11  12
ATOM     12  C   UNL     1      44.381   5.527  11.692  0.00  0.00    +0.000 A 
ATOM     13  C   UNL     1      44.493   4.607  10.645  0.00  0.00    +0.000 A 
ATOM     14  C   UNL     1      44.033   3.307  10.818  0.00  0.00    +0.000 A 
ATOM     15  C   UNL     1      43.471   2.966  12.038  0.00  0.00    +0.000 A 
ATOM     16  N   UNL     1      43.330   3.828  13.068  0.00  0.00    +0.000 NA
ATOM     17  C   UNL     1      43.788   5.085  12.871  0.00  0.00    +0.000 A 
ENDBRANCH  11  12
ENDBRANCH   9  11
ENDBRANCH   8   9
ENDBRANCH   5   8
ENDBRANCH   1   2
BRANCH   1  20
ATOM     18  C   UNL     1      50.094   2.345  17.083  0.00  0.00    +0.000 C 
ATOM     19  O   UNL     1      49.632   1.669  16.163  0.00  0.00    +0.000 OA
ATOM     20  N   UNL     1      49.326   3.272  17.731  0.00  0.00    +0.000 N 
ATOM     21  H   UNL     1      49.710   3.836  18.479  0.00  0.00    +0.000 HD
BRANCH  18  29
ATOM     22  C   UNL     1      52.526   4.510  18.232  0.00  0.00    +0.000 A 
ATOM     23  N   UNL     1      53.650   5.110  18.674  0.00  0.00    +0.000 NA
ATOM     24  C   UNL     1      54.721   4.350  18.912  0.00  0.00    +0.000 A 
ATOM     25  N   UNL     1      54.816   3.033  18.756  0.00  0.00    +0.000 NA
ATOM     26  C   UNL     1      53.681   2.475  18.299  0.00  0.00    +0.000 A 
ATOM     27  S   UNL     1      53.626   0.797  18.046  0.00  0.00    +0.000 S 
ATOM     28  C   UNL     1      52.014   0.885  17.521  0.00  0.00    +0.000 A 
ATOM     29  C   UNL     1      51.485   2.172  17.526  0.00  0.00    +0.000 A 
ATOM     30  C   UNL     1      52.485   3.124  17.998  0.00  0.00    +0.000 A 
BRANCH  22  32
ATOM     31  C   UNL     1      51.601   6.634  18.498  0.00  0.00    +0.000 C 
ATOM     32  O   UNL     1      51.419   5.305  18.005  0.00  0.00    +0.000 OA
ENDBRANCH  22  32
ENDBRANCH  18  29
ENDBRANCH   1  20
TORSDOF 8
ENDMDL
