MODEL 1
REMARK VINA RESULT:    -7.752      0.000      0.000
REMARK INTER + INTRA:         -10.663
REMARK INTER:                 -10.018
REMARK INTRA:                  -0.644
REMARK UNBOUND:                -0.644
REMARK  Name = 
REMARK  6 active torsions:
REMARK  status: ('A' for Active; 'I' for Inactive)
REMARK    1  A    between atoms: C_1  and  C_2
REMARK    2  A    between atoms: C_2  and  C_3
REMARK    3  A    between atoms: C_2  and  C_14
REMARK    4  A    between atoms: C_3  and  O_4
REMARK    5  A    between atoms: O_4  and  C_5
REMARK    6  A    between atoms: C_8  and  C_9
REMARK                            x       y       z     vdW  Elec       q    Type
REMARK                         _______ _______ _______ _____ _____    ______ ____
ROOT
ATOM      1  O   UNL     1      43.512   3.303  10.199  0.00  0.00    +0.000 OA
ENDROOT
BRANCH   1   2
ATOM      2  C   UNL     1      44.503   3.034   9.283  0.00  0.00    +0.000 A 
ATOM      3  C   UNL     1      44.918   4.066   8.446  0.00  0.00    +0.000 A 
ATOM      4  N   UNL     1      45.893   3.916   7.510  0.00  0.00    +0.000 NA
ATOM      5  C   UNL     1      46.437   2.668   7.463  0.00  0.00    +0.000 A 
ATOM      6  C   UNL     1      46.023   1.638   8.296  0.00  0.00    +0.000 A 
ATOM      7  N   UNL     1      45.044   1.797   9.220  0.00  0.00    +0.000 NA
BRANCH   5   8
ATOM      8  C   UNL     1      47.521   2.412   6.475  0.00  0.00    +0.000 C 
ATOM      9  N   UNL     1      47.519   3.207   5.363  0.00  0.00    +0.000 N 
ATOM     10  O   UNL     1      48.365   1.540   6.646  0.00  0.00    +0.000 OA
ATOM     11  H   UNL     1      46.815   3.926   5.249  0.00  0.00    +0.000 HD
ATOM     12  H   UNL     1      48.241   3.080   4.668  0.00  0.00    +0.000 HD
ENDBRANCH   5   8
ENDBRANCH   1   2
BRANCH   1  13
ATOM     13  C   UNL     1      43.950   3.138  11.552  0.00  0.00    +0.000 C 
BRANCH  13  15
ATOM     14  C   UNL     1      42.667   5.299  12.089  0.00  0.00    +0.000 C 
ATOM     15  C   UNL     1      43.924   4.495  12.199  0.00  0.00    +0.000 C 
BRANCH  15  16
ATOM     16  C   UNL     1      45.204   5.159  12.481  0.00  0.00    +0.000 A 
ATOM     17  C   UNL     1      45.784   6.011  11.530  0.00  0.00    +0.000 A 
ATOM     18  C   UNL     1      47.028   6.600  11.761  0.00  0.00    +0.000 A 
ATOM     19  C   UNL     1      47.701   6.356  12.956  0.00  0.00    +0.000 A 
ATOM     20  C   UNL     1      47.123   5.528  13.915  0.00  0.00    +0.000 A 
ATOM     21 CL   UNL     1      47.951   5.235  15.396  0.00  0.00    +0.000 Cl
ATOM     22  C   UNL     1      45.885   4.927  13.685  0.00  0.00    +0.000 A 
ENDBRANCH  15  16
ENDBRANCH  13  15
ENDBRANCH   1  13
TORSDOF 5
ENDMDL
MODEL 2
REMARK VINA RESULT:    -7.660      1.111      1.538
REMARK INTER + INTRA:         -10.544
REMARK INTER:                  -9.944
REMARK INTRA:                  -0.600
REMARK UNBOUND:                -0.644
REMARK  Name = 
REMARK  6 active torsions:
REMARK  status: ('A' for Active; 'I' for Inactive)
REMARK    1  A    between atoms: C_1  and  C_2
REMARK    2  A    between atoms: C_2  and  C_3
REMARK    3  A    between atoms: C_2  and  C_14
REMARK    4  A    between atoms: C_3  and  O_4
REMARK    5  A    between atoms: O_4  and  C_5
REMARK    6  A    between atoms: C_8  and  C_9
REMARK                            x       y       z     vdW  Elec       q    Type
REMARK                         _______ _______ _______ _____ _____    ______ ____
ROOT
ATOM      1  O   UNL     1      43.526   3.278  10.215  0.00  0.00    +0.000 OA
ENDROOT
BRANCH   1   2
ATOM      2  C   UNL     1      44.505   3.019   9.284  0.00  0.00    +0.000 A 
ATOM      3  C   UNL     1      44.907   4.060   8.451  0.00  0.00    +0.000 A 
ATOM      4  N   UNL     1      45.870   3.920   7.502  0.00  0.00    +0.000 NA
ATOM      5  C   UNL     1      46.416   2.673   7.436  0.00  0.00    +0.000 A 
ATOM      6  C   UNL     1      46.015   1.635   8.265  0.00  0.00    +0.000 A 
ATOM      7  N   UNL     1      45.047   1.784   9.203  0.00  0.00    +0.000 NA
BRANCH   5   8
ATOM      8  C   UNL     1      47.488   2.428   6.432  0.00  0.00    +0.000 C 
ATOM      9  N   UNL     1      47.483   3.248   5.338  0.00  0.00    +0.000 N 
ATOM     10  O   UNL     1      48.324   1.545   6.575  0.00  0.00    +0.000 OA
ATOM     11  H   UNL     1      46.786   3.976   5.246  0.00  0.00    +0.000 HD
ATOM     12  H   UNL     1      48.197   3.129   4.633  0.00  0.00    +0.000 HD
ENDBRANCH   5   8
ENDBRANCH   1   2
BRANCH   1  13
ATOM     13  C   UNL     1      44.027   3.298  11.555  0.00  0.00    +0.000 C 
BRANCH  13  15
ATOM     14  C   UNL     1      43.194   5.723  11.387  0.00  0.00    +0.000 C 
ATOM     15  C   UNL     1      44.163   4.739  11.962  0.00  0.00    +0.000 C 
BRANCH  15  16
ATOM     16  C   UNL     1      45.455   5.197  12.491  0.00  0.00    +0.000 A 
ATOM     17  C   UNL     1      45.928   4.716  13.720  0.00  0.00    +0.000 A 
ATOM     18  C   UNL     1      47.125   5.188  14.261  0.00  0.00    +0.000 A 
ATOM     19  C   UNL     1      47.873   6.138  13.569  0.00  0.00    +0.000 A 
ATOM     20  C   UNL     1      47.422   6.606  12.337  0.00  0.00    +0.000 A 
ATOM     21 CL   UNL     1      48.353   7.772  11.477  0.00  0.00    +0.000 Cl
ATOM     22  C   UNL     1      46.221   6.146  11.796  0.00  0.00    +0.000 A 
ENDBRANCH  15  16
ENDBRANCH  13  15
ENDBRANCH   1  13
TORSDOF 5
ENDMDL
MODEL 3
REMARK VINA RESULT:    -7.303      3.779      5.971
REMARK INTER + INTRA:         -10.083
REMARK INTER:                  -9.459
REMARK INTRA:                  -0.624
REMARK UNBOUND:                -0.644
REMARK  Name = 
REMARK  6 active torsions:
REMARK  status: ('A' for Active; 'I' for Inactive)
REMARK    1  A    between atoms: C_1  and  C_2
REMARK    2  A    between atoms: C_2  and  C_3
REMARK    3  A    between atoms: C_2  and  C_14
REMARK    4  A    between atoms: C_3  and  O_4
REMARK    5  A    between atoms: O_4  and  C_5
REMARK    6  A    between atoms: C_8  and  C_9
REMARK                            x       y       z     vdW  Elec       q    Type
REMARK                         _______ _______ _______ _____ _____    ______ ____
ROOT
ATOM      1  O   UNL     1      44.076   5.091  12.127  0.00  0.00    +0.000 OA
ENDROOT
BRANCH   1   2
ATOM      2  C   UNL     1      45.346   5.507  12.452  0.00  0.00    +0.000 A 
ATOM      3  C   UNL     1      45.982   6.399  11.594  0.00  0.00    +0.000 A 
ATOM      4  N   UNL     1      47.233   6.882  11.820  0.00  0.00    +0.000 NA
ATOM      5  C   UNL     1      47.812   6.423  12.965  0.00  0.00    +0.000 A 
ATOM      6  C   UNL     1      47.179   5.534  13.822  0.00  0.00    +0.000 A 
ATOM      7  N   UNL     1      45.935   5.052  13.581  0.00  0.00    +0.000 NA
BRANCH   5   8
ATOM      8  C   UNL     1      49.180   6.906  13.303  0.00  0.00    +0.000 C 
ATOM      9  N   UNL     1      49.923   7.381  12.257  0.00  0.00    +0.000 N 
ATOM     10  O   UNL     1      49.616   6.880  14.447  0.00  0.00    +0.000 OA
ATOM     11  H   UNL     1      49.537   7.399  11.322  0.00  0.00    +0.000 HD
ATOM     12  H   UNL     1      50.854   7.730  12.436  0.00  0.00    +0.000 HD
ENDBRANCH   5   8
ENDBRANCH   1   2
BRANCH   1  13
ATOM     13  C   UNL     1      43.857   5.034  10.713  0.00  0.00    +0.000 C 
BRANCH  13  15
ATOM     14  C   UNL     1      43.561   2.537  11.242  0.00  0.00    +0.000 C 
ATOM     15  C   UNL     1      44.017   3.599  10.293  0.00  0.00    +0.000 C 
BRANCH  15  16
ATOM     16  C   UNL     1      44.998   3.283   9.245  0.00  0.00    +0.000 A 
ATOM     17  C   UNL     1      45.545   4.306   8.456  0.00  0.00    +0.000 A 
ATOM     18  C   UNL     1      46.432   4.012   7.419  0.00  0.00    +0.000 A 
ATOM     19  C   UNL     1      46.797   2.691   7.170  0.00  0.00    +0.000 A 
ATOM     20  C   UNL     1      46.275   1.671   7.962  0.00  0.00    +0.000 A 
ATOM     21 CL   UNL     1      46.735   0.040   7.660  0.00  0.00    +0.000 Cl
ATOM     22  C   UNL     1      45.379   1.957   8.993  0.00  0.00    +0.000 A 
ENDBRANCH  15  16
ENDBRANCH  13  15
ENDBRANCH   1  13
TORSDOF 5
ENDMDL
MODEL 4
REMARK VINA RESULT:    -6.907      1.752      2.216
REMARK INTER + INTRA:          -9.571
REMARK INTER:                  -9.115
REMARK INTRA:                  -0.456
REMARK UNBOUND:                -0.644
REMARK  Name = 
REMARK  6 active torsions:
REMARK  status: ('A' for Active; 'I' for Inactive)
REMARK    1  A    between atoms: C_1  and  C_2
REMARK    2  A    between atoms: C_2  and  C_3
REMARK    3  A    between atoms: C_2  and  C_14
REMARK    4  A    between atoms: C_3  and  O_4
REMARK    5  A    between atoms: O_4  and  C_5
REMARK    6  A    between atoms: C_8  and  C_9
REMARK                            x       y       z     vdW  Elec       q    Type
REMARK                         _______ _______ _______ _____ _____    ______ ____
ROOT
ATOM      1  O   UNL     1      44.169   4.210  10.636  0.00  0.00    +0.000 OA
ENDROOT
BRANCH   1   2
ATOM      2  C   UNL     1      44.941   3.714   9.611  0.00  0.00    +0.000 A 
ATOM      3  C   UNL     1      45.503   4.621   8.717  0.00  0.00    +0.000 A 
ATOM      4  N   UNL     1      46.288   4.244   7.673  0.00  0.00    +0.000 NA
ATOM      5  C   UNL     1      46.486   2.899   7.578  0.00  0.00    +0.000 A 
ATOM      6  C   UNL     1      45.926   1.994   8.468  0.00  0.00    +0.000 A 
ATOM      7  N   UNL     1      45.137   2.381   9.500  0.00  0.00    +0.000 NA
BRANCH   5   8
ATOM      8  C   UNL     1      47.343   2.393   6.470  0.00  0.00    +0.000 C 
ATOM      9  N   UNL     1      47.261   3.076   5.289  0.00  0.00    +0.000 N 
ATOM     10  O   UNL     1      48.076   1.421   6.607  0.00  0.00    +0.000 OA
ATOM     11  H   UNL     1      46.653   3.880   5.203  0.00  0.00    +0.000 HD
ATOM     12  H   UNL     1      47.831   2.778   4.509  0.00  0.00    +0.000 HD
ENDBRANCH   5   8
ENDBRANCH   1   2
BRANCH   1  13
ATOM     13  C   UNL     1      44.387   5.605  10.868  0.00  0.00    +0.000 C 
BRANCH  13  15
ATOM     14  C   UNL     1      45.036   4.913  13.256  0.00  0.00    +0.000 C 
ATOM     15  C   UNL     1      45.329   5.724  12.034  0.00  0.00    +0.000 C 
BRANCH  15  16
ATOM     16  C   UNL     1      46.179   6.920  12.126  0.00  0.00    +0.000 A 
ATOM     17  C   UNL     1      45.634   8.145  12.537  0.00  0.00    +0.000 A 
ATOM     18  C   UNL     1      46.416   9.300  12.570  0.00  0.00    +0.000 A 
ATOM     19  C   UNL     1      47.760   9.240  12.209  0.00  0.00    +0.000 A 
ATOM     20  C   UNL     1      48.315   8.023  11.820  0.00  0.00    +0.000 A 
ATOM     21 CL   UNL     1      49.979   7.947  11.384  0.00  0.00    +0.000 Cl
ATOM     22  C   UNL     1      47.535   6.867  11.774  0.00  0.00    +0.000 A 
ENDBRANCH  15  16
ENDBRANCH  13  15
ENDBRANCH   1  13
TORSDOF 5
ENDMDL
MODEL 5
REMARK VINA RESULT:    -6.510      4.072      6.774
REMARK INTER + INTRA:          -9.058
REMARK INTER:                  -8.860
REMARK INTRA:                  -0.198
REMARK UNBOUND:                -0.644
REMARK  Name = 
REMARK  6 active torsions:
REMARK  status: ('A' for Active; 'I' for Inactive)
REMARK    1  A    between atoms: C_1  and  C_2
REMARK    2  A    between atoms: C_2  and  C_3
REMARK    3  A    between atoms: C_2  and  C_14
REMARK    4  A    between atoms: C_3  and  O_4
REMARK    5  A    between atoms: O_4  and  C_5
REMARK    6  A    between atoms: C_8  and  C_9
REMARK                            x       y       z     vdW  Elec       q    Type
REMARK                         _______ _______ _______ _____ _____    ______ ____
ROOT
ATOM      1  O   UNL     1      45.402   6.002  10.857  0.00  0.00    +0.000 OA
ENDROOT
BRANCH   1   2
ATOM      2  C   UNL     1      45.914   5.515  12.037  0.00  0.00    +0.000 A 
ATOM      3  C   UNL     1      46.813   6.314  12.739  0.00  0.00    +0.000 A 
ATOM      4  N   UNL     1      47.374   5.937  13.919  0.00  0.00    +0.000 NA
ATOM      5  C   UNL     1      46.978   4.711  14.363  0.00  0.00    +0.000 A 
ATOM      6  C   UNL     1      46.082   3.914  13.663  0.00  0.00    +0.000 A 
ATOM      7  N   UNL     1      45.536   4.297  12.483  0.00  0.00    +0.000 NA
BRANCH   5   8
ATOM      8  C   UNL     1      47.532   4.219  15.654  0.00  0.00    +0.000 C 
ATOM      9  N   UNL     1      47.346   5.034  16.736  0.00  0.00    +0.000 N 
ATOM     10  O   UNL     1      48.122   3.149  15.743  0.00  0.00    +0.000 OA
ATOM     11  H   UNL     1      46.849   5.910  16.638  0.00  0.00    +0.000 HD
ATOM     12  H   UNL     1      47.695   4.740  17.637  0.00  0.00    +0.000 HD
ENDBRANCH   5   8
ENDBRANCH   1   2
BRANCH   1  13
ATOM     13  C   UNL     1      46.049   5.453   9.704  0.00  0.00    +0.000 C 
BRANCH  13  15
ATOM     14  C   UNL     1      43.728   4.352   9.662  0.00  0.00    +0.000 C 
ATOM     15  C   UNL     1      45.112   4.444   9.101  0.00  0.00    +0.000 C 
BRANCH  15  16
ATOM     16  C   UNL     1      45.685   3.313   8.360  0.00  0.00    +0.000 A 
ATOM     17  C   UNL     1      45.555   2.005   8.851  0.00  0.00    +0.000 A 
ATOM     18  C   UNL     1      46.147   0.930   8.187  0.00  0.00    +0.000 A 
ATOM     19  C   UNL     1      46.864   1.147   7.013  0.00  0.00    +0.000 A 
ATOM     20  C   UNL     1      46.981   2.440   6.506  0.00  0.00    +0.000 A 
ATOM     21 CL   UNL     1      47.858   2.706   5.049  0.00  0.00    +0.000 Cl
ATOM     22  C   UNL     1      46.401   3.520   7.171  0.00  0.00    +0.000 A 
ENDBRANCH  15  16
ENDBRANCH  13  15
ENDBRANCH   1  13
TORSDOF 5
ENDMDL
MODEL 6
REMARK VINA RESULT:    -6.464      4.476      6.918
REMARK INTER + INTRA:          -8.998
REMARK INTER:                  -8.527
REMARK INTRA:                  -0.471
REMARK UNBOUND:                -0.644
REMARK  Name = 
REMARK  6 active torsions:
REMARK  status: ('A' for Active; 'I' for Inactive)
REMARK    1  A    between atoms: C_1  and  C_2
REMARK    2  A    between atoms: C_2  and  C_3
REMARK    3  A    between atoms: C_2  and  C_14
REMARK    4  A    between atoms: C_3  and  O_4
REMARK    5  A    between atoms: O_4  and  C_5
REMARK    6  A    between atoms: C_8  and  C_9
REMARK                            x       y       z     vdW  Elec       q    Type
REMARK                         _______ _______ _______ _____ _____    ______ ____
ROOT
ATOM      1  O   UNL     1      46.599   6.668  13.085  0.00  0.00    +0.000 OA
ENDROOT
BRANCH   1   2
ATOM      2  C   UNL     1      47.026   5.725  13.990  0.00  0.00    +0.000 A 
ATOM      3  C   UNL     1      46.736   4.389  13.729  0.00  0.00    +0.000 A 
ATOM      4  N   UNL     1      47.116   3.373  14.550  0.00  0.00    +0.000 NA
ATOM      5  C   UNL     1      47.813   3.773  15.651  0.00  0.00    +0.000 A 
ATOM      6  C   UNL     1      48.102   5.105  15.912  0.00  0.00    +0.000 A 
ATOM      7  N   UNL     1      47.710   6.110  15.091  0.00  0.00    +0.000 NA
BRANCH   5   8
ATOM      8  C   UNL     1      48.280   2.728  16.603  0.00  0.00    +0.000 C 
ATOM      9  N   UNL     1      47.721   2.761  17.850  0.00  0.00    +0.000 N 
ATOM     10  O   UNL     1      49.116   1.890  16.290  0.00  0.00    +0.000 OA
ATOM     11  H   UNL     1      47.027   3.459  18.082  0.00  0.00    +0.000 HD
ATOM     12  H   UNL     1      47.998   2.066  18.530  0.00  0.00    +0.000 HD
ENDBRANCH   5   8
ENDBRANCH   1   2
BRANCH   1  13
ATOM     13  C   UNL     1      46.874   6.300  11.729  0.00  0.00    +0.000 C 
BRANCH  13  15
ATOM     14  C   UNL     1      44.465   7.151  11.452  0.00  0.00    +0.000 C 
ATOM     15  C   UNL     1      45.557   6.230  11.007  0.00  0.00    +0.000 C 
BRANCH  15  16
ATOM     16  C   UNL     1      45.234   5.006  10.261  0.00  0.00    +0.000 A 
ATOM     17  C   UNL     1      44.453   4.002  10.852  0.00  0.00    +0.000 A 
ATOM     18  C   UNL     1      44.189   2.810  10.176  0.00  0.00    +0.000 A 
ATOM     19  C   UNL     1      44.690   2.614   8.891  0.00  0.00    +0.000 A 
ATOM     20  C   UNL     1      45.450   3.614   8.288  0.00  0.00    +0.000 A 
ATOM     21 CL   UNL     1      46.060   3.376   6.696  0.00  0.00    +0.000 Cl
ATOM     22  C   UNL     1      45.726   4.804   8.963  0.00  0.00    +0.000 A 
ENDBRANCH  15  16
ENDBRANCH  13  15
ENDBRANCH   1  13
TORSDOF 5
ENDMDL
MODEL 7
REMARK VINA RESULT:    -6.376      4.694      7.097
REMARK INTER + INTRA:          -8.884
REMARK INTER:                  -8.489
REMARK INTRA:                  -0.395
REMARK UNBOUND:                -0.644
REMARK  Name = 
REMARK  6 active torsions:
REMARK  status: ('A' for Active; 'I' for Inactive)
REMARK    1  A    between atoms: C_1  and  C_2
REMARK    2  A    between atoms: C_2  and  C_3
REMARK    3  A    between atoms: C_2  and  C_14
REMARK    4  A    between atoms: C_3  and  O_4
REMARK    5  A    between atoms: O_4  and  C_5
REMARK    6  A    between atoms: C_8  and  C_9
REMARK                            x       y       z     vdW  Elec       q    Type
REMARK                         _______ _______ _______ _____ _____    ______ ____
ROOT
ATOM      1  O   UNL     1      45.603   4.633  12.911  0.00  0.00    +0.000 OA
ENDROOT
BRANCH   1   2
ATOM      2  C   UNL     1      46.521   4.845  13.914  0.00  0.00    +0.000 A 
ATOM      3  C   UNL     1      47.432   5.886  13.757  0.00  0.00    +0.000 A 
ATOM      4  N   UNL     1      48.377   6.190  14.687  0.00  0.00    +0.000 NA
ATOM      5  C   UNL     1      48.354   5.392  15.792  0.00  0.00    +0.000 A 
ATOM      6  C   UNL     1      47.447   4.354  15.948  0.00  0.00    +0.000 A 
ATOM      7  N   UNL     1      46.515   4.055  15.010  0.00  0.00    +0.000 NA
BRANCH   5   8
ATOM      8  C   UNL     1      49.347   5.658  16.870  0.00  0.00    +0.000 C 
ATOM      9  N   UNL     1      48.843   6.160  18.038  0.00  0.00    +0.000 N 
ATOM     10  O   UNL     1      50.543   5.442  16.720  0.00  0.00    +0.000 OA
ATOM     11  H   UNL     1      47.849   6.323  18.139  0.00  0.00    +0.000 HD
ATOM     12  H   UNL     1      49.474   6.347  18.804  0.00  0.00    +0.000 HD
ENDBRANCH   5   8
ENDBRANCH   1   2
BRANCH   1  13
ATOM     13  C   UNL     1      45.582   5.692  11.948  0.00  0.00    +0.000 C 
BRANCH  13  15
ATOM     14  C   UNL     1      43.112   5.774  11.243  0.00  0.00    +0.000 C 
ATOM     15  C   UNL     1      44.517   5.359  10.940  0.00  0.00    +0.000 C 
BRANCH  15  16
ATOM     16  C   UNL     1      44.777   4.277   9.980  0.00  0.00    +0.000 A 
ATOM     17  C   UNL     1      44.304   2.980  10.229  0.00  0.00    +0.000 A 
ATOM     18  C   UNL     1      44.596   1.932   9.356  0.00  0.00    +0.000 A 
ATOM     19  C   UNL     1      45.351   2.172   8.210  0.00  0.00    +0.000 A 
ATOM     20  C   UNL     1      45.808   3.461   7.943  0.00  0.00    +0.000 A 
ATOM     21 CL   UNL     1      46.733   3.759   6.522  0.00  0.00    +0.000 Cl
ATOM     22  C   UNL     1      45.529   4.511   8.819  0.00  0.00    +0.000 A 
ENDBRANCH  15  16
ENDBRANCH  13  15
ENDBRANCH   1  13
TORSDOF 5
ENDMDL
MODEL 8
REMARK VINA RESULT:    -6.305      4.497      6.367
REMARK INTER + INTRA:          -8.792
REMARK INTER:                  -8.399
REMARK INTRA:                  -0.393
REMARK UNBOUND:                -0.644
REMARK  Name = 
REMARK  6 active torsions:
REMARK  status: ('A' for Active; 'I' for Inactive)
REMARK    1  A    between atoms: C_1  and  C_2
REMARK    2  A    between atoms: C_2  and  C_3
REMARK    3  A    between atoms: C_2  and  C_14
REMARK    4  A    between atoms: C_3  and  O_4
REMARK    5  A    between atoms: O_4  and  C_5
REMARK    6  A    between atoms: C_8  and  C_9
REMARK                            x       y       z     vdW  Elec       q    Type
REMARK                         _______ _______ _______ _____ _____    ______ ____
ROOT
ATOM      1  O   UNL     1      47.709   3.820  14.514  0.00  0.00    +0.000 OA
ENDROOT
BRANCH   1   2
ATOM      2  C   UNL     1      46.699   4.166  13.647  0.00  0.00    +0.000 A 
ATOM      3  C   UNL     1      46.493   5.519  13.390  0.00  0.00    +0.000 A 
ATOM      4  N   UNL     1      45.530   5.976  12.545  0.00  0.00    +0.000 NA
ATOM      5  C   UNL     1      44.784   4.995  11.964  0.00  0.00    +0.000 A 
ATOM      6  C   UNL     1      44.987   3.646  12.220  0.00  0.00    +0.000 A 
ATOM      7  N   UNL     1      45.945   3.203  13.072  0.00  0.00    +0.000 NA
BRANCH   5   8
ATOM      8  C   UNL     1      43.711   5.399  11.014  0.00  0.00    +0.000 C 
ATOM      9  N   UNL     1      43.078   6.579  11.292  0.00  0.00    +0.000 N 
ATOM     10  O   UNL     1      43.410   4.717  10.043  0.00  0.00    +0.000 OA
ATOM     11  H   UNL     1      43.350   7.129  12.097  0.00  0.00    +0.000 HD
ATOM     12  H   UNL     1      42.349   6.903  10.671  0.00  0.00    +0.000 HD
ENDBRANCH   5   8
ENDBRANCH   1   2
BRANCH   1  13
ATOM     13  C   UNL     1      47.552   4.406  15.811  0.00  0.00    +0.000 C 
BRANCH  13  15
ATOM     14  C   UNL     1      47.016   2.777  17.725  0.00  0.00    +0.000 C 
ATOM     15  C   UNL     1      48.031   3.399  16.819  0.00  0.00    +0.000 C 
BRANCH  15  16
ATOM     16  C   UNL     1      49.451   3.413  17.199  0.00  0.00    +0.000 A 
ATOM     17  C   UNL     1      50.100   4.626  17.470  0.00  0.00    +0.000 A 
ATOM     18  C   UNL     1      51.461   4.657  17.773  0.00  0.00    +0.000 A 
ATOM     19  C   UNL     1      52.189   3.470  17.825  0.00  0.00    +0.000 A 
ATOM     20  C   UNL     1      51.548   2.258  17.578  0.00  0.00    +0.000 A 
ATOM     21 CL   UNL     1      52.446   0.791  17.653  0.00  0.00    +0.000 Cl
ATOM     22  C   UNL     1      50.189   2.222  17.264  0.00  0.00    +0.000 A 
ENDBRANCH  15  16
ENDBRANCH  13  15
ENDBRANCH   1  13
TORSDOF 5
ENDMDL
MODEL 9
REMARK VINA RESULT:    -6.032      4.432      6.405
REMARK INTER + INTRA:          -8.439
REMARK INTER:                  -8.058
REMARK INTRA:                  -0.381
REMARK UNBOUND:                -0.644
REMARK  Name = 
REMARK  6 active torsions:
REMARK  status: ('A' for Active; 'I' for Inactive)
REMARK    1  A    between atoms: C_1  and  C_2
REMARK    2  A    between atoms: C_2  and  C_3
REMARK    3  A    between atoms: C_2  and  C_14
REMARK    4  A    between atoms: C_3  and  O_4
REMARK    5  A    between atoms: O_4  and  C_5
REMARK    6  A    between atoms: C_8  and  C_9
REMARK                            x       y       z     vdW  Elec       q    Type
REMARK                         _______ _______ _______ _____ _____    ______ ____
ROOT
ATOM      1  O   UNL     1      47.757   4.862  14.882  0.00  0.00    +0.000 OA
ENDROOT
BRANCH   1   2
ATOM      2  C   UNL     1      46.800   4.635  13.920  0.00  0.00    +0.000 A 
ATOM      3  C   UNL     1      46.160   5.737  13.361  0.00  0.00    +0.000 A 
ATOM      4  N   UNL     1      45.205   5.632  12.399  0.00  0.00    +0.000 NA
ATOM      5  C   UNL     1      44.930   4.351  12.021  0.00  0.00    +0.000 A 
ATOM      6  C   UNL     1      45.566   3.252  12.579  0.00  0.00    +0.000 A 
ATOM      7  N   UNL     1      46.510   3.369  13.544  0.00  0.00    +0.000 NA
BRANCH   5   8
ATOM      8  C   UNL     1      43.904   4.137  10.963  0.00  0.00    +0.000 C 
ATOM      9  N   UNL     1      44.063   4.866   9.817  0.00  0.00    +0.000 N 
ATOM     10  O   UNL     1      42.971   3.357  11.110  0.00  0.00    +0.000 OA
ATOM     11  H   UNL     1      44.846   5.500   9.718  0.00  0.00    +0.000 HD
ATOM     12  H   UNL     1      43.398   4.749   9.065  0.00  0.00    +0.000 HD
ENDBRANCH   5   8
ENDBRANCH   1   2
BRANCH   1  13
ATOM     13  C   UNL     1      47.456   4.220  16.126  0.00  0.00    +0.000 C 
BRANCH  13  15
ATOM     14  C   UNL     1      48.489   6.108  17.531  0.00  0.00    +0.000 C 
ATOM     15  C   UNL     1      48.488   4.668  17.123  0.00  0.00    +0.000 C 
BRANCH  15  16
ATOM     16  C   UNL     1      49.698   3.852  17.290  0.00  0.00    +0.000 A 
ATOM     17  C   UNL     1      49.653   2.467  17.074  0.00  0.00    +0.000 A 
ATOM     18  C   UNL     1      50.781   1.673  17.288  0.00  0.00    +0.000 A 
ATOM     19  C   UNL     1      51.974   2.258  17.705  0.00  0.00    +0.000 A 
ATOM     20  C   UNL     1      52.034   3.636  17.902  0.00  0.00    +0.000 A 
ATOM     21 CL   UNL     1      53.512   4.360  18.408  0.00  0.00    +0.000 Cl
ATOM     22  C   UNL     1      50.907   4.434  17.701  0.00  0.00    +0.000 A 
ENDBRANCH  15  16
ENDBRANCH  13  15
ENDBRANCH   1  13
TORSDOF 5
ENDMDL
