MODEL 1
REMARK VINA RESULT:    -8.540      0.000      0.000
REMARK INTER + INTRA:         -12.576
REMARK INTER:                 -11.535
REMARK INTRA:                  -1.041
REMARK UNBOUND:                -1.041
REMARK  Name = 
REMARK  9 active torsions:
REMARK  status: ('A' for Active; 'I' for Inactive)
REMARK    1  A    between atoms: C_1  and  C_2
REMARK    2  A    between atoms: N_6  and  C_7
REMARK    3  A    between atoms: C_7  and  C_8
REMARK    4  A    between atoms: C_8  and  C_9
REMARK    5  A    between atoms: C_8  and  C_10
REMARK    6  A    between atoms: C_8  and  C_11
REMARK    7  A    between atoms: C_13  and  C_14
REMARK    8  A    between atoms: C_14  and  C_15
REMARK    9  A    between atoms: C_15  and  C_16
REMARK                            x       y       z     vdW  Elec       q    Type
REMARK                         _______ _______ _______ _____ _____    ______ ____
ROOT
ATOM      1  C   UNL     1      45.109   4.664  12.378  0.00  0.00    +0.000 A 
ATOM      2  C   UNL     1      45.779   5.738  11.791  0.00  0.00    +0.000 A 
ATOM      3  C   UNL     1      46.963   6.229  12.342  0.00  0.00    +0.000 A 
ATOM      4  C   UNL     1      47.480   5.546  13.452  0.00  0.00    +0.000 A 
ATOM      5  C   UNL     1      46.785   4.468  13.965  0.00  0.00    +0.000 A 
ATOM      6  N   UNL     1      45.612   4.029  13.464  0.00  0.00    +0.000 NA
ENDROOT
BRANCH   1   7
ATOM      7  C   UNL     1      43.759   4.185  11.814  0.00  0.00    +0.000 C 
ATOM      8  C   UNL     1      42.665   5.223  12.136  0.00  0.00    +0.000 C 
ATOM      9  C   UNL     1      43.409   2.824  12.454  0.00  0.00    +0.000 C 
BRANCH   7  10
ATOM     10  C   UNL     1      43.889   4.023  10.278  0.00  0.00    +0.000 C 
BRANCH  10  16
ATOM     11  C   UNL     1      48.076   2.172   5.543  0.00  0.00    +0.000 C 
ATOM     12  C   UNL     1      47.121   2.395   6.667  0.00  0.00    +0.000 A 
ATOM     13  C   UNL     1      46.564   3.643   6.915  0.00  0.00    +0.000 A 
ATOM     14  C   UNL     1      45.689   3.800   7.984  0.00  0.00    +0.000 A 
ATOM     15  C   UNL     1      45.378   2.710   8.791  0.00  0.00    +0.000 A 
ATOM     16  N   UNL     1      44.524   2.787   9.861  0.00  0.00    +0.000 N 
ATOM     17  N   UNL     1      45.905   1.494   8.563  0.00  0.00    +0.000 NA
ATOM     18  C   UNL     1      46.759   1.362   7.520  0.00  0.00    +0.000 A 
ATOM     19  H   UNL     1      44.391   1.912  10.346  0.00  0.00    +0.000 HD
ENDBRANCH  10  16
ENDBRANCH   7  10
ENDBRANCH   1   7
BRANCH   3  20
ATOM     20  C   UNL     1      47.769   7.362  11.748  0.00  0.00    +0.000 C 
BRANCH  20  21
ATOM     21  C   UNL     1      47.586   8.784  12.319  0.00  0.00    +0.000 C 
ATOM     22  C   UNL     1      46.224   9.510  12.150  0.00  0.00    +0.000 C 
ATOM     23  C   UNL     1      47.083  10.696  11.712  0.00  0.00    +0.000 C 
ATOM     24  O   UNL     1      48.230   9.827  11.491  0.00  0.00    +0.000 OA
BRANCH  21  25
ATOM     25  C   UNL     1      48.151   8.807  13.832  0.00  0.00    +0.000 C 
ATOM     26  N   UNL     1      47.172   8.946  14.784  0.00  0.00    +0.000 N 
ATOM     27  O   UNL     1      49.325   8.717  14.182  0.00  0.00    +0.000 OA
ATOM     28  H   UNL     1      46.200   9.045  14.511  0.00  0.00    +0.000 HD
ATOM     29  H   UNL     1      47.434   8.982  15.758  0.00  0.00    +0.000 HD
ENDBRANCH  21  25
ENDBRANCH  20  21
ENDBRANCH   3  20
TORSDOF 6
ENDMDL
MODEL 2
REMARK VINA RESULT:    -8.098      1.813      2.579
REMARK INTER + INTRA:         -11.979
REMARK INTER:                 -10.909
REMARK INTRA:                  -1.070
REMARK UNBOUND:                -1.041
REMARK  Name = 
REMARK  9 active torsions:
REMARK  status: ('A' for Active; 'I' for Inactive)
REMARK    1  A    between atoms: C_1  and  C_2
REMARK    2  A    between atoms: N_6  and  C_7
REMARK    3  A    between atoms: C_7  and  C_8
REMARK    4  A    between atoms: C_8  and  C_9
REMARK    5  A    between atoms: C_8  and  C_10
REMARK    6  A    between atoms: C_8  and  C_11
REMARK    7  A    between atoms: C_13  and  C_14
REMARK    8  A    between atoms: C_14  and  C_15
REMARK    9  A    between atoms: C_15  and  C_16
REMARK                            x       y       z     vdW  Elec       q    Type
REMARK                         _______ _______ _______ _____ _____    ______ ____
ROOT
ATOM      1  C   UNL     1      45.007   5.870  12.165  0.00  0.00    +0.000 A 
ATOM      2  C   UNL     1      46.318   5.758  12.627  0.00  0.00    +0.000 A 
ATOM      3  C   UNL     1      47.188   6.848  12.580  0.00  0.00    +0.000 A 
ATOM      4  C   UNL     1      46.660   8.065  12.127  0.00  0.00    +0.000 A 
ATOM      5  C   UNL     1      45.343   8.117  11.714  0.00  0.00    +0.000 A 
ATOM      6  N   UNL     1      44.519   7.050  11.708  0.00  0.00    +0.000 NA
ENDROOT
BRANCH   1   7
ATOM      7  C   UNL     1      44.081   4.640  12.139  0.00  0.00    +0.000 C 
ATOM      8  C   UNL     1      42.933   4.834  13.151  0.00  0.00    +0.000 C 
ATOM      9  C   UNL     1      44.908   3.390  12.504  0.00  0.00    +0.000 C 
BRANCH   7  10
ATOM     10  C   UNL     1      43.498   4.484  10.711  0.00  0.00    +0.000 C 
BRANCH  10  16
ATOM     11  C   UNL     1      47.593   1.553   6.466  0.00  0.00    +0.000 C 
ATOM     12  C   UNL     1      46.732   2.392   7.349  0.00  0.00    +0.000 A 
ATOM     13  C   UNL     1      45.952   1.833   8.354  0.00  0.00    +0.000 A 
ATOM     14  C   UNL     1      45.157   2.659   9.141  0.00  0.00    +0.000 A 
ATOM     15  C   UNL     1      45.151   4.032   8.918  0.00  0.00    +0.000 A 
ATOM     16  N   UNL     1      44.395   4.909   9.652  0.00  0.00    +0.000 N 
ATOM     17  N   UNL     1      45.902   4.591   7.952  0.00  0.00    +0.000 NA
ATOM     18  C   UNL     1      46.667   3.769   7.193  0.00  0.00    +0.000 A 
ATOM     19  H   UNL     1      44.501   5.875   9.379  0.00  0.00    +0.000 HD
ENDBRANCH  10  16
ENDBRANCH   7  10
ENDBRANCH   1   7
BRANCH   3  20
ATOM     20  C   UNL     1      48.610   6.821  13.096  0.00  0.00    +0.000 C 
BRANCH  20  21
ATOM     21  C   UNL     1      48.925   7.506  14.442  0.00  0.00    +0.000 C 
ATOM     22  C   UNL     1      48.109   8.753  14.878  0.00  0.00    +0.000 C 
ATOM     23  C   UNL     1      49.479   9.348  15.205  0.00  0.00    +0.000 C 
ATOM     24  O   UNL     1      50.147   8.339  14.395  0.00  0.00    +0.000 OA
BRANCH  21  25
ATOM     25  C   UNL     1      49.034   6.371  15.584  0.00  0.00    +0.000 C 
ATOM     26  N   UNL     1      47.822   5.854  15.967  0.00  0.00    +0.000 N 
ATOM     27  O   UNL     1      50.061   5.954  16.114  0.00  0.00    +0.000 OA
ATOM     28  H   UNL     1      46.962   6.202  15.556  0.00  0.00    +0.000 HD
ATOM     29  H   UNL     1      47.792   5.145  16.685  0.00  0.00    +0.000 HD
ENDBRANCH  21  25
ENDBRANCH  20  21
ENDBRANCH   3  20
TORSDOF 6
ENDMDL
MODEL 3
REMARK VINA RESULT:    -8.029      1.932      2.722
REMARK INTER + INTRA:         -11.886
REMARK INTER:                 -10.476
REMARK INTRA:                  -1.410
REMARK UNBOUND:                -1.041
REMARK  Name = 
REMARK  9 active torsions:
REMARK  status: ('A' for Active; 'I' for Inactive)
REMARK    1  A    between atoms: C_1  and  C_2
REMARK    2  A    between atoms: N_6  and  C_7
REMARK    3  A    between atoms: C_7  and  C_8
REMARK    4  A    between atoms: C_8  and  C_9
REMARK    5  A    between atoms: C_8  and  C_10
REMARK    6  A    between atoms: C_8  and  C_11
REMARK    7  A    between atoms: C_13  and  C_14
REMARK    8  A    between atoms: C_14  and  C_15
REMARK    9  A    between atoms: C_15  and  C_16
REMARK                            x       y       z     vdW  Elec       q    Type
REMARK                         _______ _______ _______ _____ _____    ______ ____
ROOT
ATOM      1  C   UNL     1      44.611   6.465  12.140  0.00  0.00    +0.000 A 
ATOM      2  C   UNL     1      45.723   6.834  12.897  0.00  0.00    +0.000 A 
ATOM      3  C   UNL     1      46.256   8.120  12.802  0.00  0.00    +0.000 A 
ATOM      4  C   UNL     1      45.578   9.032  11.981  0.00  0.00    +0.000 A 
ATOM      5  C   UNL     1      44.462   8.611  11.283  0.00  0.00    +0.000 A 
ATOM      6  N   UNL     1      43.980   7.353  11.333  0.00  0.00    +0.000 NA
ENDROOT
BRANCH   1   7
ATOM      7  C   UNL     1      44.083   5.019  12.185  0.00  0.00    +0.000 C 
ATOM      8  C   UNL     1      42.909   4.926  13.182  0.00  0.00    +0.000 C 
ATOM      9  C   UNL     1      45.231   4.086  12.624  0.00  0.00    +0.000 C 
BRANCH   7  10
ATOM     10  C   UNL     1      43.597   4.621  10.768  0.00  0.00    +0.000 C 
BRANCH  10  16
ATOM     11  C   UNL     1      47.566   1.555   6.498  0.00  0.00    +0.000 C 
ATOM     12  C   UNL     1      46.737   2.422   7.385  0.00  0.00    +0.000 A 
ATOM     13  C   UNL     1      45.952   1.890   8.400  0.00  0.00    +0.000 A 
ATOM     14  C   UNL     1      45.188   2.742   9.191  0.00  0.00    +0.000 A 
ATOM     15  C   UNL     1      45.219   4.114   8.961  0.00  0.00    +0.000 A 
ATOM     16  N   UNL     1      44.495   5.015   9.698  0.00  0.00    +0.000 N 
ATOM     17  N   UNL     1      45.976   4.646   7.984  0.00  0.00    +0.000 NA
ATOM     18  C   UNL     1      46.709   3.800   7.223  0.00  0.00    +0.000 A 
ATOM     19  H   UNL     1      44.625   5.976   9.418  0.00  0.00    +0.000 HD
ENDBRANCH  10  16
ENDBRANCH   7  10
ENDBRANCH   1   7
BRANCH   3  20
ATOM     20  C   UNL     1      47.433   8.612  13.614  0.00  0.00    +0.000 C 
BRANCH  20  21
ATOM     21  C   UNL     1      48.823   7.995  13.357  0.00  0.00    +0.000 C 
ATOM     22  C   UNL     1      50.017   8.917  12.986  0.00  0.00    +0.000 C 
ATOM     23  C   UNL     1      50.276   7.886  11.887  0.00  0.00    +0.000 C 
ATOM     24  O   UNL     1      48.932   7.344  12.033  0.00  0.00    +0.000 OA
BRANCH  21  25
ATOM     25  C   UNL     1      49.153   6.955  14.548  0.00  0.00    +0.000 C 
ATOM     26  N   UNL     1      50.184   7.356  15.361  0.00  0.00    +0.000 N 
ATOM     27  O   UNL     1      48.588   5.888  14.773  0.00  0.00    +0.000 OA
ATOM     28  H   UNL     1      50.677   8.223  15.175  0.00  0.00    +0.000 HD
ATOM     29  H   UNL     1      50.467   6.762  16.126  0.00  0.00    +0.000 HD
ENDBRANCH  21  25
ENDBRANCH  20  21
ENDBRANCH   3  20
TORSDOF 6
ENDMDL
MODEL 4
REMARK VINA RESULT:    -7.962      1.437      2.348
REMARK INTER + INTRA:         -11.795
REMARK INTER:                 -10.911
REMARK INTRA:                  -0.884
REMARK UNBOUND:                -1.041
REMARK  Name = 
REMARK  9 active torsions:
REMARK  status: ('A' for Active; 'I' for Inactive)
REMARK    1  A    between atoms: C_1  and  C_2
REMARK    2  A    between atoms: N_6  and  C_7
REMARK    3  A    between atoms: C_7  and  C_8
REMARK    4  A    between atoms: C_8  and  C_9
REMARK    5  A    between atoms: C_8  and  C_10
REMARK    6  A    between atoms: C_8  and  C_11
REMARK    7  A    between atoms: C_13  and  C_14
REMARK    8  A    between atoms: C_14  and  C_15
REMARK    9  A    between atoms: C_15  and  C_16
REMARK                            x       y       z     vdW  Elec       q    Type
REMARK                         _______ _______ _______ _____ _____    ______ ____
ROOT
ATOM      1  C   UNL     1      45.033   5.598  12.005  0.00  0.00    +0.000 A 
ATOM      2  C   UNL     1      46.400   5.804  12.188  0.00  0.00    +0.000 A 
ATOM      3  C   UNL     1      46.970   7.057  11.962  0.00  0.00    +0.000 A 
ATOM      4  C   UNL     1      46.098   8.102  11.625  0.00  0.00    +0.000 A 
ATOM      5  C   UNL     1      44.748   7.838  11.492  0.00  0.00    +0.000 A 
ATOM      6  N   UNL     1      44.207   6.614  11.657  0.00  0.00    +0.000 NA
ENDROOT
BRANCH   1   7
ATOM      7  C   UNL     1      44.427   4.192  12.172  0.00  0.00    +0.000 C 
ATOM      8  C   UNL     1      43.313   4.230  13.239  0.00  0.00    +0.000 C 
ATOM      9  C   UNL     1      45.545   3.218  12.603  0.00  0.00    +0.000 C 
BRANCH   7  10
ATOM     10  C   UNL     1      43.834   3.740  10.813  0.00  0.00    +0.000 C 
BRANCH  10  16
ATOM     11  C   UNL     1      47.721   2.374   5.674  0.00  0.00    +0.000 C 
ATOM     12  C   UNL     1      46.841   2.484   6.874  0.00  0.00    +0.000 A 
ATOM     13  C   UNL     1      46.281   3.695   7.261  0.00  0.00    +0.000 A 
ATOM     14  C   UNL     1      45.477   3.745   8.395  0.00  0.00    +0.000 A 
ATOM     15  C   UNL     1      45.240   2.586   9.128  0.00  0.00    +0.000 A 
ATOM     16  N   UNL     1      44.460   2.556  10.254  0.00  0.00    +0.000 N 
ATOM     17  N   UNL     1      45.772   1.404   8.766  0.00  0.00    +0.000 NA
ATOM     18  C   UNL     1      46.554   1.377   7.661  0.00  0.00    +0.000 A 
ATOM     19  H   UNL     1      44.375   1.642  10.674  0.00  0.00    +0.000 HD
ENDBRANCH  10  16
ENDBRANCH   7  10
ENDBRANCH   1   7
BRANCH   3  20
ATOM     20  C   UNL     1      48.433   7.374  12.174  0.00  0.00    +0.000 C 
BRANCH  20  21
ATOM     21  C   UNL     1      48.909   7.778  13.585  0.00  0.00    +0.000 C 
ATOM     22  C   UNL     1      50.427   7.782  13.913  0.00  0.00    +0.000 C 
ATOM     23  C   UNL     1      50.003   7.034  15.176  0.00  0.00    +0.000 C 
ATOM     24  O   UNL     1      48.709   6.712  14.591  0.00  0.00    +0.000 OA
BRANCH  21  25
ATOM     25  C   UNL     1      48.150   9.137  14.015  0.00  0.00    +0.000 C 
ATOM     26  N   UNL     1      47.190   8.953  14.978  0.00  0.00    +0.000 N 
ATOM     27  O   UNL     1      48.350  10.265  13.571  0.00  0.00    +0.000 OA
ATOM     28  H   UNL     1      46.996   8.024  15.338  0.00  0.00    +0.000 HD
ATOM     29  H   UNL     1      46.656   9.746  15.300  0.00  0.00    +0.000 HD
ENDBRANCH  21  25
ENDBRANCH  20  21
ENDBRANCH   3  20
TORSDOF 6
ENDMDL
MODEL 5
REMARK VINA RESULT:    -7.894      1.565      2.021
REMARK INTER + INTRA:         -11.704
REMARK INTER:                 -10.699
REMARK INTRA:                  -1.005
REMARK UNBOUND:                -1.041
REMARK  Name = 
REMARK  9 active torsions:
REMARK  status: ('A' for Active; 'I' for Inactive)
REMARK    1  A    between atoms: C_1  and  C_2
REMARK    2  A    between atoms: N_6  and  C_7
REMARK    3  A    between atoms: C_7  and  C_8
REMARK    4  A    between atoms: C_8  and  C_9
REMARK    5  A    between atoms: C_8  and  C_10
REMARK    6  A    between atoms: C_8  and  C_11
REMARK    7  A    between atoms: C_13  and  C_14
REMARK    8  A    between atoms: C_14  and  C_15
REMARK    9  A    between atoms: C_15  and  C_16
REMARK                            x       y       z     vdW  Elec       q    Type
REMARK                         _______ _______ _______ _____ _____    ______ ____
ROOT
ATOM      1  C   UNL     1      45.072   5.057  12.552  0.00  0.00    +0.000 A 
ATOM      2  C   UNL     1      45.992   5.986  13.038  0.00  0.00    +0.000 A 
ATOM      3  C   UNL     1      47.132   5.570  13.727  0.00  0.00    +0.000 A 
ATOM      4  C   UNL     1      47.343   4.188  13.832  0.00  0.00    +0.000 A 
ATOM      5  C   UNL     1      46.409   3.320  13.299  0.00  0.00    +0.000 A 
ATOM      6  N   UNL     1      45.280   3.724  12.682  0.00  0.00    +0.000 NA
ENDROOT
BRANCH   1   7
ATOM      7  C   UNL     1      43.774   5.529  11.871  0.00  0.00    +0.000 C 
ATOM      8  C   UNL     1      43.894   7.022  11.503  0.00  0.00    +0.000 C 
ATOM      9  C   UNL     1      42.596   5.312  12.845  0.00  0.00    +0.000 C 
BRANCH   7  10
ATOM     10  C   UNL     1      43.552   4.691  10.586  0.00  0.00    +0.000 C 
BRANCH  10  16
ATOM     11  C   UNL     1      47.532   1.277   6.600  0.00  0.00    +0.000 C 
ATOM     12  C   UNL     1      46.705   2.215   7.413  0.00  0.00    +0.000 A 
ATOM     13  C   UNL     1      45.893   1.767   8.447  0.00  0.00    +0.000 A 
ATOM     14  C   UNL     1      45.133   2.682   9.166  0.00  0.00    +0.000 A 
ATOM     15  C   UNL     1      45.193   4.035   8.846  0.00  0.00    +0.000 A 
ATOM     16  N   UNL     1      44.474   4.996   9.509  0.00  0.00    +0.000 N 
ATOM     17  N   UNL     1      45.976   4.488   7.850  0.00  0.00    +0.000 NA
ATOM     18  C   UNL     1      46.706   3.580   7.159  0.00  0.00    +0.000 A 
ATOM     19  H   UNL     1      44.628   5.934   9.169  0.00  0.00    +0.000 HD
ENDBRANCH  10  16
ENDBRANCH   7  10
ENDBRANCH   1   7
BRANCH   3  20
ATOM     20  C   UNL     1      48.196   6.508  14.251  0.00  0.00    +0.000 C 
BRANCH  20  21
ATOM     21  C   UNL     1      48.693   7.650  13.340  0.00  0.00    +0.000 C 
ATOM     22  C   UNL     1      48.488   7.552  11.804  0.00  0.00    +0.000 C 
ATOM     23  C   UNL     1      49.955   7.977  11.733  0.00  0.00    +0.000 C 
ATOM     24  O   UNL     1      50.158   7.628  13.132  0.00  0.00    +0.000 OA
BRANCH  21  25
ATOM     25  C   UNL     1      48.213   9.057  13.970  0.00  0.00    +0.000 C 
ATOM     26  N   UNL     1      46.889   9.075  14.334  0.00  0.00    +0.000 N 
ATOM     27  O   UNL     1      48.898  10.062  14.139  0.00  0.00    +0.000 OA
ATOM     28  H   UNL     1      46.303   8.262  14.180  0.00  0.00    +0.000 HD
ATOM     29  H   UNL     1      46.498   9.919  14.727  0.00  0.00    +0.000 HD
ENDBRANCH  21  25
ENDBRANCH  20  21
ENDBRANCH   3  20
TORSDOF 6
ENDMDL
MODEL 6
REMARK VINA RESULT:    -7.558      3.044      4.129
REMARK INTER + INTRA:         -11.250
REMARK INTER:                 -10.577
REMARK INTRA:                  -0.673
REMARK UNBOUND:                -1.041
REMARK  Name = 
REMARK  9 active torsions:
REMARK  status: ('A' for Active; 'I' for Inactive)
REMARK    1  A    between atoms: C_1  and  C_2
REMARK    2  A    between atoms: N_6  and  C_7
REMARK    3  A    between atoms: C_7  and  C_8
REMARK    4  A    between atoms: C_8  and  C_9
REMARK    5  A    between atoms: C_8  and  C_10
REMARK    6  A    between atoms: C_8  and  C_11
REMARK    7  A    between atoms: C_13  and  C_14
REMARK    8  A    between atoms: C_14  and  C_15
REMARK    9  A    between atoms: C_15  and  C_16
REMARK                            x       y       z     vdW  Elec       q    Type
REMARK                         _______ _______ _______ _____ _____    ______ ____
ROOT
ATOM      1  C   UNL     1      45.238   4.748  12.874  0.00  0.00    +0.000 A 
ATOM      2  C   UNL     1      46.022   5.472  13.772  0.00  0.00    +0.000 A 
ATOM      3  C   UNL     1      47.053   4.853  14.480  0.00  0.00    +0.000 A 
ATOM      4  C   UNL     1      47.308   3.507  14.187  0.00  0.00    +0.000 A 
ATOM      5  C   UNL     1      46.515   2.856  13.261  0.00  0.00    +0.000 A 
ATOM      6  N   UNL     1      45.484   3.440  12.618  0.00  0.00    +0.000 NA
ENDROOT
BRANCH   1   7
ATOM      7  C   UNL     1      44.048   5.418  12.162  0.00  0.00    +0.000 C 
ATOM      8  C   UNL     1      44.394   6.887  11.844  0.00  0.00    +0.000 C 
ATOM      9  C   UNL     1      42.814   5.348  13.088  0.00  0.00    +0.000 C 
BRANCH   7  10
ATOM     10  C   UNL     1      43.759   4.653  10.846  0.00  0.00    +0.000 C 
BRANCH  10  16
ATOM     11  C   UNL     1      47.465   1.470   6.428  0.00  0.00    +0.000 C 
ATOM     12  C   UNL     1      46.698   2.361   7.346  0.00  0.00    +0.000 A 
ATOM     13  C   UNL     1      45.938   1.853   8.392  0.00  0.00    +0.000 A 
ATOM     14  C   UNL     1      45.231   2.727   9.210  0.00  0.00    +0.000 A 
ATOM     15  C   UNL     1      45.293   4.097   8.977  0.00  0.00    +0.000 A 
ATOM     16  N   UNL     1      44.625   5.020   9.741  0.00  0.00    +0.000 N 
ATOM     17  N   UNL     1      46.026   4.607   7.971  0.00  0.00    +0.000 NA
ATOM     18  C   UNL     1      46.704   3.739   7.183  0.00  0.00    +0.000 A 
ATOM     19  H   UNL     1      44.772   5.976   9.455  0.00  0.00    +0.000 HD
ENDBRANCH  10  16
ENDBRANCH   7  10
ENDBRANCH   1   7
BRANCH   3  20
ATOM     20  C   UNL     1      47.972   5.573  15.441  0.00  0.00    +0.000 C 
BRANCH  20  21
ATOM     21  C   UNL     1      48.428   4.842  16.722  0.00  0.00    +0.000 C 
ATOM     22  C   UNL     1      49.605   5.416  17.556  0.00  0.00    +0.000 C 
ATOM     23  C   UNL     1      50.113   3.975  17.552  0.00  0.00    +0.000 C 
ATOM     24  O   UNL     1      49.233   3.634  16.443  0.00  0.00    +0.000 OA
BRANCH  21  25
ATOM     25  C   UNL     1      47.123   4.485  17.603  0.00  0.00    +0.000 C 
ATOM     26  N   UNL     1      46.714   3.180  17.480  0.00  0.00    +0.000 N 
ATOM     27  O   UNL     1      46.496   5.247  18.335  0.00  0.00    +0.000 OA
ATOM     28  H   UNL     1      47.206   2.544  16.862  0.00  0.00    +0.000 HD
ATOM     29  H   UNL     1      45.898   2.870  17.987  0.00  0.00    +0.000 HD
ENDBRANCH  21  25
ENDBRANCH  20  21
ENDBRANCH   3  20
TORSDOF 6
ENDMDL
MODEL 7
REMARK VINA RESULT:    -7.167      2.508      3.657
REMARK INTER + INTRA:         -10.721
REMARK INTER:                 -10.941
REMARK INTRA:                   0.219
REMARK UNBOUND:                -1.041
REMARK  Name = 
REMARK  9 active torsions:
REMARK  status: ('A' for Active; 'I' for Inactive)
REMARK    1  A    between atoms: C_1  and  C_2
REMARK    2  A    between atoms: N_6  and  C_7
REMARK    3  A    between atoms: C_7  and  C_8
REMARK    4  A    between atoms: C_8  and  C_9
REMARK    5  A    between atoms: C_8  and  C_10
REMARK    6  A    between atoms: C_8  and  C_11
REMARK    7  A    between atoms: C_13  and  C_14
REMARK    8  A    between atoms: C_14  and  C_15
REMARK    9  A    between atoms: C_15  and  C_16
REMARK                            x       y       z     vdW  Elec       q    Type
REMARK                         _______ _______ _______ _____ _____    ______ ____
ROOT
ATOM      1  C   UNL     1      45.218   4.768  12.688  0.00  0.00    +0.000 A 
ATOM      2  C   UNL     1      45.520   4.284  13.961  0.00  0.00    +0.000 A 
ATOM      3  C   UNL     1      46.720   4.625  14.588  0.00  0.00    +0.000 A 
ATOM      4  C   UNL     1      47.555   5.529  13.918  0.00  0.00    +0.000 A 
ATOM      5  C   UNL     1      47.181   5.997  12.673  0.00  0.00    +0.000 A 
ATOM      6  N   UNL     1      46.048   5.624  12.044  0.00  0.00    +0.000 NA
ENDROOT
BRANCH   1   7
ATOM      7  C   UNL     1      43.934   4.318  11.968  0.00  0.00    +0.000 C 
ATOM      8  C   UNL     1      42.802   5.330  12.243  0.00  0.00    +0.000 C 
ATOM      9  C   UNL     1      43.538   2.920  12.489  0.00  0.00    +0.000 C 
BRANCH   7  10
ATOM     10  C   UNL     1      44.214   4.249  10.445  0.00  0.00    +0.000 C 
BRANCH  10  16
ATOM     11  C   UNL     1      47.914   2.176   5.406  0.00  0.00    +0.000 C 
ATOM     12  C   UNL     1      47.067   2.451   6.603  0.00  0.00    +0.000 A 
ATOM     13  C   UNL     1      46.578   3.722   6.876  0.00  0.00    +0.000 A 
ATOM     14  C   UNL     1      45.803   3.927   8.011  0.00  0.00    +0.000 A 
ATOM     15  C   UNL     1      45.522   2.861   8.860  0.00  0.00    +0.000 A 
ATOM     16  N   UNL     1      44.766   2.985   9.997  0.00  0.00    +0.000 N 
ATOM     17  N   UNL     1      45.984   1.622   8.610  0.00  0.00    +0.000 NA
ATOM     18  C   UNL     1      46.741   1.444   7.501  0.00  0.00    +0.000 A 
ATOM     19  H   UNL     1      44.643   2.122  10.507  0.00  0.00    +0.000 HD
ENDBRANCH  10  16
ENDBRANCH   7  10
ENDBRANCH   1   7
BRANCH   3  20
ATOM     20  C   UNL     1      47.106   4.176  15.980  0.00  0.00    +0.000 C 
BRANCH  20  21
ATOM     21  C   UNL     1      48.362   4.786  16.635  0.00  0.00    +0.000 C 
ATOM     22  C   UNL     1      48.221   6.020  17.567  0.00  0.00    +0.000 C 
ATOM     23  C   UNL     1      49.391   6.577  16.757  0.00  0.00    +0.000 C 
ATOM     24  O   UNL     1      49.165   5.603  15.699  0.00  0.00    +0.000 OA
BRANCH  21  25
ATOM     25  C   UNL     1      49.243   3.591  17.271  0.00  0.00    +0.000 C 
ATOM     26  N   UNL     1      49.020   3.394  18.611  0.00  0.00    +0.000 N 
ATOM     27  O   UNL     1      50.056   2.882  16.684  0.00  0.00    +0.000 OA
ATOM     28  H   UNL     1      48.369   3.986  19.116  0.00  0.00    +0.000 HD
ATOM     29  H   UNL     1      49.535   2.674  19.096  0.00  0.00    +0.000 HD
ENDBRANCH  21  25
ENDBRANCH  20  21
ENDBRANCH   3  20
TORSDOF 6
ENDMDL
MODEL 8
REMARK VINA RESULT:    -7.082      5.265      8.433
REMARK INTER + INTRA:         -10.607
REMARK INTER:                  -9.768
REMARK INTRA:                  -0.839
REMARK UNBOUND:                -1.041
REMARK  Name = 
REMARK  9 active torsions:
REMARK  status: ('A' for Active; 'I' for Inactive)
REMARK    1  A    between atoms: C_1  and  C_2
REMARK    2  A    between atoms: N_6  and  C_7
REMARK    3  A    between atoms: C_7  and  C_8
REMARK    4  A    between atoms: C_8  and  C_9
REMARK    5  A    between atoms: C_8  and  C_10
REMARK    6  A    between atoms: C_8  and  C_11
REMARK    7  A    between atoms: C_13  and  C_14
REMARK    8  A    between atoms: C_14  and  C_15
REMARK    9  A    between atoms: C_15  and  C_16
REMARK                            x       y       z     vdW  Elec       q    Type
REMARK                         _______ _______ _______ _____ _____    ______ ____
ROOT
ATOM      1  C   UNL     1      47.716   4.688  15.786  0.00  0.00    +0.000 A 
ATOM      2  C   UNL     1      46.939   3.906  14.932  0.00  0.00    +0.000 A 
ATOM      3  C   UNL     1      46.650   4.335  13.636  0.00  0.00    +0.000 A 
ATOM      4  C   UNL     1      47.238   5.536  13.216  0.00  0.00    +0.000 A 
ATOM      5  C   UNL     1      48.025   6.247  14.102  0.00  0.00    +0.000 A 
ATOM      6  N   UNL     1      48.259   5.859  15.372  0.00  0.00    +0.000 NA
ENDROOT
BRANCH   1   7
ATOM      7  C   UNL     1      47.957   4.249  17.242  0.00  0.00    +0.000 C 
ATOM      8  C   UNL     1      47.240   2.908  17.504  0.00  0.00    +0.000 C 
ATOM      9  C   UNL     1      47.409   5.340  18.187  0.00  0.00    +0.000 C 
BRANCH   7  10
ATOM     10  C   UNL     1      49.481   4.079  17.466  0.00  0.00    +0.000 C 
BRANCH  10  16
ATOM     11  C   UNL     1      55.188   0.887  18.260  0.00  0.00    +0.000 C 
ATOM     12  C   UNL     1      53.824   1.436  18.005  0.00  0.00    +0.000 A 
ATOM     13  C   UNL     1      53.525   2.776  18.215  0.00  0.00    +0.000 A 
ATOM     14  C   UNL     1      52.234   3.234  17.973  0.00  0.00    +0.000 A 
ATOM     15  C   UNL     1      51.258   2.350  17.522  0.00  0.00    +0.000 A 
ATOM     16  N   UNL     1      49.966   2.727  17.262  0.00  0.00    +0.000 N 
ATOM     17  N   UNL     1      51.531   1.050  17.310  0.00  0.00    +0.000 NA
ATOM     18  C   UNL     1      52.793   0.622  17.555  0.00  0.00    +0.000 A 
ATOM     19  H   UNL     1      49.376   1.977  16.934  0.00  0.00    +0.000 HD
ENDBRANCH  10  16
ENDBRANCH   7  10
ENDBRANCH   1   7
BRANCH   3  20
ATOM     20  C   UNL     1      45.850   3.531  12.635  0.00  0.00    +0.000 C 
BRANCH  20  21
ATOM     21  C   UNL     1      44.391   3.943  12.348  0.00  0.00    +0.000 C 
ATOM     22  C   UNL     1      44.061   5.424  12.018  0.00  0.00    +0.000 C 
ATOM     23  C   UNL     1      42.933   5.242  13.033  0.00  0.00    +0.000 C 
ATOM     24  O   UNL     1      43.567   4.047  13.573  0.00  0.00    +0.000 OA
BRANCH  21  25
ATOM     25  C   UNL     1      43.755   2.889  11.303  0.00  0.00    +0.000 C 
ATOM     26  N   UNL     1      44.194   3.057  10.013  0.00  0.00    +0.000 N 
ATOM     27  O   UNL     1      42.949   1.996  11.554  0.00  0.00    +0.000 OA
ATOM     28  H   UNL     1      44.841   3.804   9.784  0.00  0.00    +0.000 HD
ATOM     29  H   UNL     1      43.840   2.449   9.289  0.00  0.00    +0.000 HD
ENDBRANCH  21  25
ENDBRANCH  20  21
ENDBRANCH   3  20
TORSDOF 6
ENDMDL
MODEL 9
REMARK VINA RESULT:    -6.624      3.377      6.417
REMARK INTER + INTRA:          -9.989
REMARK INTER:                  -8.805
REMARK INTRA:                  -1.184
REMARK UNBOUND:                -1.041
REMARK  Name = 
REMARK  9 active torsions:
REMARK  status: ('A' for Active; 'I' for Inactive)
REMARK    1  A    between atoms: C_1  and  C_2
REMARK    2  A    between atoms: N_6  and  C_7
REMARK    3  A    between atoms: C_7  and  C_8
REMARK    4  A    between atoms: C_8  and  C_9
REMARK    5  A    between atoms: C_8  and  C_10
REMARK    6  A    between atoms: C_8  and  C_11
REMARK    7  A    between atoms: C_13  and  C_14
REMARK    8  A    between atoms: C_14  and  C_15
REMARK    9  A    between atoms: C_15  and  C_16
REMARK                            x       y       z     vdW  Elec       q    Type
REMARK                         _______ _______ _______ _____ _____    ______ ____
ROOT
ATOM      1  C   UNL     1      49.274   7.837  14.018  0.00  0.00    +0.000 A 
ATOM      2  C   UNL     1      48.541   7.146  14.983  0.00  0.00    +0.000 A 
ATOM      3  C   UNL     1      49.164   6.631  16.120  0.00  0.00    +0.000 A 
ATOM      4  C   UNL     1      50.528   6.910  16.280  0.00  0.00    +0.000 A 
ATOM      5  C   UNL     1      51.189   7.629  15.303  0.00  0.00    +0.000 A 
ATOM      6  N   UNL     1      50.598   8.079  14.178  0.00  0.00    +0.000 NA
ENDROOT
BRANCH   1   7
ATOM      7  C   UNL     1      48.595   8.325  12.725  0.00  0.00    +0.000 C 
ATOM      8  C   UNL     1      49.282   7.681  11.503  0.00  0.00    +0.000 C 
ATOM      9  C   UNL     1      48.712   9.863  12.654  0.00  0.00    +0.000 C 
BRANCH   7  10
ATOM     10  C   UNL     1      47.101   7.915  12.760  0.00  0.00    +0.000 C 
BRANCH  10  16
ATOM     11  C   UNL     1      43.324   2.593  11.870  0.00  0.00    +0.000 C 
ATOM     12  C   UNL     1      44.217   3.788  11.873  0.00  0.00    +0.000 A 
ATOM     13  C   UNL     1      44.561   4.440  13.050  0.00  0.00    +0.000 A 
ATOM     14  C   UNL     1      45.387   5.557  12.996  0.00  0.00    +0.000 A 
ATOM     15  C   UNL     1      45.862   6.009  11.768  0.00  0.00    +0.000 A 
ATOM     16  N   UNL     1      46.680   7.101  11.635  0.00  0.00    +0.000 N 
ATOM     17  N   UNL     1      45.542   5.387  10.619  0.00  0.00    +0.000 NA
ATOM     18  C   UNL     1      44.733   4.303  10.692  0.00  0.00    +0.000 A 
ATOM     19  H   UNL     1      46.948   7.302  10.683  0.00  0.00    +0.000 HD
ENDBRANCH  10  16
ENDBRANCH   7  10
ENDBRANCH   1   7
BRANCH   3  20
ATOM     20  C   UNL     1      48.437   5.905  17.230  0.00  0.00    +0.000 C 
BRANCH  20  21
ATOM     21  C   UNL     1      48.628   4.380  17.370  0.00  0.00    +0.000 C 
ATOM     22  C   UNL     1      49.109   3.787  18.722  0.00  0.00    +0.000 C 
ATOM     23  C   UNL     1      50.082   2.990  17.854  0.00  0.00    +0.000 C 
ATOM     24  O   UNL     1      49.869   3.891  16.730  0.00  0.00    +0.000 OA
BRANCH  21  25
ATOM     25  C   UNL     1      47.327   3.640  16.764  0.00  0.00    +0.000 C 
ATOM     26  N   UNL     1      47.260   3.674  15.394  0.00  0.00    +0.000 N 
ATOM     27  O   UNL     1      46.435   3.081  17.398  0.00  0.00    +0.000 OA
ATOM     28  H   UNL     1      47.976   4.152  14.856  0.00  0.00    +0.000 HD
ATOM     29  H   UNL     1      46.474   3.245  14.928  0.00  0.00    +0.000 HD
ENDBRANCH  21  25
ENDBRANCH  20  21
ENDBRANCH   3  20
TORSDOF 6
ENDMDL
