MODEL 1
REMARK VINA RESULT:    -7.405      0.000      0.000
REMARK INTER + INTRA:          -9.634
REMARK INTER:                  -9.137
REMARK INTRA:                  -0.498
REMARK UNBOUND:                -0.498
REMARK  Name = 
REMARK  5 active torsions:
REMARK  status: ('A' for Active; 'I' for Inactive)
REMARK    1  A    between atoms: C_1  and  O_2
REMARK    2  A    between atoms: O_2  and  C_3
REMARK    3  A    between atoms: C_8  and  C_9
REMARK    4  A    between atoms: C_9  and  N_10
REMARK    5  A    between atoms: C_15  and  C_16
REMARK                            x       y       z     vdW  Elec       q    Type
REMARK                         _______ _______ _______ _____ _____    ______ ____
ROOT
ATOM      1  N   UNL     1      44.302   4.481  10.467  0.00  0.00    +0.000 N 
ATOM      2  C   UNL     1      43.694   3.369  11.005  0.00  0.00    +0.000 A 
ATOM      3  C   UNL     1      44.133   2.261  10.314  0.00  0.00    +0.000 A 
ATOM      4  C   UNL     1      45.031   2.710   9.310  0.00  0.00    +0.000 A 
ATOM      5  C   UNL     1      45.750   2.087   8.275  0.00  0.00    +0.000 A 
ATOM      6  C   UNL     1      46.523   2.896   7.436  0.00  0.00    +0.000 A 
ATOM      7  C   UNL     1      46.560   4.268   7.694  0.00  0.00    +0.000 A 
ATOM      8  N   UNL     1      45.881   4.920   8.675  0.00  0.00    +0.000 NA
ATOM      9  C   UNL     1      45.135   4.094   9.441  0.00  0.00    +0.000 A 
ENDROOT
BRANCH   6  10
ATOM     10  C   UNL     1      47.287   2.382   6.273  0.00  0.00    +0.000 C 
ATOM     11  N   UNL     1      47.228   3.069   5.092  0.00  0.00    +0.000 N 
ATOM     12  O   UNL     1      47.980   1.371   6.358  0.00  0.00    +0.000 OA
ATOM     13  H   UNL     1      46.732   3.934   4.942  0.00  0.00    +0.000 HD
ATOM     14  H   UNL     1      47.797   2.720   4.329  0.00  0.00    +0.000 HD
ENDBRANCH   6  10
BRANCH   1  15
ATOM     15  C   UNL     1      43.906   5.853  10.750  0.00  0.00    +0.000 C 
BRANCH  15  21
ATOM     16  C   UNL     1      44.880   8.010  11.708  0.00  0.00    +0.000 A 
ATOM     17  C   UNL     1      45.876   8.652  12.454  0.00  0.00    +0.000 A 
ATOM     18  C   UNL     1      46.820   7.910  13.168  0.00  0.00    +0.000 A 
ATOM     19  C   UNL     1      46.758   6.521  13.169  0.00  0.00    +0.000 A 
ATOM     20  C   UNL     1      45.770   5.871  12.430  0.00  0.00    +0.000 A 
ATOM     21  C   UNL     1      44.840   6.603  11.669  0.00  0.00    +0.000 A 
BRANCH  16  23
ATOM     22  C   UNL     1      43.934  10.085  11.008  0.00  0.00    +0.000 C 
ATOM     23  O   UNL     1      43.915   8.663  10.984  0.00  0.00    +0.000 OA
ENDBRANCH  16  23
ENDBRANCH  15  21
ENDBRANCH   1  15
TORSDOF 4
ENDMDL
MODEL 2
REMARK VINA RESULT:    -6.889      3.366      6.725
REMARK INTER + INTRA:          -8.998
REMARK INTER:                  -8.356
REMARK INTRA:                  -0.642
REMARK UNBOUND:                -0.498
REMARK  Name = 
REMARK  5 active torsions:
REMARK  status: ('A' for Active; 'I' for Inactive)
REMARK    1  A    between atoms: C_1  and  O_2
REMARK    2  A    between atoms: O_2  and  C_3
REMARK    3  A    between atoms: C_8  and  C_9
REMARK    4  A    between atoms: C_9  and  N_10
REMARK    5  A    between atoms: C_15  and  C_16
REMARK                            x       y       z     vdW  Elec       q    Type
REMARK                         _______ _______ _______ _____ _____    ______ ____
ROOT
ATOM      1  N   UNL     1      45.919   6.160  11.809  0.00  0.00    +0.000 N 
ATOM      2  C   UNL     1      46.649   7.326  11.748  0.00  0.00    +0.000 A 
ATOM      3  C   UNL     1      47.529   7.342  12.807  0.00  0.00    +0.000 A 
ATOM      4  C   UNL     1      47.323   6.150  13.552  0.00  0.00    +0.000 A 
ATOM      5  C   UNL     1      47.857   5.620  14.740  0.00  0.00    +0.000 A 
ATOM      6  C   UNL     1      47.355   4.397  15.195  0.00  0.00    +0.000 A 
ATOM      7  C   UNL     1      46.378   3.759  14.428  0.00  0.00    +0.000 A 
ATOM      8  N   UNL     1      45.824   4.229  13.279  0.00  0.00    +0.000 NA
ATOM      9  C   UNL     1      46.330   5.422  12.897  0.00  0.00    +0.000 A 
ENDROOT
BRANCH   6  10
ATOM     10  C   UNL     1      47.786   3.750  16.458  0.00  0.00    +0.000 C 
ATOM     11  N   UNL     1      46.829   3.288  17.320  0.00  0.00    +0.000 N 
ATOM     12  O   UNL     1      48.975   3.606  16.732  0.00  0.00    +0.000 OA
ATOM     13  H   UNL     1      45.834   3.313  17.158  0.00  0.00    +0.000 HD
ATOM     14  H   UNL     1      47.153   2.809  18.152  0.00  0.00    +0.000 HD
ENDBRANCH   6  10
BRANCH   1  15
ATOM     15  C   UNL     1      44.722   5.896  11.023  0.00  0.00    +0.000 C 
BRANCH  15  21
ATOM     16  C   UNL     1      44.194   3.628   9.978  0.00  0.00    +0.000 A 
ATOM     17  C   UNL     1      44.511   2.630   9.049  0.00  0.00    +0.000 A 
ATOM     18  C   UNL     1      45.501   2.841   8.086  0.00  0.00    +0.000 A 
ATOM     19  C   UNL     1      46.162   4.063   8.024  0.00  0.00    +0.000 A 
ATOM     20  C   UNL     1      45.854   5.065   8.944  0.00  0.00    +0.000 A 
ATOM     21  C   UNL     1      44.892   4.851   9.948  0.00  0.00    +0.000 A 
BRANCH  16  23
ATOM     22  C   UNL     1      43.343   2.393  11.833  0.00  0.00    +0.000 C 
ATOM     23  O   UNL     1      43.234   3.503  10.950  0.00  0.00    +0.000 OA
ENDBRANCH  16  23
ENDBRANCH  15  21
ENDBRANCH   1  15
TORSDOF 4
ENDMDL
MODEL 3
REMARK VINA RESULT:    -6.753      1.180      2.109
REMARK INTER + INTRA:          -8.830
REMARK INTER:                  -9.031
REMARK INTRA:                   0.201
REMARK UNBOUND:                -0.498
REMARK  Name = 
REMARK  5 active torsions:
REMARK  status: ('A' for Active; 'I' for Inactive)
REMARK    1  A    between atoms: C_1  and  O_2
REMARK    2  A    between atoms: O_2  and  C_3
REMARK    3  A    between atoms: C_8  and  C_9
REMARK    4  A    between atoms: C_9  and  N_10
REMARK    5  A    between atoms: C_15  and  C_16
REMARK                            x       y       z     vdW  Elec       q    Type
REMARK                         _______ _______ _______ _____ _____    ______ ____
ROOT
ATOM      1  N   UNL     1      44.068   4.383  10.717  0.00  0.00    +0.000 N 
ATOM      2  C   UNL     1      43.572   3.243  11.309  0.00  0.00    +0.000 A 
ATOM      3  C   UNL     1      44.064   2.153  10.626  0.00  0.00    +0.000 A 
ATOM      4  C   UNL     1      44.879   2.641   9.571  0.00  0.00    +0.000 A 
ATOM      5  C   UNL     1      45.597   2.046   8.518  0.00  0.00    +0.000 A 
ATOM      6  C   UNL     1      46.265   2.888   7.624  0.00  0.00    +0.000 A 
ATOM      7  C   UNL     1      46.209   4.265   7.846  0.00  0.00    +0.000 A 
ATOM      8  N   UNL     1      45.525   4.891   8.842  0.00  0.00    +0.000 NA
ATOM      9  C   UNL     1      44.881   4.032   9.662  0.00  0.00    +0.000 A 
ENDROOT
BRANCH   6  10
ATOM     10  C   UNL     1      47.014   2.401   6.439  0.00  0.00    +0.000 C 
ATOM     11  N   UNL     1      47.240   3.266   5.404  0.00  0.00    +0.000 N 
ATOM     12  O   UNL     1      47.447   1.252   6.382  0.00  0.00    +0.000 OA
ATOM     13  H   UNL     1      46.972   4.237   5.383  0.00  0.00    +0.000 HD
ATOM     14  H   UNL     1      47.794   2.919   4.629  0.00  0.00    +0.000 HD
ENDBRANCH   6  10
BRANCH   1  15
ATOM     15  C   UNL     1      43.580   5.728  10.985  0.00  0.00    +0.000 C 
BRANCH  15  21
ATOM     16  C   UNL     1      45.392   6.234  12.711  0.00  0.00    +0.000 A 
ATOM     17  C   UNL     1      46.189   7.172  13.377  0.00  0.00    +0.000 A 
ATOM     18  C   UNL     1      46.204   8.509  12.972  0.00  0.00    +0.000 A 
ATOM     19  C   UNL     1      45.446   8.914  11.879  0.00  0.00    +0.000 A 
ATOM     20  C   UNL     1      44.649   7.988  11.208  0.00  0.00    +0.000 A 
ATOM     21  C   UNL     1      44.588   6.648  11.631  0.00  0.00    +0.000 A 
BRANCH  16  23
ATOM     22  C   UNL     1      46.505   4.300  13.555  0.00  0.00    +0.000 C 
ATOM     23  O   UNL     1      45.324   4.904  13.040  0.00  0.00    +0.000 OA
ENDBRANCH  16  23
ENDBRANCH  15  21
ENDBRANCH   1  15
TORSDOF 4
ENDMDL
MODEL 4
REMARK VINA RESULT:    -6.550      3.172      6.291
REMARK INTER + INTRA:          -8.579
REMARK INTER:                  -7.900
REMARK INTRA:                  -0.679
REMARK UNBOUND:                -0.498
REMARK  Name = 
REMARK  5 active torsions:
REMARK  status: ('A' for Active; 'I' for Inactive)
REMARK    1  A    between atoms: C_1  and  O_2
REMARK    2  A    between atoms: O_2  and  C_3
REMARK    3  A    between atoms: C_8  and  C_9
REMARK    4  A    between atoms: C_9  and  N_10
REMARK    5  A    between atoms: C_15  and  C_16
REMARK                            x       y       z     vdW  Elec       q    Type
REMARK                         _______ _______ _______ _____ _____    ______ ____
ROOT
ATOM      1  N   UNL     1      45.401   5.721  12.337  0.00  0.00    +0.000 N 
ATOM      2  C   UNL     1      45.434   4.729  13.292  0.00  0.00    +0.000 A 
ATOM      3  C   UNL     1      46.611   4.848  13.997  0.00  0.00    +0.000 A 
ATOM      4  C   UNL     1      47.331   5.942  13.448  0.00  0.00    +0.000 A 
ATOM      5  C   UNL     1      48.590   6.519  13.687  0.00  0.00    +0.000 A 
ATOM      6  C   UNL     1      48.981   7.596  12.885  0.00  0.00    +0.000 A 
ATOM      7  C   UNL     1      48.086   8.056  11.917  0.00  0.00    +0.000 A 
ATOM      8  N   UNL     1      46.862   7.531  11.640  0.00  0.00    +0.000 NA
ATOM      9  C   UNL     1      46.545   6.481  12.429  0.00  0.00    +0.000 A 
ENDROOT
BRANCH   6  10
ATOM     10  C   UNL     1      50.301   8.264  12.990  0.00  0.00    +0.000 C 
ATOM     11  N   UNL     1      51.251   7.719  13.810  0.00  0.00    +0.000 N 
ATOM     12  O   UNL     1      50.560   9.278  12.345  0.00  0.00    +0.000 OA
ATOM     13  H   UNL     1      51.150   6.864  14.335  0.00  0.00    +0.000 HD
ATOM     14  H   UNL     1      52.158   8.170  13.826  0.00  0.00    +0.000 HD
ENDBRANCH   6  10
BRANCH   1  15
ATOM     15  C   UNL     1      44.450   5.771  11.235  0.00  0.00    +0.000 C 
BRANCH  15  21
ATOM     16  C   UNL     1      44.103   3.516  10.090  0.00  0.00    +0.000 A 
ATOM     17  C   UNL     1      44.510   2.578   9.133  0.00  0.00    +0.000 A 
ATOM     18  C   UNL     1      45.510   2.892   8.209  0.00  0.00    +0.000 A 
ATOM     19  C   UNL     1      46.089   4.156   8.213  0.00  0.00    +0.000 A 
ATOM     20  C   UNL     1      45.691   5.098   9.160  0.00  0.00    +0.000 A 
ATOM     21  C   UNL     1      44.718   4.783  10.126  0.00  0.00    +0.000 A 
BRANCH  16  23
ATOM     22  C   UNL     1      43.339   2.221  11.942  0.00  0.00    +0.000 C 
ATOM     23  O   UNL     1      43.128   3.290  11.027  0.00  0.00    +0.000 OA
ENDBRANCH  16  23
ENDBRANCH  15  21
ENDBRANCH   1  15
TORSDOF 4
ENDMDL
MODEL 5
REMARK VINA RESULT:    -6.359      4.783      6.922
REMARK INTER + INTRA:          -8.343
REMARK INTER:                  -7.846
REMARK INTRA:                  -0.497
REMARK UNBOUND:                -0.498
REMARK  Name = 
REMARK  5 active torsions:
REMARK  status: ('A' for Active; 'I' for Inactive)
REMARK    1  A    between atoms: C_1  and  O_2
REMARK    2  A    between atoms: O_2  and  C_3
REMARK    3  A    between atoms: C_8  and  C_9
REMARK    4  A    between atoms: C_9  and  N_10
REMARK    5  A    between atoms: C_15  and  C_16
REMARK                            x       y       z     vdW  Elec       q    Type
REMARK                         _______ _______ _______ _____ _____    ______ ____
ROOT
ATOM      1  N   UNL     1      47.407   5.044  15.101  0.00  0.00    +0.000 N 
ATOM      2  C   UNL     1      48.228   6.141  14.967  0.00  0.00    +0.000 A 
ATOM      3  C   UNL     1      47.972   6.726  13.746  0.00  0.00    +0.000 A 
ATOM      4  C   UNL     1      46.969   5.953  13.104  0.00  0.00    +0.000 A 
ATOM      5  C   UNL     1      46.336   5.999  11.849  0.00  0.00    +0.000 A 
ATOM      6  C   UNL     1      45.397   5.006  11.552  0.00  0.00    +0.000 A 
ATOM      7  C   UNL     1      45.120   4.048  12.529  0.00  0.00    +0.000 A 
ATOM      8  N   UNL     1      45.706   3.954  13.752  0.00  0.00    +0.000 NA
ATOM      9  C   UNL     1      46.619   4.924  13.978  0.00  0.00    +0.000 A 
ENDROOT
BRANCH   6  10
ATOM     10  C   UNL     1      44.695   4.900  10.250  0.00  0.00    +0.000 C 
ATOM     11  N   UNL     1      45.412   5.081   9.100  0.00  0.00    +0.000 N 
ATOM     12  O   UNL     1      43.496   4.637  10.187  0.00  0.00    +0.000 OA
ATOM     13  H   UNL     1      46.406   5.247   9.049  0.00  0.00    +0.000 HD
ATOM     14  H   UNL     1      44.916   4.957   8.225  0.00  0.00    +0.000 HD
ENDBRANCH   6  10
BRANCH   1  15
ATOM     15  C   UNL     1      47.557   4.025  16.130  0.00  0.00    +0.000 C 
BRANCH  15  21
ATOM     16  C   UNL     1      49.449   4.185  17.836  0.00  0.00    +0.000 A 
ATOM     17  C   UNL     1      49.883   4.534  19.120  0.00  0.00    +0.000 A 
ATOM     18  C   UNL     1      49.039   5.224  19.994  0.00  0.00    +0.000 A 
ATOM     19  C   UNL     1      47.765   5.598  19.581  0.00  0.00    +0.000 A 
ATOM     20  C   UNL     1      47.322   5.256  18.304  0.00  0.00    +0.000 A 
ATOM     21  C   UNL     1      48.143   4.522  17.429  0.00  0.00    +0.000 A 
BRANCH  16  23
ATOM     22  C   UNL     1      50.649   2.204  17.264  0.00  0.00    +0.000 C 
ATOM     23  O   UNL     1      50.215   3.513  16.917  0.00  0.00    +0.000 OA
ENDBRANCH  16  23
ENDBRANCH  15  21
ENDBRANCH   1  15
TORSDOF 4
ENDMDL
MODEL 6
REMARK VINA RESULT:    -6.277      3.186      6.745
REMARK INTER + INTRA:          -8.243
REMARK INTER:                  -7.829
REMARK INTRA:                  -0.414
REMARK UNBOUND:                -0.498
REMARK  Name = 
REMARK  5 active torsions:
REMARK  status: ('A' for Active; 'I' for Inactive)
REMARK    1  A    between atoms: C_1  and  O_2
REMARK    2  A    between atoms: O_2  and  C_3
REMARK    3  A    between atoms: C_8  and  C_9
REMARK    4  A    between atoms: C_9  and  N_10
REMARK    5  A    between atoms: C_15  and  C_16
REMARK                            x       y       z     vdW  Elec       q    Type
REMARK                         _______ _______ _______ _____ _____    ______ ____
ROOT
ATOM      1  N   UNL     1      45.032   6.766  11.697  0.00  0.00    +0.000 N 
ATOM      2  C   UNL     1      44.871   8.103  11.406  0.00  0.00    +0.000 A 
ATOM      3  C   UNL     1      45.822   8.814  12.102  0.00  0.00    +0.000 A 
ATOM      4  C   UNL     1      46.585   7.884  12.857  0.00  0.00    +0.000 A 
ATOM      5  C   UNL     1      47.635   7.988  13.786  0.00  0.00    +0.000 A 
ATOM      6  C   UNL     1      48.113   6.811  14.369  0.00  0.00    +0.000 A 
ATOM      7  C   UNL     1      47.541   5.600  13.973  0.00  0.00    +0.000 A 
ATOM      8  N   UNL     1      46.521   5.444  13.087  0.00  0.00    +0.000 NA
ATOM      9  C   UNL     1      46.086   6.614  12.571  0.00  0.00    +0.000 A 
ENDROOT
BRANCH   6  10
ATOM     10  C   UNL     1      49.177   6.776  15.402  0.00  0.00    +0.000 C 
ATOM     11  N   UNL     1      49.857   7.929  15.683  0.00  0.00    +0.000 N 
ATOM     12  O   UNL     1      49.441   5.745  16.016  0.00  0.00    +0.000 OA
ATOM     13  H   UNL     1      49.675   8.832  15.272  0.00  0.00    +0.000 HD
ATOM     14  H   UNL     1      50.546   7.886  16.426  0.00  0.00    +0.000 HD
ENDBRANCH   6  10
BRANCH   1  15
ATOM     15  C   UNL     1      44.066   5.729  11.363  0.00  0.00    +0.000 C 
BRANCH  15  21
ATOM     16  C   UNL     1      44.047   3.471  10.171  0.00  0.00    +0.000 A 
ATOM     17  C   UNL     1      44.601   2.612   9.216  0.00  0.00    +0.000 A 
ATOM     18  C   UNL     1      45.584   3.068   8.333  0.00  0.00    +0.000 A 
ATOM     19  C   UNL     1      45.998   4.394   8.377  0.00  0.00    +0.000 A 
ATOM     20  C   UNL     1      45.452   5.259   9.324  0.00  0.00    +0.000 A 
ATOM     21  C   UNL     1      44.495   4.805  10.249  0.00  0.00    +0.000 A 
BRANCH  16  23
ATOM     22  C   UNL     1      43.506   2.470  12.268  0.00  0.00    +0.000 C 
ATOM     23  O   UNL     1      43.077   3.106  11.069  0.00  0.00    +0.000 OA
ENDBRANCH  16  23
ENDBRANCH  15  21
ENDBRANCH   1  15
TORSDOF 4
ENDMDL
MODEL 7
REMARK VINA RESULT:    -5.974      4.105      6.419
REMARK INTER + INTRA:          -7.869
REMARK INTER:                  -7.180
REMARK INTRA:                  -0.689
REMARK UNBOUND:                -0.498
REMARK  Name = 
REMARK  5 active torsions:
REMARK  status: ('A' for Active; 'I' for Inactive)
REMARK    1  A    between atoms: C_1  and  O_2
REMARK    2  A    between atoms: O_2  and  C_3
REMARK    3  A    between atoms: C_8  and  C_9
REMARK    4  A    between atoms: C_9  and  N_10
REMARK    5  A    between atoms: C_15  and  C_16
REMARK                            x       y       z     vdW  Elec       q    Type
REMARK                         _______ _______ _______ _____ _____    ______ ____
ROOT
ATOM      1  N   UNL     1      48.157   7.155  13.839  0.00  0.00    +0.000 N 
ATOM      2  C   UNL     1      47.931   8.244  13.027  0.00  0.00    +0.000 A 
ATOM      3  C   UNL     1      46.970   7.902  12.102  0.00  0.00    +0.000 A 
ATOM      4  C   UNL     1      46.602   6.552  12.347  0.00  0.00    +0.000 A 
ATOM      5  C   UNL     1      45.736   5.634  11.727  0.00  0.00    +0.000 A 
ATOM      6  C   UNL     1      45.671   4.339  12.250  0.00  0.00    +0.000 A 
ATOM      7  C   UNL     1      46.445   4.042  13.373  0.00  0.00    +0.000 A 
ATOM      8  N   UNL     1      47.302   4.888  14.005  0.00  0.00    +0.000 NA
ATOM      9  C   UNL     1      47.341   6.117  13.447  0.00  0.00    +0.000 A 
ENDROOT
BRANCH   6  10
ATOM     10  C   UNL     1      44.844   3.256  11.665  0.00  0.00    +0.000 C 
ATOM     11  N   UNL     1      44.010   2.549  12.486  0.00  0.00    +0.000 N 
ATOM     12  O   UNL     1      44.881   2.998  10.464  0.00  0.00    +0.000 OA
ATOM     13  H   UNL     1      43.872   2.722  13.470  0.00  0.00    +0.000 HD
ATOM     14  H   UNL     1      43.423   1.846  12.050  0.00  0.00    +0.000 HD
ENDBRANCH   6  10
BRANCH   1  15
ATOM     15  C   UNL     1      49.274   7.036  14.765  0.00  0.00    +0.000 C 
BRANCH  15  21
ATOM     16  C   UNL     1      48.838   6.227  17.146  0.00  0.00    +0.000 A 
ATOM     17  C   UNL     1      48.349   6.484  18.433  0.00  0.00    +0.000 A 
ATOM     18  C   UNL     1      47.957   7.774  18.800  0.00  0.00    +0.000 A 
ATOM     19  C   UNL     1      48.080   8.823  17.896  0.00  0.00    +0.000 A 
ATOM     20  C   UNL     1      48.566   8.579  16.613  0.00  0.00    +0.000 A 
ATOM     21  C   UNL     1      48.922   7.278  16.212  0.00  0.00    +0.000 A 
BRANCH  16  23
ATOM     22  C   UNL     1      48.580   3.857  17.242  0.00  0.00    +0.000 C 
ATOM     23  O   UNL     1      49.248   4.994  16.708  0.00  0.00    +0.000 OA
ENDBRANCH  16  23
ENDBRANCH  15  21
ENDBRANCH   1  15
TORSDOF 4
ENDMDL
MODEL 8
REMARK VINA RESULT:    -5.744      3.712      5.511
REMARK INTER + INTRA:          -7.584
REMARK INTER:                  -6.938
REMARK INTRA:                  -0.647
REMARK UNBOUND:                -0.498
REMARK  Name = 
REMARK  5 active torsions:
REMARK  status: ('A' for Active; 'I' for Inactive)
REMARK    1  A    between atoms: C_1  and  O_2
REMARK    2  A    between atoms: O_2  and  C_3
REMARK    3  A    between atoms: C_8  and  C_9
REMARK    4  A    between atoms: C_9  and  N_10
REMARK    5  A    between atoms: C_15  and  C_16
REMARK                            x       y       z     vdW  Elec       q    Type
REMARK                         _______ _______ _______ _____ _____    ______ ____
ROOT
ATOM      1  N   UNL     1      47.558   6.307  13.807  0.00  0.00    +0.000 N 
ATOM      2  C   UNL     1      47.619   5.441  14.876  0.00  0.00    +0.000 A 
ATOM      3  C   UNL     1      46.836   4.345  14.590  0.00  0.00    +0.000 A 
ATOM      4  C   UNL     1      46.264   4.551  13.306  0.00  0.00    +0.000 A 
ATOM      5  C   UNL     1      45.356   3.842  12.502  0.00  0.00    +0.000 A 
ATOM      6  C   UNL     1      44.988   4.405  11.276  0.00  0.00    +0.000 A 
ATOM      7  C   UNL     1      45.567   5.621  10.909  0.00  0.00    +0.000 A 
ATOM      8  N   UNL     1      46.443   6.351  11.650  0.00  0.00    +0.000 NA
ATOM      9  C   UNL     1      46.747   5.771  12.832  0.00  0.00    +0.000 A 
ENDROOT
BRANCH   6  10
ATOM     10  C   UNL     1      44.000   3.795  10.353  0.00  0.00    +0.000 C 
ATOM     11  N   UNL     1      43.775   4.390   9.143  0.00  0.00    +0.000 N 
ATOM     12  O   UNL     1      43.400   2.763  10.647  0.00  0.00    +0.000 OA
ATOM     13  H   UNL     1      44.256   5.205   8.793  0.00  0.00    +0.000 HD
ATOM     14  H   UNL     1      43.130   3.925   8.515  0.00  0.00    +0.000 HD
ENDBRANCH   6  10
BRANCH   1  15
ATOM     15  C   UNL     1      48.039   7.681  13.833  0.00  0.00    +0.000 C 
BRANCH  15  21
ATOM     16  C   UNL     1      50.529   8.149  14.147  0.00  0.00    +0.000 A 
ATOM     17  C   UNL     1      51.770   8.476  13.589  0.00  0.00    +0.000 A 
ATOM     18  C   UNL     1      51.939   8.516  12.203  0.00  0.00    +0.000 A 
ATOM     19  C   UNL     1      50.878   8.197  11.363  0.00  0.00    +0.000 A 
ATOM     20  C   UNL     1      49.638   7.869  11.908  0.00  0.00    +0.000 A 
ATOM     21  C   UNL     1      49.439   7.869  13.300  0.00  0.00    +0.000 A 
BRANCH  16  23
ATOM     22  C   UNL     1      50.835   6.983  16.206  0.00  0.00    +0.000 C 
ATOM     23  O   UNL     1      50.280   8.083  15.495  0.00  0.00    +0.000 OA
ENDBRANCH  16  23
ENDBRANCH  15  21
ENDBRANCH   1  15
TORSDOF 4
ENDMDL
MODEL 9
REMARK VINA RESULT:    -5.215      3.975      5.981
REMARK INTER + INTRA:          -6.932
REMARK INTER:                  -6.435
REMARK INTRA:                  -0.497
REMARK UNBOUND:                -0.498
REMARK  Name = 
REMARK  5 active torsions:
REMARK  status: ('A' for Active; 'I' for Inactive)
REMARK    1  A    between atoms: C_1  and  O_2
REMARK    2  A    between atoms: O_2  and  C_3
REMARK    3  A    between atoms: C_8  and  C_9
REMARK    4  A    between atoms: C_9  and  N_10
REMARK    5  A    between atoms: C_15  and  C_16
REMARK                            x       y       z     vdW  Elec       q    Type
REMARK                         _______ _______ _______ _____ _____    ______ ____
ROOT
ATOM      1  N   UNL     1      48.089   7.324  12.744  0.00  0.00    +0.000 N 
ATOM      2  C   UNL     1      48.591   7.039  13.994  0.00  0.00    +0.000 A 
ATOM      3  C   UNL     1      47.874   5.986  14.518  0.00  0.00    +0.000 A 
ATOM      4  C   UNL     1      46.890   5.621  13.562  0.00  0.00    +0.000 A 
ATOM      5  C   UNL     1      45.843   4.683  13.528  0.00  0.00    +0.000 A 
ATOM      6  C   UNL     1      45.031   4.648  12.390  0.00  0.00    +0.000 A 
ATOM      7  C   UNL     1      45.326   5.523  11.343  0.00  0.00    +0.000 A 
ATOM      8  N   UNL     1      46.320   6.452  11.327  0.00  0.00    +0.000 NA
ATOM      9  C   UNL     1      47.058   6.456  12.459  0.00  0.00    +0.000 A 
ENDROOT
BRANCH   6  10
ATOM     10  C   UNL     1      43.861   3.749  12.241  0.00  0.00    +0.000 C 
ATOM     11  N   UNL     1      42.749   4.219  11.599  0.00  0.00    +0.000 N 
ATOM     12  O   UNL     1      43.880   2.596  12.664  0.00  0.00    +0.000 OA
ATOM     13  H   UNL     1      42.659   5.129  11.172  0.00  0.00    +0.000 HD
ATOM     14  H   UNL     1      41.983   3.568  11.471  0.00  0.00    +0.000 HD
ENDBRANCH   6  10
BRANCH   1  15
ATOM     15  C   UNL     1      48.406   8.525  11.984  0.00  0.00    +0.000 C 
BRANCH  15  21
ATOM     16  C   UNL     1      50.531   9.885  11.596  0.00  0.00    +0.000 A 
ATOM     17  C   UNL     1      51.820   9.974  11.057  0.00  0.00    +0.000 A 
ATOM     18  C   UNL     1      52.444   8.848  10.515  0.00  0.00    +0.000 A 
ATOM     19  C   UNL     1      51.798   7.617  10.536  0.00  0.00    +0.000 A 
ATOM     20  C   UNL     1      50.515   7.516  11.071  0.00  0.00    +0.000 A 
ATOM     21  C   UNL     1      49.855   8.650  11.580  0.00  0.00    +0.000 A 
BRANCH  16  23
ATOM     22  C   UNL     1      50.238  11.348  13.458  0.00  0.00    +0.000 C 
ATOM     23  O   UNL     1      49.851  10.939  12.151  0.00  0.00    +0.000 OA
ENDBRANCH  16  23
ENDBRANCH  15  21
ENDBRANCH   1  15
TORSDOF 4
ENDMDL
