MODEL 1
REMARK VINA RESULT:    -8.346      0.000      0.000
REMARK INTER + INTRA:         -12.754
REMARK INTER:                 -11.761
REMARK INTRA:                  -0.993
REMARK UNBOUND:                -0.993
REMARK  Name = 
REMARK  7 active torsions:
REMARK  status: ('A' for Active; 'I' for Inactive)
REMARK    1  A    between atoms: C_2  and  C_20
REMARK    2  A    between atoms: N_3  and  C_4
REMARK    3  A    between atoms: C_4  and  C_5
REMARK    4  A    between atoms: C_8  and  C_9
REMARK    5  A    between atoms: C_9  and  C_10
REMARK    6  A    between atoms: C_10  and  N_11
REMARK    7  A    between atoms: N_11  and  C_12
REMARK                            x       y       z     vdW  Elec       q    Type
REMARK                         _______ _______ _______ _____ _____    ______ ____
ROOT
ATOM      1  C   UNL     1      46.775   4.336  15.775  0.00  0.00    +0.000 C 
ENDROOT
BRANCH   1   2
ATOM      2  C   UNL     1      46.498   4.695  14.336  0.00  0.00    +0.000 A 
ATOM      3  C   UNL     1      47.218   5.721  13.723  0.00  0.00    +0.000 A 
ATOM      4  C   UNL     1      46.970   6.012  12.394  0.00  0.00    +0.000 A 
ATOM      5  C   UNL     1      46.030   5.264  11.672  0.00  0.00    +0.000 A 
ATOM      6  C   UNL     1      45.357   4.270  12.372  0.00  0.00    +0.000 A 
ATOM      7  N   UNL     1      45.556   3.976  13.676  0.00  0.00    +0.000 NA
BRANCH   5   8
ATOM      8  C   UNL     1      45.712   5.523  10.224  0.00  0.00    +0.000 C 
BRANCH   8   9
ATOM      9  C   UNL     1      45.111   4.326   9.466  0.00  0.00    +0.000 C 
BRANCH   9  10
ATOM     10  N   UNL     1      45.209   4.413   8.004  0.00  0.00    +0.000 NA
ATOM     11  H   UNL     1      45.759   5.224   7.721  0.00  0.00    +0.000 HD
BRANCH  10  12
ATOM     12  C   UNL     1      45.735   3.175   7.405  0.00  0.00    +0.000 C 
ATOM     13  C   UNL     1      45.988   2.040   8.413  0.00  0.00    +0.000 C 
ATOM     14  C   UNL     1      46.662   0.851   7.742  0.00  0.00    +0.000 C 
ATOM     15  O   UNL     1      47.875   1.255   7.114  0.00  0.00    +0.000 OA
ATOM     16  C   UNL     1      47.645   2.209   6.080  0.00  0.00    +0.000 C 
ATOM     17  C   UNL     1      47.029   3.487   6.640  0.00  0.00    +0.000 C 
ENDBRANCH  10  12
ENDBRANCH   9  10
ENDBRANCH   8   9
ENDBRANCH   5   8
ENDBRANCH   1   2
BRANCH   1  20
ATOM     18  O   UNL     1      47.824   4.759  18.288  0.00  0.00    +0.000 OA
ATOM     19  C   UNL     1      48.609   4.493  17.380  0.00  0.00    +0.000 C 
ATOM     20  N   UNL     1      48.187   4.288  16.091  0.00  0.00    +0.000 N 
ATOM     21  H   UNL     1      48.826   3.939  15.387  0.00  0.00    +0.000 HD
BRANCH  19  22
ATOM     22  C   UNL     1      50.049   4.428  17.599  0.00  0.00    +0.000 A 
ATOM     23  C   UNL     1      50.830   5.502  17.997  0.00  0.00    +0.000 A 
ATOM     24  S   UNL     1      52.460   5.067  18.292  0.00  0.00    +0.000 S 
ATOM     25  C   UNL     1      52.162   3.436  17.893  0.00  0.00    +0.000 A 
ATOM     26  N   UNL     1      53.144   2.500  17.950  0.00  0.00    +0.000 NA
ATOM     27  C   UNL     1      52.757   1.308  17.633  0.00  0.00    +0.000 A 
ATOM     28  N   UNL     1      51.484   0.969  17.256  0.00  0.00    +0.000 N 
ATOM     29  C   UNL     1      50.479   1.895  17.091  0.00  0.00    +0.000 A 
ATOM     30  O   UNL     1      49.422   1.577  16.565  0.00  0.00    +0.000 OA
ATOM     31  C   UNL     1      50.848   3.236  17.513  0.00  0.00    +0.000 A 
ATOM     32  H   UNL     1      51.257   0.032  16.961  0.00  0.00    +0.000 HD
ENDBRANCH  19  22
ENDBRANCH   1  20
TORSDOF 7
ENDMDL
MODEL 2
REMARK VINA RESULT:    -8.229      2.379      2.994
REMARK INTER + INTRA:         -12.590
REMARK INTER:                 -11.394
REMARK INTRA:                  -1.196
REMARK UNBOUND:                -0.993
REMARK  Name = 
REMARK  7 active torsions:
REMARK  status: ('A' for Active; 'I' for Inactive)
REMARK    1  A    between atoms: C_2  and  C_20
REMARK    2  A    between atoms: N_3  and  C_4
REMARK    3  A    between atoms: C_4  and  C_5
REMARK    4  A    between atoms: C_8  and  C_9
REMARK    5  A    between atoms: C_9  and  C_10
REMARK    6  A    between atoms: C_10  and  N_11
REMARK    7  A    between atoms: N_11  and  C_12
REMARK                            x       y       z     vdW  Elec       q    Type
REMARK                         _______ _______ _______ _____ _____    ______ ____
ROOT
ATOM      1  C   UNL     1      47.237   8.148  13.488  0.00  0.00    +0.000 C 
ENDROOT
BRANCH   1   2
ATOM      2  C   UNL     1      46.363   7.291  12.607  0.00  0.00    +0.000 A 
ATOM      3  C   UNL     1      46.926   6.584  11.544  0.00  0.00    +0.000 A 
ATOM      4  C   UNL     1      46.111   5.779  10.769  0.00  0.00    +0.000 A 
ATOM      5  C   UNL     1      44.747   5.658  11.070  0.00  0.00    +0.000 A 
ATOM      6  C   UNL     1      44.278   6.408  12.141  0.00  0.00    +0.000 A 
ATOM      7  N   UNL     1      45.041   7.224  12.903  0.00  0.00    +0.000 NA
BRANCH   5   8
ATOM      8  C   UNL     1      43.804   4.799  10.272  0.00  0.00    +0.000 C 
BRANCH   8   9
ATOM      9  C   UNL     1      44.471   3.658   9.483  0.00  0.00    +0.000 C 
BRANCH   9  10
ATOM     10  N   UNL     1      44.625   3.914   8.046  0.00  0.00    +0.000 NA
ATOM     11  H   UNL     1      44.975   4.857   7.877  0.00  0.00    +0.000 HD
BRANCH  10  12
ATOM     12  C   UNL     1      45.470   2.904   7.387  0.00  0.00    +0.000 C 
ATOM     13  C   UNL     1      45.911   1.749   8.303  0.00  0.00    +0.000 C 
ATOM     14  C   UNL     1      46.892   0.829   7.591  0.00  0.00    +0.000 C 
ATOM     15  O   UNL     1      48.017   1.567   7.123  0.00  0.00    +0.000 OA
ATOM     16  C   UNL     1      47.643   2.555   6.165  0.00  0.00    +0.000 C 
ATOM     17  C   UNL     1      46.704   3.587   6.782  0.00  0.00    +0.000 C 
ENDBRANCH  10  12
ENDBRANCH   9  10
ENDBRANCH   8   9
ENDBRANCH   5   8
ENDBRANCH   1   2
BRANCH   1  20
ATOM     18  O   UNL     1      49.731   7.040  13.873  0.00  0.00    +0.000 OA
ATOM     19  C   UNL     1      48.929   6.977  14.803  0.00  0.00    +0.000 C 
ATOM     20  N   UNL     1      47.657   7.480  14.701  0.00  0.00    +0.000 N 
ATOM     21  H   UNL     1      47.058   7.540  15.517  0.00  0.00    +0.000 HD
BRANCH  19  22
ATOM     22  C   UNL     1      49.258   6.318  16.062  0.00  0.00    +0.000 A 
ATOM     23  C   UNL     1      50.177   6.799  16.982  0.00  0.00    +0.000 A 
ATOM     24  S   UNL     1      50.238   5.863  18.414  0.00  0.00    +0.000 S 
ATOM     25  C   UNL     1      49.042   4.792  17.838  0.00  0.00    +0.000 A 
ATOM     26  N   UNL     1      48.605   3.747  18.588  0.00  0.00    +0.000 NA
ATOM     27  C   UNL     1      47.685   3.037  18.020  0.00  0.00    +0.000 A 
ATOM     28  N   UNL     1      47.172   3.270  16.771  0.00  0.00    +0.000 N 
ATOM     29  C   UNL     1      47.647   4.256  15.937  0.00  0.00    +0.000 A 
ATOM     30  O   UNL     1      47.300   4.299  14.766  0.00  0.00    +0.000 OA
ATOM     31  C   UNL     1      48.626   5.128  16.564  0.00  0.00    +0.000 A 
ATOM     32  H   UNL     1      46.498   2.645  16.357  0.00  0.00    +0.000 HD
ENDBRANCH  19  22
ENDBRANCH   1  20
TORSDOF 7
ENDMDL
MODEL 3
REMARK VINA RESULT:    -7.870      2.762      3.990
REMARK INTER + INTRA:         -12.084
REMARK INTER:                 -10.956
REMARK INTRA:                  -1.127
REMARK UNBOUND:                -0.993
REMARK  Name = 
REMARK  7 active torsions:
REMARK  status: ('A' for Active; 'I' for Inactive)
REMARK    1  A    between atoms: C_2  and  C_20
REMARK    2  A    between atoms: N_3  and  C_4
REMARK    3  A    between atoms: C_4  and  C_5
REMARK    4  A    between atoms: C_8  and  C_9
REMARK    5  A    between atoms: C_9  and  C_10
REMARK    6  A    between atoms: C_10  and  N_11
REMARK    7  A    between atoms: N_11  and  C_12
REMARK                            x       y       z     vdW  Elec       q    Type
REMARK                         _______ _______ _______ _____ _____    ______ ____
ROOT
ATOM      1  C   UNL     1      47.350   4.015  14.835  0.00  0.00    +0.000 C 
ENDROOT
BRANCH   1   2
ATOM      2  C   UNL     1      46.454   4.296  13.654  0.00  0.00    +0.000 A 
ATOM      3  C   UNL     1      46.372   5.587  13.134  0.00  0.00    +0.000 A 
ATOM      4  C   UNL     1      45.568   5.816  12.032  0.00  0.00    +0.000 A 
ATOM      5  C   UNL     1      44.873   4.756  11.435  0.00  0.00    +0.000 A 
ATOM      6  C   UNL     1      45.010   3.508  12.030  0.00  0.00    +0.000 A 
ATOM      7  N   UNL     1      45.766   3.255  13.122  0.00  0.00    +0.000 NA
BRANCH   5   8
ATOM      8  C   UNL     1      43.984   4.930  10.233  0.00  0.00    +0.000 C 
BRANCH   8   9
ATOM      9  C   UNL     1      44.260   3.958   9.072  0.00  0.00    +0.000 C 
BRANCH   9  10
ATOM     10  N   UNL     1      45.439   4.286   8.263  0.00  0.00    +0.000 NA
ATOM     11  H   UNL     1      46.169   4.713   8.834  0.00  0.00    +0.000 HD
BRANCH  10  12
ATOM     12  C   UNL     1      45.951   3.121   7.522  0.00  0.00    +0.000 C 
ATOM     13  C   UNL     1      46.107   1.848   8.372  0.00  0.00    +0.000 C 
ATOM     14  C   UNL     1      46.772   0.735   7.575  0.00  0.00    +0.000 C 
ATOM     15  O   UNL     1      48.031   1.168   7.068  0.00  0.00    +0.000 OA
ATOM     16  C   UNL     1      47.891   2.265   6.168  0.00  0.00    +0.000 C 
ATOM     17  C   UNL     1      47.293   3.479   6.871  0.00  0.00    +0.000 C 
ENDBRANCH  10  12
ENDBRANCH   9  10
ENDBRANCH   8   9
ENDBRANCH   5   8
ENDBRANCH   1   2
BRANCH   1  20
ATOM     18  O   UNL     1      49.398   4.396  16.639  0.00  0.00    +0.000 OA
ATOM     19  C   UNL     1      48.490   5.225  16.623  0.00  0.00    +0.000 C 
ATOM     20  N   UNL     1      47.417   5.111  15.776  0.00  0.00    +0.000 N 
ATOM     21  H   UNL     1      46.751   5.869  15.681  0.00  0.00    +0.000 HD
BRANCH  19  22
ATOM     22  C   UNL     1      48.466   6.361  17.538  0.00  0.00    +0.000 A 
ATOM     23  C   UNL     1      48.288   6.259  18.909  0.00  0.00    +0.000 A 
ATOM     24  S   UNL     1      48.439   7.762  19.714  0.00  0.00    +0.000 S 
ATOM     25  C   UNL     1      48.744   8.585  18.251  0.00  0.00    +0.000 A 
ATOM     26  N   UNL     1      48.981   9.922  18.225  0.00  0.00    +0.000 NA
ATOM     27  C   UNL     1      49.211  10.395  17.043  0.00  0.00    +0.000 A 
ATOM     28  N   UNL     1      49.215   9.657  15.889  0.00  0.00    +0.000 N 
ATOM     29  C   UNL     1      48.889   8.321  15.851  0.00  0.00    +0.000 A 
ATOM     30  O   UNL     1      48.712   7.754  14.783  0.00  0.00    +0.000 OA
ATOM     31  C   UNL     1      48.701   7.730  17.166  0.00  0.00    +0.000 A 
ATOM     32  H   UNL     1      49.341  10.094  14.989  0.00  0.00    +0.000 HD
ENDBRANCH  19  22
ENDBRANCH   1  20
TORSDOF 7
ENDMDL
MODEL 4
REMARK VINA RESULT:    -7.780      2.355      3.136
REMARK INTER + INTRA:         -11.957
REMARK INTER:                 -11.155
REMARK INTRA:                  -0.802
REMARK UNBOUND:                -0.993
REMARK  Name = 
REMARK  7 active torsions:
REMARK  status: ('A' for Active; 'I' for Inactive)
REMARK    1  A    between atoms: C_2  and  C_20
REMARK    2  A    between atoms: N_3  and  C_4
REMARK    3  A    between atoms: C_4  and  C_5
REMARK    4  A    between atoms: C_8  and  C_9
REMARK    5  A    between atoms: C_9  and  C_10
REMARK    6  A    between atoms: C_10  and  N_11
REMARK    7  A    between atoms: N_11  and  C_12
REMARK                            x       y       z     vdW  Elec       q    Type
REMARK                         _______ _______ _______ _____ _____    ______ ____
ROOT
ATOM      1  C   UNL     1      48.263   6.629  13.538  0.00  0.00    +0.000 C 
ENDROOT
BRANCH   1   2
ATOM      2  C   UNL     1      47.067   6.029  12.841  0.00  0.00    +0.000 A 
ATOM      3  C   UNL     1      46.592   6.599  11.660  0.00  0.00    +0.000 A 
ATOM      4  C   UNL     1      45.513   6.013  11.021  0.00  0.00    +0.000 A 
ATOM      5  C   UNL     1      44.933   4.849  11.542  0.00  0.00    +0.000 A 
ATOM      6  C   UNL     1      45.471   4.362  12.727  0.00  0.00    +0.000 A 
ATOM      7  N   UNL     1      46.506   4.924  13.391  0.00  0.00    +0.000 NA
BRANCH   5   8
ATOM      8  C   UNL     1      43.761   4.157  10.898  0.00  0.00    +0.000 C 
BRANCH   8   9
ATOM      9  C   UNL     1      44.122   2.941  10.027  0.00  0.00    +0.000 C 
BRANCH   9  10
ATOM     10  N   UNL     1      44.439   3.259   8.630  0.00  0.00    +0.000 NA
ATOM     11  H   UNL     1      44.375   4.262   8.458  0.00  0.00    +0.000 HD
BRANCH  10  12
ATOM     12  C   UNL     1      45.750   2.728   8.219  0.00  0.00    +0.000 C 
ATOM     13  C   UNL     1      46.237   3.229   6.849  0.00  0.00    +0.000 C 
ATOM     14  C   UNL     1      47.523   2.529   6.434  0.00  0.00    +0.000 C 
ATOM     15  O   UNL     1      47.341   1.116   6.425  0.00  0.00    +0.000 OA
ATOM     16  C   UNL     1      47.023   0.614   7.722  0.00  0.00    +0.000 C 
ATOM     17  C   UNL     1      45.705   1.194   8.225  0.00  0.00    +0.000 C 
ENDBRANCH  10  12
ENDBRANCH   9  10
ENDBRANCH   8   9
ENDBRANCH   5   8
ENDBRANCH   1   2
BRANCH   1  20
ATOM     18  O   UNL     1      50.326   6.691  15.364  0.00  0.00    +0.000 OA
ATOM     19  C   UNL     1      49.180   6.800  15.795  0.00  0.00    +0.000 C 
ATOM     20  N   UNL     1      48.086   6.759  14.969  0.00  0.00    +0.000 N 
ATOM     21  H   UNL     1      47.163   6.983  15.321  0.00  0.00    +0.000 HD
BRANCH  19  22
ATOM     22  C   UNL     1      48.901   6.928  17.221  0.00  0.00    +0.000 A 
ATOM     23  C   UNL     1      48.492   8.100  17.837  0.00  0.00    +0.000 A 
ATOM     24  S   UNL     1      48.123   7.888  19.495  0.00  0.00    +0.000 S 
ATOM     25  C   UNL     1      48.502   6.226  19.430  0.00  0.00    +0.000 A 
ATOM     26  N   UNL     1      48.387   5.428  20.523  0.00  0.00    +0.000 NA
ATOM     27  C   UNL     1      48.696   4.191  20.310  0.00  0.00    +0.000 A 
ATOM     28  N   UNL     1      49.118   3.683  19.109  0.00  0.00    +0.000 N 
ATOM     29  C   UNL     1      49.341   4.466  18.000  0.00  0.00    +0.000 A 
ATOM     30  O   UNL     1      49.904   4.005  17.017  0.00  0.00    +0.000 OA
ATOM     31  C   UNL     1      48.931   5.849  18.172  0.00  0.00    +0.000 A 
ATOM     32  H   UNL     1      49.403   2.720  19.019  0.00  0.00    +0.000 HD
ENDBRANCH  19  22
ENDBRANCH   1  20
TORSDOF 7
ENDMDL
MODEL 5
REMARK VINA RESULT:    -7.677      2.198      2.724
REMARK INTER + INTRA:         -11.811
REMARK INTER:                 -10.752
REMARK INTRA:                  -1.058
REMARK UNBOUND:                -0.993
REMARK  Name = 
REMARK  7 active torsions:
REMARK  status: ('A' for Active; 'I' for Inactive)
REMARK    1  A    between atoms: C_2  and  C_20
REMARK    2  A    between atoms: N_3  and  C_4
REMARK    3  A    between atoms: C_4  and  C_5
REMARK    4  A    between atoms: C_8  and  C_9
REMARK    5  A    between atoms: C_9  and  C_10
REMARK    6  A    between atoms: C_10  and  N_11
REMARK    7  A    between atoms: N_11  and  C_12
REMARK                            x       y       z     vdW  Elec       q    Type
REMARK                         _______ _______ _______ _____ _____    ______ ____
ROOT
ATOM      1  C   UNL     1      46.980   3.742  15.190  0.00  0.00    +0.000 C 
ENDROOT
BRANCH   1   2
ATOM      2  C   UNL     1      46.543   4.322  13.867  0.00  0.00    +0.000 A 
ATOM      3  C   UNL     1      47.017   5.570  13.464  0.00  0.00    +0.000 A 
ATOM      4  C   UNL     1      46.628   6.069  12.234  0.00  0.00    +0.000 A 
ATOM      5  C   UNL     1      45.795   5.312  11.398  0.00  0.00    +0.000 A 
ATOM      6  C   UNL     1      45.367   4.087  11.892  0.00  0.00    +0.000 A 
ATOM      7  N   UNL     1      45.707   3.581  13.099  0.00  0.00    +0.000 NA
BRANCH   5   8
ATOM      8  C   UNL     1      45.335   5.790  10.047  0.00  0.00    +0.000 C 
BRANCH   8   9
ATOM      9  C   UNL     1      45.908   5.008   8.851  0.00  0.00    +0.000 C 
BRANCH   9  10
ATOM     10  N   UNL     1      44.952   4.116   8.186  0.00  0.00    +0.000 NA
ATOM     11  H   UNL     1      44.336   4.638   7.562  0.00  0.00    +0.000 HD
BRANCH  10  12
ATOM     12  C   UNL     1      45.619   3.010   7.478  0.00  0.00    +0.000 C 
ATOM     13  C   UNL     1      46.019   1.830   8.378  0.00  0.00    +0.000 C 
ATOM     14  C   UNL     1      46.826   0.797   7.603  0.00  0.00    +0.000 C 
ATOM     15  O   UNL     1      47.973   1.402   7.015  0.00  0.00    +0.000 OA
ATOM     16  C   UNL     1      47.617   2.409   6.071  0.00  0.00    +0.000 C 
ATOM     17  C   UNL     1      46.856   3.546   6.744  0.00  0.00    +0.000 C 
ENDBRANCH  10  12
ENDBRANCH   9  10
ENDBRANCH   8   9
ENDBRANCH   5   8
ENDBRANCH   1   2
BRANCH   1  20
ATOM     18  O   UNL     1      47.059   3.384  17.921  0.00  0.00    +0.000 OA
ATOM     19  C   UNL     1      47.449   4.462  17.476  0.00  0.00    +0.000 C 
ATOM     20  N   UNL     1      47.428   4.744  16.134  0.00  0.00    +0.000 N 
ATOM     21  H   UNL     1      47.875   5.579  15.774  0.00  0.00    +0.000 HD
BRANCH  19  22
ATOM     22  C   UNL     1      47.912   5.535  18.348  0.00  0.00    +0.000 A 
ATOM     23  C   UNL     1      47.092   6.267  19.194  0.00  0.00    +0.000 A 
ATOM     24  S   UNL     1      47.962   7.364  20.179  0.00  0.00    +0.000 S 
ATOM     25  C   UNL     1      49.452   6.890  19.498  0.00  0.00    +0.000 A 
ATOM     26  N   UNL     1      50.626   7.437  19.909  0.00  0.00    +0.000 NA
ATOM     27  C   UNL     1      51.668   6.962  19.309  0.00  0.00    +0.000 A 
ATOM     28  N   UNL     1      51.643   6.001  18.333  0.00  0.00    +0.000 N 
ATOM     29  C   UNL     1      50.477   5.486  17.817  0.00  0.00    +0.000 A 
ATOM     30  O   UNL     1      50.497   4.784  16.816  0.00  0.00    +0.000 OA
ATOM     31  C   UNL     1      49.283   5.933  18.517  0.00  0.00    +0.000 A 
ATOM     32  H   UNL     1      52.486   5.715  17.859  0.00  0.00    +0.000 HD
ENDBRANCH  19  22
ENDBRANCH   1  20
TORSDOF 7
ENDMDL
MODEL 6
REMARK VINA RESULT:    -6.954      3.368      9.062
REMARK INTER + INTRA:         -10.792
REMARK INTER:                  -9.499
REMARK INTRA:                  -1.293
REMARK UNBOUND:                -0.993
REMARK  Name = 
REMARK  7 active torsions:
REMARK  status: ('A' for Active; 'I' for Inactive)
REMARK    1  A    between atoms: C_2  and  C_20
REMARK    2  A    between atoms: N_3  and  C_4
REMARK    3  A    between atoms: C_4  and  C_5
REMARK    4  A    between atoms: C_8  and  C_9
REMARK    5  A    between atoms: C_9  and  C_10
REMARK    6  A    between atoms: C_10  and  N_11
REMARK    7  A    between atoms: N_11  and  C_12
REMARK                            x       y       z     vdW  Elec       q    Type
REMARK                         _______ _______ _______ _____ _____    ______ ____
ROOT
ATOM      1  C   UNL     1      47.352   7.692  12.089  0.00  0.00    +0.000 C 
ENDROOT
BRANCH   1   2
ATOM      2  C   UNL     1      48.046   7.762  13.427  0.00  0.00    +0.000 A 
ATOM      3  C   UNL     1      47.729   8.783  14.323  0.00  0.00    +0.000 A 
ATOM      4  C   UNL     1      48.354   8.810  15.556  0.00  0.00    +0.000 A 
ATOM      5  C   UNL     1      49.269   7.807  15.905  0.00  0.00    +0.000 A 
ATOM      6  C   UNL     1      49.526   6.838  14.943  0.00  0.00    +0.000 A 
ATOM      7  N   UNL     1      48.953   6.797  13.719  0.00  0.00    +0.000 NA
BRANCH   5   8
ATOM      8  C   UNL     1      49.983   7.771  17.229  0.00  0.00    +0.000 C 
BRANCH   8   9
ATOM      9  C   UNL     1      50.637   6.423  17.580  0.00  0.00    +0.000 C 
BRANCH   9  10
ATOM     10  N   UNL     1      49.961   5.670  18.642  0.00  0.00    +0.000 NA
ATOM     11  H   UNL     1      49.104   6.139  18.937  0.00  0.00    +0.000 HD
BRANCH  10  12
ATOM     12  C   UNL     1      49.702   4.272  18.258  0.00  0.00    +0.000 C 
ATOM     13  C   UNL     1      50.914   3.545  17.651  0.00  0.00    +0.000 C 
ATOM     14  C   UNL     1      50.528   2.160  17.151  0.00  0.00    +0.000 C 
ATOM     15  O   UNL     1      49.463   2.249  16.210  0.00  0.00    +0.000 OA
ATOM     16  C   UNL     1      48.283   2.796  16.795  0.00  0.00    +0.000 C 
ATOM     17  C   UNL     1      48.522   4.222  17.278  0.00  0.00    +0.000 C 
ENDBRANCH  10  12
ENDBRANCH   9  10
ENDBRANCH   8   9
ENDBRANCH   5   8
ENDBRANCH   1   2
BRANCH   1  20
ATOM     18  O   UNL     1      44.638   7.314  11.794  0.00  0.00    +0.000 OA
ATOM     19  C   UNL     1      45.367   6.329  11.684  0.00  0.00    +0.000 C 
ATOM     20  N   UNL     1      46.728   6.411  11.835  0.00  0.00    +0.000 N 
ATOM     21  H   UNL     1      47.322   5.622  11.608  0.00  0.00    +0.000 HD
BRANCH  19  22
ATOM     22  C   UNL     1      44.830   4.997  11.435  0.00  0.00    +0.000 A 
ATOM     23  C   UNL     1      44.098   4.262  12.355  0.00  0.00    +0.000 A 
ATOM     24  S   UNL     1      43.502   2.792  11.711  0.00  0.00    +0.000 S 
ATOM     25  C   UNL     1      44.209   3.100  10.190  0.00  0.00    +0.000 A 
ATOM     26  N   UNL     1      44.070   2.233   9.153  0.00  0.00    +0.000 NA
ATOM     27  C   UNL     1      44.650   2.615   8.063  0.00  0.00    +0.000 A 
ATOM     28  N   UNL     1      45.362   3.777   7.917  0.00  0.00    +0.000 N 
ATOM     29  C   UNL     1      45.611   4.640   8.960  0.00  0.00    +0.000 A 
ATOM     30  O   UNL     1      46.412   5.554   8.831  0.00  0.00    +0.000 OA
ATOM     31  C   UNL     1      44.911   4.290  10.185  0.00  0.00    +0.000 A 
ATOM     32  H   UNL     1      45.844   3.992   7.058  0.00  0.00    +0.000 HD
ENDBRANCH  19  22
ENDBRANCH   1  20
TORSDOF 7
ENDMDL
MODEL 7
REMARK VINA RESULT:    -6.919      4.141      8.692
REMARK INTER + INTRA:         -10.743
REMARK INTER:                  -9.236
REMARK INTRA:                  -1.508
REMARK UNBOUND:                -0.993
REMARK  Name = 
REMARK  7 active torsions:
REMARK  status: ('A' for Active; 'I' for Inactive)
REMARK    1  A    between atoms: C_2  and  C_20
REMARK    2  A    between atoms: N_3  and  C_4
REMARK    3  A    between atoms: C_4  and  C_5
REMARK    4  A    between atoms: C_8  and  C_9
REMARK    5  A    between atoms: C_9  and  C_10
REMARK    6  A    between atoms: C_10  and  N_11
REMARK    7  A    between atoms: N_11  and  C_12
REMARK                            x       y       z     vdW  Elec       q    Type
REMARK                         _______ _______ _______ _____ _____    ______ ____
ROOT
ATOM      1  C   UNL     1      48.598   7.895  13.849  0.00  0.00    +0.000 C 
ENDROOT
BRANCH   1   2
ATOM      2  C   UNL     1      49.044   7.590  15.258  0.00  0.00    +0.000 A 
ATOM      3  C   UNL     1      48.515   8.314  16.326  0.00  0.00    +0.000 A 
ATOM      4  C   UNL     1      48.914   7.997  17.612  0.00  0.00    +0.000 A 
ATOM      5  C   UNL     1      49.812   6.945  17.833  0.00  0.00    +0.000 A 
ATOM      6  C   UNL     1      50.290   6.289  16.705  0.00  0.00    +0.000 A 
ATOM      7  N   UNL     1      49.942   6.590  15.434  0.00  0.00    +0.000 NA
BRANCH   5   8
ATOM      8  C   UNL     1      50.287   6.543  19.203  0.00  0.00    +0.000 C 
BRANCH   8   9
ATOM      9  C   UNL     1      50.414   5.026  19.430  0.00  0.00    +0.000 C 
BRANCH   9  10
ATOM     10  N   UNL     1      49.166   4.356  19.814  0.00  0.00    +0.000 NA
ATOM     11  H   UNL     1      48.463   5.032  20.113  0.00  0.00    +0.000 HD
BRANCH  10  12
ATOM     12  C   UNL     1      48.649   3.483  18.746  0.00  0.00    +0.000 C 
ATOM     13  C   UNL     1      49.725   2.955  17.781  0.00  0.00    +0.000 C 
ATOM     14  C   UNL     1      49.097   2.183  16.629  0.00  0.00    +0.000 C 
ATOM     15  O   UNL     1      48.150   2.996  15.943  0.00  0.00    +0.000 OA
ATOM     16  C   UNL     1      47.070   3.382  16.789  0.00  0.00    +0.000 C 
ATOM     17  C   UNL     1      47.565   4.229  17.957  0.00  0.00    +0.000 C 
ENDBRANCH  10  12
ENDBRANCH   9  10
ENDBRANCH   8   9
ENDBRANCH   5   8
ENDBRANCH   1   2
BRANCH   1  20
ATOM     18  O   UNL     1      47.750   7.103  11.349  0.00  0.00    +0.000 OA
ATOM     19  C   UNL     1      46.947   7.020  12.277  0.00  0.00    +0.000 C 
ATOM     20  N   UNL     1      47.267   7.410  13.552  0.00  0.00    +0.000 N 
ATOM     21  H   UNL     1      46.644   7.210  14.326  0.00  0.00    +0.000 HD
BRANCH  19  22
ATOM     22  C   UNL     1      45.581   6.550  12.076  0.00  0.00    +0.000 A 
ATOM     23  C   UNL     1      44.544   7.336  11.599  0.00  0.00    +0.000 A 
ATOM     24  S   UNL     1      43.097   6.454  11.354  0.00  0.00    +0.000 S 
ATOM     25  C   UNL     1      43.821   5.002  11.880  0.00  0.00    +0.000 A 
ATOM     26  N   UNL     1      43.130   3.833  11.906  0.00  0.00    +0.000 NA
ATOM     27  C   UNL     1      43.821   2.819  12.314  0.00  0.00    +0.000 A 
ATOM     28  N   UNL     1      45.133   2.870  12.707  0.00  0.00    +0.000 N 
ATOM     29  C   UNL     1      45.847   4.043  12.788  0.00  0.00    +0.000 A 
ATOM     30  O   UNL     1      46.943   4.067  13.329  0.00  0.00    +0.000 OA
ATOM     31  C   UNL     1      45.134   5.196  12.263  0.00  0.00    +0.000 A 
ATOM     32  H   UNL     1      45.601   2.055  13.073  0.00  0.00    +0.000 HD
ENDBRANCH  19  22
ENDBRANCH   1  20
TORSDOF 7
ENDMDL
MODEL 8
REMARK VINA RESULT:    -6.895      1.753      2.716
REMARK INTER + INTRA:         -10.709
REMARK INTER:                  -9.653
REMARK INTRA:                  -1.056
REMARK UNBOUND:                -0.993
REMARK  Name = 
REMARK  7 active torsions:
REMARK  status: ('A' for Active; 'I' for Inactive)
REMARK    1  A    between atoms: C_2  and  C_20
REMARK    2  A    between atoms: N_3  and  C_4
REMARK    3  A    between atoms: C_4  and  C_5
REMARK    4  A    between atoms: C_8  and  C_9
REMARK    5  A    between atoms: C_9  and  C_10
REMARK    6  A    between atoms: C_10  and  N_11
REMARK    7  A    between atoms: N_11  and  C_12
REMARK                            x       y       z     vdW  Elec       q    Type
REMARK                         _______ _______ _______ _____ _____    ______ ____
ROOT
ATOM      1  C   UNL     1      49.497   6.690  16.721  0.00  0.00    +0.000 C 
ENDROOT
BRANCH   1   2
ATOM      2  C   UNL     1      48.549   6.081  15.717  0.00  0.00    +0.000 A 
ATOM      3  C   UNL     1      48.318   6.723  14.501  0.00  0.00    +0.000 A 
ATOM      4  C   UNL     1      47.469   6.131  13.582  0.00  0.00    +0.000 A 
ATOM      5  C   UNL     1      46.879   4.892  13.864  0.00  0.00    +0.000 A 
ATOM      6  C   UNL     1      47.163   4.336  15.105  0.00  0.00    +0.000 A 
ATOM      7  N   UNL     1      47.966   4.899  16.036  0.00  0.00    +0.000 NA
BRANCH   5   8
ATOM      8  C   UNL     1      45.950   4.189  12.911  0.00  0.00    +0.000 C 
BRANCH   8   9
ATOM      9  C   UNL     1      44.563   4.839  12.756  0.00  0.00    +0.000 C 
BRANCH   9  10
ATOM     10  N   UNL     1      44.082   4.937  11.373  0.00  0.00    +0.000 NA
ATOM     11  H   UNL     1      44.024   5.910  11.073  0.00  0.00    +0.000 HD
BRANCH  10  12
ATOM     12  C   UNL     1      44.893   4.136  10.441  0.00  0.00    +0.000 C 
ATOM     13  C   UNL     1      45.271   4.866   9.141  0.00  0.00    +0.000 C 
ATOM     14  C   UNL     1      45.983   3.930   8.174  0.00  0.00    +0.000 C 
ATOM     15  O   UNL     1      45.177   2.788   7.902  0.00  0.00    +0.000 OA
ATOM     16  C   UNL     1      44.929   2.021   9.078  0.00  0.00    +0.000 C 
ATOM     17  C   UNL     1      44.153   2.834  10.109  0.00  0.00    +0.000 C 
ENDBRANCH  10  12
ENDBRANCH   9  10
ENDBRANCH   8   9
ENDBRANCH   5   8
ENDBRANCH   1   2
BRANCH   1  20
ATOM     18  O   UNL     1      49.947   5.571  19.199  0.00  0.00    +0.000 OA
ATOM     19  C   UNL     1      50.745   5.308  18.301  0.00  0.00    +0.000 C 
ATOM     20  N   UNL     1      50.619   5.833  17.040  0.00  0.00    +0.000 N 
ATOM     21  H   UNL     1      51.203   5.501  16.282  0.00  0.00    +0.000 HD
BRANCH  19  22
ATOM     22  C   UNL     1      51.909   4.460  18.528  0.00  0.00    +0.000 A 
ATOM     23  C   UNL     1      53.047   4.858  19.213  0.00  0.00    +0.000 A 
ATOM     24  S   UNL     1      54.178   3.590  19.420  0.00  0.00    +0.000 S 
ATOM     25  C   UNL     1      53.177   2.480  18.598  0.00  0.00    +0.000 A 
ATOM     26  N   UNL     1      53.544   1.183  18.428  0.00  0.00    +0.000 NA
ATOM     27  C   UNL     1      52.672   0.465  17.800  0.00  0.00    +0.000 A 
ATOM     28  N   UNL     1      51.474   0.926  17.318  0.00  0.00    +0.000 N 
ATOM     29  C   UNL     1      51.100   2.249  17.381  0.00  0.00    +0.000 A 
ATOM     30  O   UNL     1      50.121   2.647  16.765  0.00  0.00    +0.000 OA
ATOM     31  C   UNL     1      52.014   3.077  18.149  0.00  0.00    +0.000 A 
ATOM     32  H   UNL     1      50.862   0.331  16.781  0.00  0.00    +0.000 HD
ENDBRANCH  19  22
ENDBRANCH   1  20
TORSDOF 7
ENDMDL
MODEL 9
REMARK VINA RESULT:    -6.881      2.282      3.017
REMARK INTER + INTRA:         -10.689
REMARK INTER:                  -9.467
REMARK INTRA:                  -1.222
REMARK UNBOUND:                -0.993
REMARK  Name = 
REMARK  7 active torsions:
REMARK  status: ('A' for Active; 'I' for Inactive)
REMARK    1  A    between atoms: C_2  and  C_20
REMARK    2  A    between atoms: N_3  and  C_4
REMARK    3  A    between atoms: C_4  and  C_5
REMARK    4  A    between atoms: C_8  and  C_9
REMARK    5  A    between atoms: C_9  and  C_10
REMARK    6  A    between atoms: C_10  and  N_11
REMARK    7  A    between atoms: N_11  and  C_12
REMARK                            x       y       z     vdW  Elec       q    Type
REMARK                         _______ _______ _______ _____ _____    ______ ____
ROOT
ATOM      1  C   UNL     1      48.954   7.674  12.994  0.00  0.00    +0.000 C 
ENDROOT
BRANCH   1   2
ATOM      2  C   UNL     1      47.727   6.842  12.711  0.00  0.00    +0.000 A 
ATOM      3  C   UNL     1      46.755   7.313  11.828  0.00  0.00    +0.000 A 
ATOM      4  C   UNL     1      45.654   6.520  11.560  0.00  0.00    +0.000 A 
ATOM      5  C   UNL     1      45.539   5.252  12.146  0.00  0.00    +0.000 A 
ATOM      6  C   UNL     1      46.553   4.876  13.017  0.00  0.00    +0.000 A 
ATOM      7  N   UNL     1      47.629   5.636  13.322  0.00  0.00    +0.000 NA
BRANCH   5   8
ATOM      8  C   UNL     1      44.372   4.336  11.896  0.00  0.00    +0.000 C 
BRANCH   8   9
ATOM      9  C   UNL     1      44.655   3.169  10.933  0.00  0.00    +0.000 C 
BRANCH   9  10
ATOM     10  N   UNL     1      43.920   3.228   9.664  0.00  0.00    +0.000 NA
ATOM     11  H   UNL     1      43.489   4.143   9.532  0.00  0.00    +0.000 HD
BRANCH  10  12
ATOM     12  C   UNL     1      44.763   2.863   8.513  0.00  0.00    +0.000 C 
ATOM     13  C   UNL     1      45.683   1.655   8.757  0.00  0.00    +0.000 C 
ATOM     14  C   UNL     1      46.619   1.431   7.579  0.00  0.00    +0.000 C 
ATOM     15  O   UNL     1      47.381   2.606   7.317  0.00  0.00    +0.000 OA
ATOM     16  C   UNL     1      46.550   3.706   6.953  0.00  0.00    +0.000 C 
ATOM     17  C   UNL     1      45.603   4.076   8.089  0.00  0.00    +0.000 C 
ENDBRANCH  10  12
ENDBRANCH   9  10
ENDBRANCH   8   9
ENDBRANCH   5   8
ENDBRANCH   1   2
BRANCH   1  20
ATOM     18  O   UNL     1      50.172   8.949  15.112  0.00  0.00    +0.000 OA
ATOM     19  C   UNL     1      50.417   7.755  14.947  0.00  0.00    +0.000 C 
ATOM     20  N   UNL     1      49.877   7.039  13.909  0.00  0.00    +0.000 N 
ATOM     21  H   UNL     1      49.982   6.032  13.866  0.00  0.00    +0.000 HD
BRANCH  19  22
ATOM     22  C   UNL     1      51.339   7.030  15.813  0.00  0.00    +0.000 A 
ATOM     23  C   UNL     1      52.716   7.194  15.805  0.00  0.00    +0.000 A 
ATOM     24  S   UNL     1      53.502   6.293  17.030  0.00  0.00    +0.000 S 
ATOM     25  C   UNL     1      52.024   5.661  17.599  0.00  0.00    +0.000 A 
ATOM     26  N   UNL     1      51.975   4.815  18.661  0.00  0.00    +0.000 NA
ATOM     27  C   UNL     1      50.782   4.436  18.980  0.00  0.00    +0.000 A 
ATOM     28  N   UNL     1      49.636   4.816  18.331  0.00  0.00    +0.000 N 
ATOM     29  C   UNL     1      49.640   5.594  17.196  0.00  0.00    +0.000 A 
ATOM     30  O   UNL     1      48.619   5.742  16.541  0.00  0.00    +0.000 OA
ATOM     31  C   UNL     1      50.954   6.108  16.847  0.00  0.00    +0.000 A 
ATOM     32  H   UNL     1      48.738   4.438  18.590  0.00  0.00    +0.000 HD
ENDBRANCH  19  22
ENDBRANCH   1  20
TORSDOF 7
ENDMDL
