MODEL 1
REMARK VINA RESULT:    -7.739      0.000      0.000
REMARK INTER + INTRA:         -11.249
REMARK INTER:                 -10.453
REMARK INTRA:                  -0.796
REMARK UNBOUND:                -0.796
REMARK  Name = 
REMARK  7 active torsions:
REMARK  status: ('A' for Active; 'I' for Inactive)
REMARK    1  A    between atoms: N_1  and  C_2
REMARK    2  A    between atoms: C_2  and  C_3
REMARK    3  A    between atoms: C_6  and  O_7
REMARK    4  A    between atoms: O_7  and  C_8
REMARK    5  A    between atoms: C_8  and  C_9
REMARK    6  A    between atoms: C_12  and  S_13
REMARK    7  A    between atoms: S_13  and  N_14
REMARK                            x       y       z     vdW  Elec       q    Type
REMARK                         _______ _______ _______ _____ _____    ______ ____
ROOT
ATOM      1  C   UNL     1      43.591   4.118  11.251  0.00  0.00    +0.000 C 
ENDROOT
BRANCH   1   2
ATOM      2  C   UNL     1      44.727   4.802  11.974  0.00  0.00    +0.000 A 
ATOM      3  C   UNL     1      45.514   4.080  12.888  0.00  0.00    +0.000 A 
ATOM      4  C   UNL     1      46.590   4.690  13.534  0.00  0.00    +0.000 A 
ATOM      5  C   UNL     1      46.885   6.026  13.252  0.00  0.00    +0.000 A 
ATOM      6  C   UNL     1      46.101   6.763  12.360  0.00  0.00    +0.000 A 
ATOM      7  C   UNL     1      45.031   6.147  11.719  0.00  0.00    +0.000 A 
BRANCH   5   8
ATOM      8  S   UNL     1      48.286   6.802  13.993  0.00  0.00    +0.000 S 
ATOM      9  O   UNL     1      48.048   8.221  14.109  0.00  0.00    +0.000 OA
ATOM     10  O   UNL     1      48.759   5.994  15.094  0.00  0.00    +0.000 OA
BRANCH   8  11
ATOM     11  N   UNL     1      49.417   6.618  12.762  0.00  0.00    +0.000 NA
ATOM     12  H   UNL     1      49.649   5.635  12.636  0.00  0.00    +0.000 HD
ATOM     13  H   UNL     1      49.109   7.102  11.922  0.00  0.00    +0.000 HD
ENDBRANCH   8  11
ENDBRANCH   5   8
ENDBRANCH   1   2
BRANCH   1  14
ATOM     14  O   UNL     1      43.696   4.382   9.854  0.00  0.00    +0.000 OA
BRANCH  14  18
ATOM     15  C   UNL     1      46.570   2.290   7.647  0.00  0.00    +0.000 A 
ATOM     16  C   UNL     1      45.724   1.579   8.509  0.00  0.00    +0.000 A 
ATOM     17  C   UNL     1      44.746   2.236   9.259  0.00  0.00    +0.000 A 
ATOM     18  C   UNL     1      44.598   3.620   9.159  0.00  0.00    +0.000 A 
ATOM     19  C   UNL     1      45.427   4.332   8.289  0.00  0.00    +0.000 A 
ATOM     20  C   UNL     1      46.405   3.675   7.538  0.00  0.00    +0.000 A 
BRANCH  15  21
ATOM     21  C   UNL     1      47.658   1.576   6.888  0.00  0.00    +0.000 C 
BRANCH  21  22
ATOM     22  N   UNL     1      48.632   2.512   6.340  0.00  0.00    +0.000 NA
ATOM     23  H   UNL     1      48.232   3.449   6.345  0.00  0.00    +0.000 HD
ATOM     24  H   UNL     1      48.799   2.273   5.363  0.00  0.00    +0.000 HD
ENDBRANCH  21  22
ENDBRANCH  15  21
ENDBRANCH  14  18
ENDBRANCH   1  14
TORSDOF 7
ENDMDL
MODEL 2
REMARK VINA RESULT:    -7.334      1.661      2.223
REMARK INTER + INTRA:         -10.702
REMARK INTER:                  -9.986
REMARK INTRA:                  -0.716
REMARK UNBOUND:                -0.796
REMARK  Name = 
REMARK  7 active torsions:
REMARK  status: ('A' for Active; 'I' for Inactive)
REMARK    1  A    between atoms: N_1  and  C_2
REMARK    2  A    between atoms: C_2  and  C_3
REMARK    3  A    between atoms: C_6  and  O_7
REMARK    4  A    between atoms: O_7  and  C_8
REMARK    5  A    between atoms: C_8  and  C_9
REMARK    6  A    between atoms: C_12  and  S_13
REMARK    7  A    between atoms: S_13  and  N_14
REMARK                            x       y       z     vdW  Elec       q    Type
REMARK                         _______ _______ _______ _____ _____    ______ ____
ROOT
ATOM      1  C   UNL     1      44.731   5.880  10.432  0.00  0.00    +0.000 C 
ENDROOT
BRANCH   1   2
ATOM      2  C   UNL     1      45.371   5.532  11.755  0.00  0.00    +0.000 A 
ATOM      3  C   UNL     1      44.723   4.652  12.639  0.00  0.00    +0.000 A 
ATOM      4  C   UNL     1      45.322   4.292  13.847  0.00  0.00    +0.000 A 
ATOM      5  C   UNL     1      46.583   4.806  14.162  0.00  0.00    +0.000 A 
ATOM      6  C   UNL     1      47.232   5.696  13.302  0.00  0.00    +0.000 A 
ATOM      7  C   UNL     1      46.628   6.050  12.099  0.00  0.00    +0.000 A 
BRANCH   5   8
ATOM      8  S   UNL     1      47.399   4.308  15.644  0.00  0.00    +0.000 S 
ATOM      9  O   UNL     1      48.553   5.147  15.866  0.00  0.00    +0.000 OA
ATOM     10  O   UNL     1      46.418   4.039  16.670  0.00  0.00    +0.000 OA
BRANCH   8  11
ATOM     11  N   UNL     1      47.997   2.809  15.169  0.00  0.00    +0.000 NA
ATOM     12  H   UNL     1      47.245   2.224  14.809  0.00  0.00    +0.000 HD
ATOM     13  H   UNL     1      48.792   2.926  14.544  0.00  0.00    +0.000 HD
ENDBRANCH   8  11
ENDBRANCH   5   8
ENDBRANCH   1   2
BRANCH   1  14
ATOM     14  O   UNL     1      44.161   4.706   9.861  0.00  0.00    +0.000 OA
BRANCH  14  18
ATOM     15  C   UNL     1      46.583   2.134   7.620  0.00  0.00    +0.000 A 
ATOM     16  C   UNL     1      46.662   3.514   7.391  0.00  0.00    +0.000 A 
ATOM     17  C   UNL     1      45.876   4.409   8.121  0.00  0.00    +0.000 A 
ATOM     18  C   UNL     1      44.997   3.937   9.096  0.00  0.00    +0.000 A 
ATOM     19  C   UNL     1      44.926   2.563   9.340  0.00  0.00    +0.000 A 
ATOM     20  C   UNL     1      45.712   1.667   8.610  0.00  0.00    +0.000 A 
BRANCH  15  21
ATOM     21  C   UNL     1      47.393   1.176   6.786  0.00  0.00    +0.000 C 
BRANCH  21  22
ATOM     22  N   UNL     1      48.321   1.882   5.910  0.00  0.00    +0.000 NA
ATOM     23  H   UNL     1      49.022   2.354   6.478  0.00  0.00    +0.000 HD
ATOM     24  H   UNL     1      47.809   2.612   5.415  0.00  0.00    +0.000 HD
ENDBRANCH  21  22
ENDBRANCH  15  21
ENDBRANCH  14  18
ENDBRANCH   1  14
TORSDOF 7
ENDMDL
MODEL 3
REMARK VINA RESULT:    -7.177      2.930      6.454
REMARK INTER + INTRA:         -10.491
REMARK INTER:                  -9.697
REMARK INTRA:                  -0.793
REMARK UNBOUND:                -0.796
REMARK  Name = 
REMARK  7 active torsions:
REMARK  status: ('A' for Active; 'I' for Inactive)
REMARK    1  A    between atoms: N_1  and  C_2
REMARK    2  A    between atoms: C_2  and  C_3
REMARK    3  A    between atoms: C_6  and  O_7
REMARK    4  A    between atoms: O_7  and  C_8
REMARK    5  A    between atoms: C_8  and  C_9
REMARK    6  A    between atoms: C_12  and  S_13
REMARK    7  A    between atoms: S_13  and  N_14
REMARK                            x       y       z     vdW  Elec       q    Type
REMARK                         _______ _______ _______ _____ _____    ______ ____
ROOT
ATOM      1  C   UNL     1      43.509   4.479  10.558  0.00  0.00    +0.000 C 
ENDROOT
BRANCH   1   2
ATOM      2  C   UNL     1      44.498   3.814   9.631  0.00  0.00    +0.000 A 
ATOM      3  C   UNL     1      44.620   2.414   9.621  0.00  0.00    +0.000 A 
ATOM      4  C   UNL     1      45.502   1.785   8.741  0.00  0.00    +0.000 A 
ATOM      5  C   UNL     1      46.255   2.564   7.859  0.00  0.00    +0.000 A 
ATOM      6  C   UNL     1      46.159   3.958   7.869  0.00  0.00    +0.000 A 
ATOM      7  C   UNL     1      45.276   4.578   8.749  0.00  0.00    +0.000 A 
BRANCH   5   8
ATOM      8  S   UNL     1      47.321   1.794   6.683  0.00  0.00    +0.000 S 
ATOM      9  O   UNL     1      48.669   2.280   6.860  0.00  0.00    +0.000 OA
ATOM     10  O   UNL     1      47.000   0.389   6.587  0.00  0.00    +0.000 OA
BRANCH   8  11
ATOM     11  N   UNL     1      46.756   2.496   5.262  0.00  0.00    +0.000 NA
ATOM     12  H   UNL     1      46.950   3.495   5.257  0.00  0.00    +0.000 HD
ATOM     13  H   UNL     1      47.098   1.983   4.452  0.00  0.00    +0.000 HD
ENDBRANCH   8  11
ENDBRANCH   5   8
ENDBRANCH   1   2
BRANCH   1  14
ATOM     14  O   UNL     1      43.864   4.193  11.908  0.00  0.00    +0.000 OA
BRANCH  14  18
ATOM     15  C   UNL     1      47.231   6.083  13.521  0.00  0.00    +0.000 A 
ATOM     16  C   UNL     1      46.287   6.852  12.828  0.00  0.00    +0.000 A 
ATOM     17  C   UNL     1      45.145   6.263  12.280  0.00  0.00    +0.000 A 
ATOM     18  C   UNL     1      44.928   4.891  12.416  0.00  0.00    +0.000 A 
ATOM     19  C   UNL     1      45.858   4.123  13.120  0.00  0.00    +0.000 A 
ATOM     20  C   UNL     1      47.001   4.711  13.669  0.00  0.00    +0.000 A 
BRANCH  15  21
ATOM     21  C   UNL     1      48.486   6.721  14.057  0.00  0.00    +0.000 C 
BRANCH  21  22
ATOM     22  N   UNL     1      49.518   6.816  13.031  0.00  0.00    +0.000 NA
ATOM     23  H   UNL     1      49.131   6.511  12.140  0.00  0.00    +0.000 HD
ATOM     24  H   UNL     1      50.266   6.163  13.261  0.00  0.00    +0.000 HD
ENDBRANCH  21  22
ENDBRANCH  15  21
ENDBRANCH  14  18
ENDBRANCH   1  14
TORSDOF 7
ENDMDL
MODEL 4
REMARK VINA RESULT:    -5.920      4.112      8.270
REMARK INTER + INTRA:          -8.792
REMARK INTER:                  -8.374
REMARK INTRA:                  -0.418
REMARK UNBOUND:                -0.796
REMARK  Name = 
REMARK  7 active torsions:
REMARK  status: ('A' for Active; 'I' for Inactive)
REMARK    1  A    between atoms: N_1  and  C_2
REMARK    2  A    between atoms: C_2  and  C_3
REMARK    3  A    between atoms: C_6  and  O_7
REMARK    4  A    between atoms: O_7  and  C_8
REMARK    5  A    between atoms: C_8  and  C_9
REMARK    6  A    between atoms: C_12  and  S_13
REMARK    7  A    between atoms: S_13  and  N_14
REMARK                            x       y       z     vdW  Elec       q    Type
REMARK                         _______ _______ _______ _____ _____    ______ ____
ROOT
ATOM      1  C   UNL     1      47.814   6.843  14.056  0.00  0.00    +0.000 C 
ENDROOT
BRANCH   1   2
ATOM      2  C   UNL     1      46.878   6.051  13.174  0.00  0.00    +0.000 A 
ATOM      3  C   UNL     1      46.633   6.470  11.855  0.00  0.00    +0.000 A 
ATOM      4  C   UNL     1      45.800   5.726  11.018  0.00  0.00    +0.000 A 
ATOM      5  C   UNL     1      45.222   4.550  11.503  0.00  0.00    +0.000 A 
ATOM      6  C   UNL     1      45.441   4.130  12.817  0.00  0.00    +0.000 A 
ATOM      7  C   UNL     1      46.273   4.877  13.646  0.00  0.00    +0.000 A 
BRANCH   5   8
ATOM      8  S   UNL     1      44.229   3.547  10.444  0.00  0.00    +0.000 S 
ATOM      9  O   UNL     1      45.072   2.628   9.717  0.00  0.00    +0.000 OA
ATOM     10  O   UNL     1      43.040   3.129  11.150  0.00  0.00    +0.000 OA
BRANCH   8  11
ATOM     11  N   UNL     1      43.724   4.699   9.327  0.00  0.00    +0.000 NA
ATOM     12  H   UNL     1      44.389   4.765   8.559  0.00  0.00    +0.000 HD
ATOM     13  H   UNL     1      42.759   4.528   9.052  0.00  0.00    +0.000 HD
ENDBRANCH   8  11
ENDBRANCH   5   8
ENDBRANCH   1   2
BRANCH   1  14
ATOM     14  O   UNL     1      48.701   5.950  14.723  0.00  0.00    +0.000 OA
BRANCH  14  18
ATOM     15  C   UNL     1      48.344   5.528  18.870  0.00  0.00    +0.000 A 
ATOM     16  C   UNL     1      48.789   6.750  18.346  0.00  0.00    +0.000 A 
ATOM     17  C   UNL     1      48.916   6.936  16.968  0.00  0.00    +0.000 A 
ATOM     18  C   UNL     1      48.599   5.901  16.088  0.00  0.00    +0.000 A 
ATOM     19  C   UNL     1      48.140   4.686  16.603  0.00  0.00    +0.000 A 
ATOM     20  C   UNL     1      48.012   4.499  17.982  0.00  0.00    +0.000 A 
BRANCH  15  21
ATOM     21  C   UNL     1      48.267   5.322  20.360  0.00  0.00    +0.000 C 
BRANCH  21  22
ATOM     22  N   UNL     1      48.433   3.918  20.716  0.00  0.00    +0.000 NA
ATOM     23  H   UNL     1      49.048   3.849  21.524  0.00  0.00    +0.000 HD
ATOM     24  H   UNL     1      48.907   3.442  19.949  0.00  0.00    +0.000 HD
ENDBRANCH  21  22
ENDBRANCH  15  21
ENDBRANCH  14  18
ENDBRANCH   1  14
TORSDOF 7
ENDMDL
MODEL 5
REMARK VINA RESULT:    -5.757      4.540      7.852
REMARK INTER + INTRA:          -8.573
REMARK INTER:                  -8.075
REMARK INTRA:                  -0.498
REMARK UNBOUND:                -0.796
REMARK  Name = 
REMARK  7 active torsions:
REMARK  status: ('A' for Active; 'I' for Inactive)
REMARK    1  A    between atoms: N_1  and  C_2
REMARK    2  A    between atoms: C_2  and  C_3
REMARK    3  A    between atoms: C_6  and  O_7
REMARK    4  A    between atoms: O_7  and  C_8
REMARK    5  A    between atoms: C_8  and  C_9
REMARK    6  A    between atoms: C_12  and  S_13
REMARK    7  A    between atoms: S_13  and  N_14
REMARK                            x       y       z     vdW  Elec       q    Type
REMARK                         _______ _______ _______ _____ _____    ______ ____
ROOT
ATOM      1  C   UNL     1      47.843   5.342  15.109  0.00  0.00    +0.000 C 
ENDROOT
BRANCH   1   2
ATOM      2  C   UNL     1      46.854   4.978  14.028  0.00  0.00    +0.000 A 
ATOM      3  C   UNL     1      46.132   5.987  13.368  0.00  0.00    +0.000 A 
ATOM      4  C   UNL     1      45.243   5.667  12.341  0.00  0.00    +0.000 A 
ATOM      5  C   UNL     1      45.087   4.330  11.967  0.00  0.00    +0.000 A 
ATOM      6  C   UNL     1      45.784   3.313  12.626  0.00  0.00    +0.000 A 
ATOM      7  C   UNL     1      46.670   3.641  13.648  0.00  0.00    +0.000 A 
BRANCH   5   8
ATOM      8  S   UNL     1      44.030   3.902  10.621  0.00  0.00    +0.000 S 
ATOM      9  O   UNL     1      44.817   3.735   9.422  0.00  0.00    +0.000 OA
ATOM     10  O   UNL     1      43.057   2.929  11.061  0.00  0.00    +0.000 OA
BRANCH   8  11
ATOM     11  N   UNL     1      43.189   5.346  10.429  0.00  0.00    +0.000 NA
ATOM     12  H   UNL     1      43.507   6.036  11.107  0.00  0.00    +0.000 HD
ATOM     13  H   UNL     1      43.218   5.646   9.457  0.00  0.00    +0.000 HD
ENDBRANCH   8  11
ENDBRANCH   5   8
ENDBRANCH   1   2
BRANCH   1  14
ATOM     14  O   UNL     1      47.684   4.454  16.212  0.00  0.00    +0.000 OA
BRANCH  14  18
ATOM     15  C   UNL     1      51.102   2.447  17.553  0.00  0.00    +0.000 A 
ATOM     16  C   UNL     1      51.005   3.832  17.751  0.00  0.00    +0.000 A 
ATOM     17  C   UNL     1      49.878   4.540  17.325  0.00  0.00    +0.000 A 
ATOM     18  C   UNL     1      48.828   3.873  16.693  0.00  0.00    +0.000 A 
ATOM     19  C   UNL     1      48.912   2.491  16.508  0.00  0.00    +0.000 A 
ATOM     20  C   UNL     1      50.039   1.782  16.933  0.00  0.00    +0.000 A 
BRANCH  15  21
ATOM     21  C   UNL     1      52.347   1.706  17.964  0.00  0.00    +0.000 C 
BRANCH  21  22
ATOM     22  N   UNL     1      52.082   0.288  18.172  0.00  0.00    +0.000 NA
ATOM     23  H   UNL     1      52.006  -0.173  17.268  0.00  0.00    +0.000 HD
ATOM     24  H   UNL     1      51.173   0.190  18.625  0.00  0.00    +0.000 HD
ENDBRANCH  21  22
ENDBRANCH  15  21
ENDBRANCH  14  18
ENDBRANCH   1  14
TORSDOF 7
ENDMDL
MODEL 6
REMARK VINA RESULT:    -5.416      4.100      7.908
REMARK INTER + INTRA:          -8.111
REMARK INTER:                  -7.641
REMARK INTRA:                  -0.471
REMARK UNBOUND:                -0.796
REMARK  Name = 
REMARK  7 active torsions:
REMARK  status: ('A' for Active; 'I' for Inactive)
REMARK    1  A    between atoms: N_1  and  C_2
REMARK    2  A    between atoms: C_2  and  C_3
REMARK    3  A    between atoms: C_6  and  O_7
REMARK    4  A    between atoms: O_7  and  C_8
REMARK    5  A    between atoms: C_8  and  C_9
REMARK    6  A    between atoms: C_12  and  S_13
REMARK    7  A    between atoms: S_13  and  N_14
REMARK                            x       y       z     vdW  Elec       q    Type
REMARK                         _______ _______ _______ _____ _____    ______ ____
ROOT
ATOM      1  C   UNL     1      48.427   6.688  13.521  0.00  0.00    +0.000 C 
ENDROOT
BRANCH   1   2
ATOM      2  C   UNL     1      47.185   6.116  12.881  0.00  0.00    +0.000 A 
ATOM      3  C   UNL     1      46.419   5.158  13.567  0.00  0.00    +0.000 A 
ATOM      4  C   UNL     1      45.248   4.649  13.003  0.00  0.00    +0.000 A 
ATOM      5  C   UNL     1      44.837   5.115  11.751  0.00  0.00    +0.000 A 
ATOM      6  C   UNL     1      45.597   6.053  11.048  0.00  0.00    +0.000 A 
ATOM      7  C   UNL     1      46.763   6.556  11.618  0.00  0.00    +0.000 A 
BRANCH   5   8
ATOM      8  S   UNL     1      43.321   4.549  11.048  0.00  0.00    +0.000 S 
ATOM      9  O   UNL     1      43.172   3.134  11.293  0.00  0.00    +0.000 OA
ATOM     10  O   UNL     1      42.275   5.506  11.321  0.00  0.00    +0.000 OA
BRANCH   8  11
ATOM     11  N   UNL     1      43.675   4.704   9.410  0.00  0.00    +0.000 NA
ATOM     12  H   UNL     1      44.495   5.291   9.277  0.00  0.00    +0.000 HD
ATOM     13  H   UNL     1      43.721   3.787   8.969  0.00  0.00    +0.000 HD
ENDBRANCH   8  11
ENDBRANCH   5   8
ENDBRANCH   1   2
BRANCH   1  14
ATOM     14  O   UNL     1      48.161   6.974  14.891  0.00  0.00    +0.000 OA
BRANCH  14  18
ATOM     15  C   UNL     1      50.685   5.099  17.652  0.00  0.00    +0.000 A 
ATOM     16  C   UNL     1      49.351   4.680  17.557  0.00  0.00    +0.000 A 
ATOM     17  C   UNL     1      48.476   5.273  16.644  0.00  0.00    +0.000 A 
ATOM     18  C   UNL     1      48.922   6.299  15.809  0.00  0.00    +0.000 A 
ATOM     19  C   UNL     1      50.255   6.709  15.888  0.00  0.00    +0.000 A 
ATOM     20  C   UNL     1      51.131   6.116  16.801  0.00  0.00    +0.000 A 
BRANCH  15  21
ATOM     21  C   UNL     1      51.602   4.490  18.681  0.00  0.00    +0.000 C 
BRANCH  21  22
ATOM     22  N   UNL     1      50.987   4.471  20.002  0.00  0.00    +0.000 NA
ATOM     23  H   UNL     1      50.154   3.886  19.974  0.00  0.00    +0.000 HD
ATOM     24  H   UNL     1      50.671   5.414  20.227  0.00  0.00    +0.000 HD
ENDBRANCH  21  22
ENDBRANCH  15  21
ENDBRANCH  14  18
ENDBRANCH   1  14
TORSDOF 7
ENDMDL
MODEL 7
REMARK VINA RESULT:    -5.357      1.835      2.385
REMARK INTER + INTRA:          -8.033
REMARK INTER:                  -7.431
REMARK INTRA:                  -0.601
REMARK UNBOUND:                -0.796
REMARK  Name = 
REMARK  7 active torsions:
REMARK  status: ('A' for Active; 'I' for Inactive)
REMARK    1  A    between atoms: N_1  and  C_2
REMARK    2  A    between atoms: C_2  and  C_3
REMARK    3  A    between atoms: C_6  and  O_7
REMARK    4  A    between atoms: O_7  and  C_8
REMARK    5  A    between atoms: C_8  and  C_9
REMARK    6  A    between atoms: C_12  and  S_13
REMARK    7  A    between atoms: S_13  and  N_14
REMARK                            x       y       z     vdW  Elec       q    Type
REMARK                         _______ _______ _______ _____ _____    ______ ____
ROOT
ATOM      1  C   UNL     1      44.669   4.875  12.905  0.00  0.00    +0.000 C 
ENDROOT
BRANCH   1   2
ATOM      2  C   UNL     1      45.714   5.964  12.848  0.00  0.00    +0.000 A 
ATOM      3  C   UNL     1      45.324   7.300  12.653  0.00  0.00    +0.000 A 
ATOM      4  C   UNL     1      46.276   8.321  12.637  0.00  0.00    +0.000 A 
ATOM      5  C   UNL     1      47.622   8.000  12.831  0.00  0.00    +0.000 A 
ATOM      6  C   UNL     1      48.027   6.675  13.008  0.00  0.00    +0.000 A 
ATOM      7  C   UNL     1      47.072   5.663  13.024  0.00  0.00    +0.000 A 
BRANCH   5   8
ATOM      8  S   UNL     1      48.838   9.277  12.894  0.00  0.00    +0.000 S 
ATOM      9  O   UNL     1      48.538  10.178  13.982  0.00  0.00    +0.000 OA
ATOM     10  O   UNL     1      50.149   8.706  12.688  0.00  0.00    +0.000 OA
BRANCH   8  11
ATOM     11  N   UNL     1      48.469  10.113  11.481  0.00  0.00    +0.000 NA
ATOM     12  H   UNL     1      49.295  10.198  10.892  0.00  0.00    +0.000 HD
ATOM     13  H   UNL     1      47.654   9.704  11.030  0.00  0.00    +0.000 HD
ENDBRANCH   8  11
ENDBRANCH   5   8
ENDBRANCH   1   2
BRANCH   1  14
ATOM     14  O   UNL     1      43.902   4.895  11.705  0.00  0.00    +0.000 OA
BRANCH  14  18
ATOM     15  C   UNL     1      45.656   3.096   8.360  0.00  0.00    +0.000 A 
ATOM     16  C   UNL     1      44.986   2.291   9.291  0.00  0.00    +0.000 A 
ATOM     17  C   UNL     1      44.379   2.851  10.418  0.00  0.00    +0.000 A 
ATOM     18  C   UNL     1      44.435   4.229  10.633  0.00  0.00    +0.000 A 
ATOM     19  C   UNL     1      45.088   5.038   9.700  0.00  0.00    +0.000 A 
ATOM     20  C   UNL     1      45.694   4.479   8.572  0.00  0.00    +0.000 A 
BRANCH  15  21
ATOM     21  C   UNL     1      46.355   2.473   7.180  0.00  0.00    +0.000 C 
BRANCH  21  22
ATOM     22  N   UNL     1      46.935   1.181   7.523  0.00  0.00    +0.000 NA
ATOM     23  H   UNL     1      46.352   0.440   7.138  0.00  0.00    +0.000 HD
ATOM     24  H   UNL     1      46.911   1.072   8.536  0.00  0.00    +0.000 HD
ENDBRANCH  21  22
ENDBRANCH  15  21
ENDBRANCH  14  18
ENDBRANCH   1  14
TORSDOF 7
ENDMDL
MODEL 8
REMARK VINA RESULT:    -5.148      4.162      7.973
REMARK INTER + INTRA:          -7.750
REMARK INTER:                  -7.264
REMARK INTRA:                  -0.486
REMARK UNBOUND:                -0.796
REMARK  Name = 
REMARK  7 active torsions:
REMARK  status: ('A' for Active; 'I' for Inactive)
REMARK    1  A    between atoms: N_1  and  C_2
REMARK    2  A    between atoms: C_2  and  C_3
REMARK    3  A    between atoms: C_6  and  O_7
REMARK    4  A    between atoms: O_7  and  C_8
REMARK    5  A    between atoms: C_8  and  C_9
REMARK    6  A    between atoms: C_12  and  S_13
REMARK    7  A    between atoms: S_13  and  N_14
REMARK                            x       y       z     vdW  Elec       q    Type
REMARK                         _______ _______ _______ _____ _____    ______ ____
ROOT
ATOM      1  C   UNL     1      48.537   6.986  13.387  0.00  0.00    +0.000 C 
ENDROOT
BRANCH   1   2
ATOM      2  C   UNL     1      47.342   6.199  12.904  0.00  0.00    +0.000 A 
ATOM      3  C   UNL     1      46.719   6.543  11.692  0.00  0.00    +0.000 A 
ATOM      4  C   UNL     1      45.639   5.800  11.214  0.00  0.00    +0.000 A 
ATOM      5  C   UNL     1      45.190   4.700  11.950  0.00  0.00    +0.000 A 
ATOM      6  C   UNL     1      45.787   4.356  13.166  0.00  0.00    +0.000 A 
ATOM      7  C   UNL     1      46.865   5.102  13.634  0.00  0.00    +0.000 A 
BRANCH   5   8
ATOM      8  S   UNL     1      43.877   3.695  11.333  0.00  0.00    +0.000 S 
ATOM      9  O   UNL     1      42.631   4.420  11.422  0.00  0.00    +0.000 OA
ATOM     10  O   UNL     1      44.308   3.022  10.130  0.00  0.00    +0.000 OA
BRANCH   8  11
ATOM     11  N   UNL     1      43.816   2.514  12.530  0.00  0.00    +0.000 NA
ATOM     12  H   UNL     1      42.850   2.272  12.741  0.00  0.00    +0.000 HD
ATOM     13  H   UNL     1      44.417   1.730  12.285  0.00  0.00    +0.000 HD
ENDBRANCH   8  11
ENDBRANCH   5   8
ENDBRANCH   1   2
BRANCH   1  14
ATOM     14  O   UNL     1      48.395   7.249  14.781  0.00  0.00    +0.000 OA
BRANCH  14  18
ATOM     15  C   UNL     1      51.225   5.550  17.352  0.00  0.00    +0.000 A 
ATOM     16  C   UNL     1      51.635   6.538  16.446  0.00  0.00    +0.000 A 
ATOM     17  C   UNL     1      50.722   7.137  15.574  0.00  0.00    +0.000 A 
ATOM     18  C   UNL     1      49.380   6.756  15.594  0.00  0.00    +0.000 A 
ATOM     19  C   UNL     1      48.962   5.784  16.507  0.00  0.00    +0.000 A 
ATOM     20  C   UNL     1      49.875   5.185  17.379  0.00  0.00    +0.000 A 
BRANCH  15  21
ATOM     21  C   UNL     1      52.230   4.872  18.245  0.00  0.00    +0.000 C 
BRANCH  21  22
ATOM     22  N   UNL     1      51.686   3.658  18.840  0.00  0.00    +0.000 NA
ATOM     23  H   UNL     1      50.694   3.794  19.026  0.00  0.00    +0.000 HD
ATOM     24  H   UNL     1      52.133   3.510  19.744  0.00  0.00    +0.000 HD
ENDBRANCH  21  22
ENDBRANCH  15  21
ENDBRANCH  14  18
ENDBRANCH   1  14
TORSDOF 7
ENDMDL
