MODEL 1
REMARK VINA RESULT:    -8.624      0.000      0.000
REMARK INTER + INTRA:         -11.617
REMARK INTER:                 -11.144
REMARK INTRA:                  -0.473
REMARK UNBOUND:                -0.473
REMARK  Name = 
REMARK  5 active torsions:
REMARK  status: ('A' for Active; 'I' for Inactive)
REMARK    1  A    between atoms: C_2  and  C_4
REMARK    2  A    between atoms: C_8  and  N_9
REMARK    3  A    between atoms: N_9  and  C_10
REMARK    4  A    between atoms: C_10  and  C_11
REMARK    5  A    between atoms: C_15  and  C_16
REMARK                            x       y       z     vdW  Elec       q    Type
REMARK                         _______ _______ _______ _____ _____    ______ ____
ROOT
ATOM      1  N   UNL     1      44.073   2.342  10.730  0.00  0.00    +0.000 N 
ATOM      2  H   UNL     1      43.347   1.670  10.504  0.00  0.00    +0.000 HD
ENDROOT
BRANCH   1   7
ATOM      3  C   UNL     1      46.278   2.054   7.944  0.00  0.00    +0.000 A 
ATOM      4  C   UNL     1      46.345   3.327   7.401  0.00  0.00    +0.000 A 
ATOM      5  C   UNL     1      45.576   4.317   7.986  0.00  0.00    +0.000 A 
ATOM      6  C   UNL     1      44.791   3.999   9.092  0.00  0.00    +0.000 A 
ATOM      7  C   UNL     1      44.769   2.694   9.587  0.00  0.00    +0.000 A 
ATOM      8  N   UNL     1      45.499   1.713   9.015  0.00  0.00    +0.000 NA
BRANCH   3  10
ATOM      9  N   UNL     1      46.795  -0.309   7.696  0.00  0.00    +0.000 N 
ATOM     10  C   UNL     1      47.114   0.970   7.335  0.00  0.00    +0.000 C 
ATOM     11  O   UNL     1      48.028   1.202   6.552  0.00  0.00    +0.000 OA
ATOM     12  H   UNL     1      47.320  -1.077   7.304  0.00  0.00    +0.000 HD
ATOM     13  H   UNL     1      46.019  -0.476   8.325  0.00  0.00    +0.000 HD
ENDBRANCH   3  10
ENDBRANCH   1   7
BRANCH   1  14
ATOM     14  C   UNL     1      43.691   3.369  11.698  0.00  0.00    +0.000 C 
BRANCH  14  15
ATOM     15  C   UNL     1      44.891   4.003  12.391  0.00  0.00    +0.000 A 
ATOM     16  N   UNL     1      45.737   3.182  13.048  0.00  0.00    +0.000 NA
ATOM     17  C   UNL     1      46.811   3.755  13.612  0.00  0.00    +0.000 A 
ATOM     18  C   UNL     1      47.082   5.099  13.531  0.00  0.00    +0.000 A 
ATOM     19  C   UNL     1      46.177   5.876  12.832  0.00  0.00    +0.000 A 
ATOM     20  N   UNL     1      45.065   5.338  12.276  0.00  0.00    +0.000 NA
BRANCH  19  21
ATOM     21  C   UNL     1      46.361   7.330  12.640  0.00  0.00    +0.000 A 
ATOM     22  C   UNL     1      45.273   8.191  12.414  0.00  0.00    +0.000 A 
ATOM     23  C   UNL     1      45.503   9.543  12.223  0.00  0.00    +0.000 A 
ATOM     24  N   UNL     1      46.726  10.106  12.245  0.00  0.00    +0.000 NA
ATOM     25  C   UNL     1      47.764   9.278  12.480  0.00  0.00    +0.000 A 
ATOM     26  C   UNL     1      47.632   7.912  12.685  0.00  0.00    +0.000 A 
ENDBRANCH  19  21
ENDBRANCH  14  15
ENDBRANCH   1  14
TORSDOF 5
ENDMDL
MODEL 2
REMARK VINA RESULT:    -8.494      2.477      6.481
REMARK INTER + INTRA:         -11.449
REMARK INTER:                 -10.826
REMARK INTRA:                  -0.624
REMARK UNBOUND:                -0.473
REMARK  Name = 
REMARK  5 active torsions:
REMARK  status: ('A' for Active; 'I' for Inactive)
REMARK    1  A    between atoms: C_2  and  C_4
REMARK    2  A    between atoms: C_8  and  N_9
REMARK    3  A    between atoms: N_9  and  C_10
REMARK    4  A    between atoms: C_10  and  C_11
REMARK    5  A    between atoms: C_15  and  C_16
REMARK                            x       y       z     vdW  Elec       q    Type
REMARK                         _______ _______ _______ _____ _____    ______ ____
ROOT
ATOM      1  N   UNL     1      44.062   6.852  12.199  0.00  0.00    +0.000 N 
ATOM      2  H   UNL     1      43.521   6.794  13.056  0.00  0.00    +0.000 HD
ENDROOT
BRANCH   1   7
ATOM      3  C   UNL     1      46.929   5.386  13.726  0.00  0.00    +0.000 A 
ATOM      4  C   UNL     1      48.014   6.052  13.178  0.00  0.00    +0.000 A 
ATOM      5  C   UNL     1      47.758   7.014  12.217  0.00  0.00    +0.000 A 
ATOM      6  C   UNL     1      46.438   7.281  11.862  0.00  0.00    +0.000 A 
ATOM      7  C   UNL     1      45.393   6.570  12.454  0.00  0.00    +0.000 A 
ATOM      8  N   UNL     1      45.627   5.616  13.379  0.00  0.00    +0.000 NA
BRANCH   3  10
ATOM      9  N   UNL     1      47.103   4.779  16.075  0.00  0.00    +0.000 N 
ATOM     10  C   UNL     1      47.183   4.350  14.779  0.00  0.00    +0.000 C 
ATOM     11  O   UNL     1      47.440   3.183  14.509  0.00  0.00    +0.000 OA
ATOM     12  H   UNL     1      47.253   4.118  16.823  0.00  0.00    +0.000 HD
ATOM     13  H   UNL     1      46.864   5.744  16.273  0.00  0.00    +0.000 HD
ENDBRANCH   3  10
ENDBRANCH   1   7
BRANCH   1  14
ATOM     14  C   UNL     1      43.412   6.295  11.014  0.00  0.00    +0.000 C 
BRANCH  14  15
ATOM     15  C   UNL     1      43.703   4.811  10.822  0.00  0.00    +0.000 A 
ATOM     16  N   UNL     1      43.082   3.942  11.647  0.00  0.00    +0.000 NA
ATOM     17  C   UNL     1      43.316   2.639  11.430  0.00  0.00    +0.000 A 
ATOM     18  C   UNL     1      44.121   2.172  10.421  0.00  0.00    +0.000 A 
ATOM     19  C   UNL     1      44.714   3.120   9.609  0.00  0.00    +0.000 A 
ATOM     20  N   UNL     1      44.527   4.446   9.816  0.00  0.00    +0.000 NA
BRANCH  19  21
ATOM     21  C   UNL     1      45.579   2.757   8.466  0.00  0.00    +0.000 A 
ATOM     22  C   UNL     1      46.102   1.461   8.316  0.00  0.00    +0.000 A 
ATOM     23  C   UNL     1      46.922   1.177   7.236  0.00  0.00    +0.000 A 
ATOM     24  N   UNL     1      47.256   2.079   6.293  0.00  0.00    +0.000 NA
ATOM     25  C   UNL     1      46.738   3.315   6.433  0.00  0.00    +0.000 A 
ATOM     26  C   UNL     1      45.907   3.691   7.478  0.00  0.00    +0.000 A 
ENDBRANCH  19  21
ENDBRANCH  14  15
ENDBRANCH   1  14
TORSDOF 5
ENDMDL
MODEL 3
REMARK VINA RESULT:    -7.747      1.695      2.167
REMARK INTER + INTRA:         -10.484
REMARK INTER:                  -9.872
REMARK INTRA:                  -0.612
REMARK UNBOUND:                -0.473
REMARK  Name = 
REMARK  5 active torsions:
REMARK  status: ('A' for Active; 'I' for Inactive)
REMARK    1  A    between atoms: C_2  and  C_4
REMARK    2  A    between atoms: C_8  and  N_9
REMARK    3  A    between atoms: N_9  and  C_10
REMARK    4  A    between atoms: C_10  and  C_11
REMARK    5  A    between atoms: C_15  and  C_16
REMARK                            x       y       z     vdW  Elec       q    Type
REMARK                         _______ _______ _______ _____ _____    ______ ____
ROOT
ATOM      1  N   UNL     1      44.199   4.773   9.119  0.00  0.00    +0.000 N 
ATOM      2  H   UNL     1      44.676   5.602   8.780  0.00  0.00    +0.000 HD
ENDROOT
BRANCH   1   7
ATOM      3  C   UNL     1      46.405   2.659   7.284  0.00  0.00    +0.000 A 
ATOM      4  C   UNL     1      46.213   1.391   7.809  0.00  0.00    +0.000 A 
ATOM      5  C   UNL     1      45.322   1.258   8.858  0.00  0.00    +0.000 A 
ATOM      6  C   UNL     1      44.652   2.387   9.324  0.00  0.00    +0.000 A 
ATOM      7  C   UNL     1      44.895   3.636   8.751  0.00  0.00    +0.000 A 
ATOM      8  N   UNL     1      45.776   3.785   7.739  0.00  0.00    +0.000 NA
BRANCH   3  10
ATOM      9  N   UNL     1      48.668   2.555   6.402  0.00  0.00    +0.000 N 
ATOM     10  C   UNL     1      47.355   2.823   6.137  0.00  0.00    +0.000 C 
ATOM     11  O   UNL     1      46.988   3.169   5.020  0.00  0.00    +0.000 OA
ATOM     12  H   UNL     1      49.348   2.638   5.660  0.00  0.00    +0.000 HD
ATOM     13  H   UNL     1      48.943   2.246   7.327  0.00  0.00    +0.000 HD
ENDBRANCH   3  10
ENDBRANCH   1   7
BRANCH   1  14
ATOM     14  C   UNL     1      43.640   4.884  10.466  0.00  0.00    +0.000 C 
BRANCH  14  15
ATOM     15  C   UNL     1      44.698   5.178  11.523  0.00  0.00    +0.000 A 
ATOM     16  N   UNL     1      44.875   4.264  12.499  0.00  0.00    +0.000 NA
ATOM     17  C   UNL     1      45.843   4.520  13.392  0.00  0.00    +0.000 A 
ATOM     18  C   UNL     1      46.646   5.633  13.340  0.00  0.00    +0.000 A 
ATOM     19  C   UNL     1      46.413   6.520  12.305  0.00  0.00    +0.000 A 
ATOM     20  N   UNL     1      45.425   6.310  11.402  0.00  0.00    +0.000 NA
BRANCH  19  21
ATOM     21  C   UNL     1      47.223   7.741  12.110  0.00  0.00    +0.000 A 
ATOM     22  C   UNL     1      48.575   7.680  11.731  0.00  0.00    +0.000 A 
ATOM     23  C   UNL     1      49.294   8.854  11.579  0.00  0.00    +0.000 A 
ATOM     24  N   UNL     1      48.772  10.082  11.768  0.00  0.00    +0.000 NA
ATOM     25  C   UNL     1      47.470  10.134  12.114  0.00  0.00    +0.000 A 
ATOM     26  C   UNL     1      46.671   9.014  12.287  0.00  0.00    +0.000 A 
ENDBRANCH  19  21
ENDBRANCH  14  15
ENDBRANCH   1  14
TORSDOF 5
ENDMDL
MODEL 4
REMARK VINA RESULT:    -7.394      2.398      3.892
REMARK INTER + INTRA:         -10.028
REMARK INTER:                  -9.447
REMARK INTRA:                  -0.581
REMARK UNBOUND:                -0.473
REMARK  Name = 
REMARK  5 active torsions:
REMARK  status: ('A' for Active; 'I' for Inactive)
REMARK    1  A    between atoms: C_2  and  C_4
REMARK    2  A    between atoms: C_8  and  N_9
REMARK    3  A    between atoms: N_9  and  C_10
REMARK    4  A    between atoms: C_10  and  C_11
REMARK    5  A    between atoms: C_15  and  C_16
REMARK                            x       y       z     vdW  Elec       q    Type
REMARK                         _______ _______ _______ _____ _____    ______ ____
ROOT
ATOM      1  N   UNL     1      45.266   5.562   9.559  0.00  0.00    +0.000 N 
ATOM      2  H   UNL     1      45.891   6.221   9.107  0.00  0.00    +0.000 HD
ENDROOT
BRANCH   1   7
ATOM      3  C   UNL     1      46.449   2.951   7.441  0.00  0.00    +0.000 A 
ATOM      4  C   UNL     1      45.886   1.789   7.946  0.00  0.00    +0.000 A 
ATOM      5  C   UNL     1      45.101   1.897   9.080  0.00  0.00    +0.000 A 
ATOM      6  C   UNL     1      44.899   3.154   9.646  0.00  0.00    +0.000 A 
ATOM      7  C   UNL     1      45.499   4.282   9.086  0.00  0.00    +0.000 A 
ATOM      8  N   UNL     1      46.283   4.191   7.991  0.00  0.00    +0.000 NA
BRANCH   3  10
ATOM      9  N   UNL     1      48.620   2.604   6.401  0.00  0.00    +0.000 N 
ATOM     10  C   UNL     1      47.291   2.859   6.205  0.00  0.00    +0.000 C 
ATOM     11  O   UNL     1      46.828   2.994   5.078  0.00  0.00    +0.000 OA
ATOM     12  H   UNL     1      49.228   2.519   5.600  0.00  0.00    +0.000 HD
ATOM     13  H   UNL     1      48.974   2.470   7.341  0.00  0.00    +0.000 HD
ENDBRANCH   3  10
ENDBRANCH   1   7
BRANCH   1  14
ATOM     14  C   UNL     1      45.053   5.785  10.988  0.00  0.00    +0.000 C 
BRANCH  14  15
ATOM     15  C   UNL     1      46.334   6.151  11.728  0.00  0.00    +0.000 A 
ATOM     16  N   UNL     1      47.182   7.008  11.120  0.00  0.00    +0.000 NA
ATOM     17  C   UNL     1      48.281   7.352  11.809  0.00  0.00    +0.000 A 
ATOM     18  C   UNL     1      48.556   6.895  13.074  0.00  0.00    +0.000 A 
ATOM     19  C   UNL     1      47.636   6.030  13.636  0.00  0.00    +0.000 A 
ATOM     20  N   UNL     1      46.530   5.635  12.960  0.00  0.00    +0.000 NA
BRANCH  19  21
ATOM     21  C   UNL     1      47.791   5.487  15.003  0.00  0.00    +0.000 A 
ATOM     22  C   UNL     1      48.619   6.104  15.955  0.00  0.00    +0.000 A 
ATOM     23  C   UNL     1      48.743   5.545  17.216  0.00  0.00    +0.000 A 
ATOM     24  N   UNL     1      48.102   4.425  17.605  0.00  0.00    +0.000 NA
ATOM     25  C   UNL     1      47.295   3.847  16.692  0.00  0.00    +0.000 A 
ATOM     26  C   UNL     1      47.108   4.335  15.408  0.00  0.00    +0.000 A 
ENDBRANCH  19  21
ENDBRANCH  14  15
ENDBRANCH   1  14
TORSDOF 5
ENDMDL
MODEL 5
REMARK VINA RESULT:    -7.297      3.851      7.534
REMARK INTER + INTRA:          -9.902
REMARK INTER:                  -9.509
REMARK INTRA:                  -0.393
REMARK UNBOUND:                -0.473
REMARK  Name = 
REMARK  5 active torsions:
REMARK  status: ('A' for Active; 'I' for Inactive)
REMARK    1  A    between atoms: C_2  and  C_4
REMARK    2  A    between atoms: C_8  and  N_9
REMARK    3  A    between atoms: N_9  and  C_10
REMARK    4  A    between atoms: C_10  and  C_11
REMARK    5  A    between atoms: C_15  and  C_16
REMARK                            x       y       z     vdW  Elec       q    Type
REMARK                         _______ _______ _______ _____ _____    ______ ____
ROOT
ATOM      1  N   UNL     1      46.749   3.764  15.019  0.00  0.00    +0.000 N 
ATOM      2  H   UNL     1      47.057   2.983  14.449  0.00  0.00    +0.000 HD
ENDROOT
BRANCH   1   7
ATOM      3  C   UNL     1      49.390   3.113  17.321  0.00  0.00    +0.000 A 
ATOM      4  C   UNL     1      49.058   3.821  18.465  0.00  0.00    +0.000 A 
ATOM      5  C   UNL     1      47.904   4.584  18.437  0.00  0.00    +0.000 A 
ATOM      6  C   UNL     1      47.128   4.592  17.280  0.00  0.00    +0.000 A 
ATOM      7  C   UNL     1      47.523   3.856  16.162  0.00  0.00    +0.000 A 
ATOM      8  N   UNL     1      48.656   3.122  16.168  0.00  0.00    +0.000 NA
BRANCH   3  10
ATOM      9  N   UNL     1      51.634   2.693  18.159  0.00  0.00    +0.000 N 
ATOM     10  C   UNL     1      50.628   2.269  17.336  0.00  0.00    +0.000 C 
ATOM     11  O   UNL     1      50.743   1.252  16.662  0.00  0.00    +0.000 OA
ATOM     12  H   UNL     1      52.485   2.153  18.216  0.00  0.00    +0.000 HD
ATOM     13  H   UNL     1      51.505   3.523  18.727  0.00  0.00    +0.000 HD
ENDBRANCH   3  10
ENDBRANCH   1   7
BRANCH   1  14
ATOM     14  C   UNL     1      46.392   4.973  14.278  0.00  0.00    +0.000 C 
BRANCH  14  15
ATOM     15  C   UNL     1      45.321   4.726  13.222  0.00  0.00    +0.000 A 
ATOM     16  N   UNL     1      44.051   5.062  13.532  0.00  0.00    +0.000 NA
ATOM     17  C   UNL     1      43.132   4.880  12.572  0.00  0.00    +0.000 A 
ATOM     18  C   UNL     1      43.429   4.398  11.321  0.00  0.00    +0.000 A 
ATOM     19  C   UNL     1      44.753   4.087  11.073  0.00  0.00    +0.000 A 
ATOM     20  N   UNL     1      45.704   4.228  12.026  0.00  0.00    +0.000 NA
BRANCH  19  21
ATOM     21  C   UNL     1      45.217   3.590   9.760  0.00  0.00    +0.000 A 
ATOM     22  C   UNL     1      45.247   2.218   9.456  0.00  0.00    +0.000 A 
ATOM     23  C   UNL     1      45.708   1.804   8.217  0.00  0.00    +0.000 A 
ATOM     24  N   UNL     1      46.135   2.647   7.257  0.00  0.00    +0.000 NA
ATOM     25  C   UNL     1      46.088   3.963   7.548  0.00  0.00    +0.000 A 
ATOM     26  C   UNL     1      45.641   4.471   8.759  0.00  0.00    +0.000 A 
ENDBRANCH  19  21
ENDBRANCH  14  15
ENDBRANCH   1  14
TORSDOF 5
ENDMDL
MODEL 6
REMARK VINA RESULT:    -7.228      2.709      6.776
REMARK INTER + INTRA:          -9.814
REMARK INTER:                  -9.190
REMARK INTRA:                  -0.623
REMARK UNBOUND:                -0.473
REMARK  Name = 
REMARK  5 active torsions:
REMARK  status: ('A' for Active; 'I' for Inactive)
REMARK    1  A    between atoms: C_2  and  C_4
REMARK    2  A    between atoms: C_8  and  N_9
REMARK    3  A    between atoms: N_9  and  C_10
REMARK    4  A    between atoms: C_10  and  C_11
REMARK    5  A    between atoms: C_15  and  C_16
REMARK                            x       y       z     vdW  Elec       q    Type
REMARK                         _______ _______ _______ _____ _____    ______ ____
ROOT
ATOM      1  N   UNL     1      44.786   7.032  12.503  0.00  0.00    +0.000 N 
ATOM      2  H   UNL     1      45.194   6.284  13.053  0.00  0.00    +0.000 HD
ENDROOT
BRANCH   1   7
ATOM      3  C   UNL     1      47.978   8.539  12.010  0.00  0.00    +0.000 A 
ATOM      4  C   UNL     1      47.729   9.899  11.926  0.00  0.00    +0.000 A 
ATOM      5  C   UNL     1      46.413  10.317  12.002  0.00  0.00    +0.000 A 
ATOM      6  C   UNL     1      45.410   9.366  12.175  0.00  0.00    +0.000 A 
ATOM      7  C   UNL     1      45.732   8.010  12.250  0.00  0.00    +0.000 A 
ATOM      8  N   UNL     1      47.010   7.585  12.158  0.00  0.00    +0.000 NA
BRANCH   3  10
ATOM      9  N   UNL     1      49.667   6.883  12.575  0.00  0.00    +0.000 N 
ATOM     10  C   UNL     1      49.398   8.065  11.944  0.00  0.00    +0.000 C 
ATOM     11  O   UNL     1      50.276   8.687  11.357  0.00  0.00    +0.000 OA
ATOM     12  H   UNL     1      50.606   6.513  12.550  0.00  0.00    +0.000 HD
ATOM     13  H   UNL     1      48.918   6.374  13.032  0.00  0.00    +0.000 HD
ENDBRANCH   3  10
ENDBRANCH   1   7
BRANCH   1  14
ATOM     14  C   UNL     1      43.879   6.600  11.441  0.00  0.00    +0.000 C 
BRANCH  14  15
ATOM     15  C   UNL     1      43.967   5.105  11.159  0.00  0.00    +0.000 A 
ATOM     16  N   UNL     1      43.235   4.280  11.936  0.00  0.00    +0.000 NA
ATOM     17  C   UNL     1      43.291   2.973  11.642  0.00  0.00    +0.000 A 
ATOM     18  C   UNL     1      44.026   2.462  10.599  0.00  0.00    +0.000 A 
ATOM     19  C   UNL     1      44.741   3.369   9.840  0.00  0.00    +0.000 A 
ATOM     20  N   UNL     1      44.734   4.693  10.126  0.00  0.00    +0.000 NA
BRANCH  19  21
ATOM     21  C   UNL     1      45.548   2.961   8.671  0.00  0.00    +0.000 A 
ATOM     22  C   UNL     1      45.992   1.638   8.502  0.00  0.00    +0.000 A 
ATOM     23  C   UNL     1      46.760   1.313   7.397  0.00  0.00    +0.000 A 
ATOM     24  N   UNL     1      47.116   2.197   6.445  0.00  0.00    +0.000 NA
ATOM     25  C   UNL     1      46.673   3.461   6.603  0.00  0.00    +0.000 A 
ATOM     26  C   UNL     1      45.898   3.879   7.674  0.00  0.00    +0.000 A 
ENDBRANCH  19  21
ENDBRANCH  14  15
ENDBRANCH   1  14
TORSDOF 5
ENDMDL
MODEL 7
REMARK VINA RESULT:    -7.097      5.066      7.457
REMARK INTER + INTRA:          -9.644
REMARK INTER:                  -9.122
REMARK INTRA:                  -0.522
REMARK UNBOUND:                -0.473
REMARK  Name = 
REMARK  5 active torsions:
REMARK  status: ('A' for Active; 'I' for Inactive)
REMARK    1  A    between atoms: C_2  and  C_4
REMARK    2  A    between atoms: C_8  and  N_9
REMARK    3  A    between atoms: N_9  and  C_10
REMARK    4  A    between atoms: C_10  and  C_11
REMARK    5  A    between atoms: C_15  and  C_16
REMARK                            x       y       z     vdW  Elec       q    Type
REMARK                         _______ _______ _______ _____ _____    ______ ____
ROOT
ATOM      1  N   UNL     1      47.073   3.665  14.798  0.00  0.00    +0.000 N 
ATOM      2  H   UNL     1      46.825   2.684  14.717  0.00  0.00    +0.000 HD
ENDROOT
BRANCH   1   7
ATOM      3  C   UNL     1      44.680   4.587  12.322  0.00  0.00    +0.000 A 
ATOM      4  C   UNL     1      45.240   5.667  11.659  0.00  0.00    +0.000 A 
ATOM      5  C   UNL     1      46.469   6.125  12.100  0.00  0.00    +0.000 A 
ATOM      6  C   UNL     1      47.089   5.477  13.166  0.00  0.00    +0.000 A 
ATOM      7  C   UNL     1      46.466   4.395  13.791  0.00  0.00    +0.000 A 
ATOM      8  N   UNL     1      45.259   3.948  13.384  0.00  0.00    +0.000 NA
BRANCH   3  10
ATOM      9  N   UNL     1      42.347   4.983  11.761  0.00  0.00    +0.000 N 
ATOM     10  C   UNL     1      43.356   4.065  11.851  0.00  0.00    +0.000 C 
ATOM     11  O   UNL     1      43.177   2.890  11.552  0.00  0.00    +0.000 OA
ATOM     12  H   UNL     1      41.439   4.686  11.436  0.00  0.00    +0.000 HD
ATOM     13  H   UNL     1      42.527   5.954  11.988  0.00  0.00    +0.000 HD
ENDBRANCH   3  10
ENDBRANCH   1   7
BRANCH   1  14
ATOM     14  C   UNL     1      47.104   4.189  16.162  0.00  0.00    +0.000 C 
BRANCH  14  15
ATOM     15  C   UNL     1      48.493   4.651  16.587  0.00  0.00    +0.000 A 
ATOM     16  N   UNL     1      48.715   5.981  16.652  0.00  0.00    +0.000 NA
ATOM     17  C   UNL     1      49.929   6.366  17.072  0.00  0.00    +0.000 A 
ATOM     18  C   UNL     1      50.916   5.486  17.445  0.00  0.00    +0.000 A 
ATOM     19  C   UNL     1      50.612   4.140  17.363  0.00  0.00    +0.000 A 
ATOM     20  N   UNL     1      49.407   3.712  16.914  0.00  0.00    +0.000 NA
BRANCH  19  21
ATOM     21  C   UNL     1      51.568   3.086  17.762  0.00  0.00    +0.000 A 
ATOM     22  C   UNL     1      52.703   3.371  18.541  0.00  0.00    +0.000 A 
ATOM     23  C   UNL     1      53.577   2.349  18.873  0.00  0.00    +0.000 A 
ATOM     24  N   UNL     1      53.407   1.067  18.497  0.00  0.00    +0.000 NA
ATOM     25  C   UNL     1      52.307   0.796  17.765  0.00  0.00    +0.000 A 
ATOM     26  C   UNL     1      51.376   1.752  17.386  0.00  0.00    +0.000 A 
ENDBRANCH  19  21
ENDBRANCH  14  15
ENDBRANCH   1  14
TORSDOF 5
ENDMDL
MODEL 8
REMARK VINA RESULT:    -7.023      3.980      7.644
REMARK INTER + INTRA:          -9.549
REMARK INTER:                  -8.963
REMARK INTRA:                  -0.586
REMARK UNBOUND:                -0.473
REMARK  Name = 
REMARK  5 active torsions:
REMARK  status: ('A' for Active; 'I' for Inactive)
REMARK    1  A    between atoms: C_2  and  C_4
REMARK    2  A    between atoms: C_8  and  N_9
REMARK    3  A    between atoms: N_9  and  C_10
REMARK    4  A    between atoms: C_10  and  C_11
REMARK    5  A    between atoms: C_15  and  C_16
REMARK                            x       y       z     vdW  Elec       q    Type
REMARK                         _______ _______ _______ _____ _____    ______ ____
ROOT
ATOM      1  N   UNL     1      48.673   6.917  15.990  0.00  0.00    +0.000 N 
ATOM      2  H   UNL     1      47.984   7.622  16.233  0.00  0.00    +0.000 HD
ENDROOT
BRANCH   1   7
ATOM      3  C   UNL     1      49.172   3.696  17.433  0.00  0.00    +0.000 A 
ATOM      4  C   UNL     1      48.587   3.765  18.687  0.00  0.00    +0.000 A 
ATOM      5  C   UNL     1      48.034   4.973  19.073  0.00  0.00    +0.000 A 
ATOM      6  C   UNL     1      48.072   6.048  18.187  0.00  0.00    +0.000 A 
ATOM      7  C   UNL     1      48.680   5.909  16.938  0.00  0.00    +0.000 A 
ATOM      8  N   UNL     1      49.241   4.742  16.555  0.00  0.00    +0.000 NA
BRANCH   3  10
ATOM      9  N   UNL     1      50.817   1.930  17.728  0.00  0.00    +0.000 N 
ATOM     10  C   UNL     1      49.764   2.393  16.990  0.00  0.00    +0.000 C 
ATOM     11  O   UNL     1      49.334   1.765  16.029  0.00  0.00    +0.000 OA
ATOM     12  H   UNL     1      51.244   1.050  17.480  0.00  0.00    +0.000 HD
ATOM     13  H   UNL     1      51.137   2.455  18.534  0.00  0.00    +0.000 HD
ENDBRANCH   3  10
ENDBRANCH   1   7
BRANCH   1  14
ATOM     14  C   UNL     1      48.748   6.584  14.568  0.00  0.00    +0.000 C 
BRANCH  14  15
ATOM     15  C   UNL     1      47.459   6.894  13.819  0.00  0.00    +0.000 A 
ATOM     16  N   UNL     1      47.114   8.192  13.681  0.00  0.00    +0.000 NA
ATOM     17  C   UNL     1      46.000   8.445  12.978  0.00  0.00    +0.000 A 
ATOM     18  C   UNL     1      45.233   7.465  12.396  0.00  0.00    +0.000 A 
ATOM     19  C   UNL     1      45.655   6.161  12.569  0.00  0.00    +0.000 A 
ATOM     20  N   UNL     1      46.757   5.864  13.299  0.00  0.00    +0.000 NA
BRANCH  19  21
ATOM     21  C   UNL     1      44.942   5.011  11.971  0.00  0.00    +0.000 A 
ATOM     22  C   UNL     1      44.956   4.771  10.586  0.00  0.00    +0.000 A 
ATOM     23  C   UNL     1      44.258   3.690  10.075  0.00  0.00    +0.000 A 
ATOM     24  N   UNL     1      43.554   2.827  10.833  0.00  0.00    +0.000 NA
ATOM     25  C   UNL     1      43.559   3.052  12.162  0.00  0.00    +0.000 A 
ATOM     26  C   UNL     1      44.230   4.106  12.765  0.00  0.00    +0.000 A 
ENDBRANCH  19  21
ENDBRANCH  14  15
ENDBRANCH   1  14
TORSDOF 5
ENDMDL
MODEL 9
REMARK VINA RESULT:    -6.874      2.215      3.544
REMARK INTER + INTRA:          -9.356
REMARK INTER:                  -8.538
REMARK INTRA:                  -0.817
REMARK UNBOUND:                -0.473
REMARK  Name = 
REMARK  5 active torsions:
REMARK  status: ('A' for Active; 'I' for Inactive)
REMARK    1  A    between atoms: C_2  and  C_4
REMARK    2  A    between atoms: C_8  and  N_9
REMARK    3  A    between atoms: N_9  and  C_10
REMARK    4  A    between atoms: C_10  and  C_11
REMARK    5  A    between atoms: C_15  and  C_16
REMARK                            x       y       z     vdW  Elec       q    Type
REMARK                         _______ _______ _______ _____ _____    ______ ____
ROOT
ATOM      1  N   UNL     1      46.219   3.803  13.421  0.00  0.00    +0.000 N 
ATOM      2  H   UNL     1      46.069   2.898  13.855  0.00  0.00    +0.000 HD
ENDROOT
BRANCH   1   7
ATOM      3  C   UNL     1      44.577   4.356  10.306  0.00  0.00    +0.000 A 
ATOM      4  C   UNL     1      43.299   4.776  10.637  0.00  0.00    +0.000 A 
ATOM      5  C   UNL     1      42.971   4.837  11.980  0.00  0.00    +0.000 A 
ATOM      6  C   UNL     1      43.933   4.494  12.927  0.00  0.00    +0.000 A 
ATOM      7  C   UNL     1      45.202   4.076  12.522  0.00  0.00    +0.000 A 
ATOM      8  N   UNL     1      45.531   3.994  11.216  0.00  0.00    +0.000 NA
BRANCH   3  10
ATOM      9  N   UNL     1      44.143   3.551   8.052  0.00  0.00    +0.000 N 
ATOM     10  C   UNL     1      44.958   4.297   8.857  0.00  0.00    +0.000 C 
ATOM     11  O   UNL     1      45.934   4.885   8.407  0.00  0.00    +0.000 OA
ATOM     12  H   UNL     1      44.348   3.490   7.066  0.00  0.00    +0.000 HD
ATOM     13  H   UNL     1      43.327   3.095   8.444  0.00  0.00    +0.000 HD
ENDBRANCH   3  10
ENDBRANCH   1   7
BRANCH   1  14
ATOM     14  C   UNL     1      46.702   4.851  14.318  0.00  0.00    +0.000 C 
BRANCH  14  15
ATOM     15  C   UNL     1      47.337   6.020  13.575  0.00  0.00    +0.000 A 
ATOM     16  N   UNL     1      48.630   5.896  13.207  0.00  0.00    +0.000 NA
ATOM     17  C   UNL     1      49.156   6.916  12.514  0.00  0.00    +0.000 A 
ATOM     18  C   UNL     1      48.446   8.037  12.158  0.00  0.00    +0.000 A 
ATOM     19  C   UNL     1      47.124   8.088  12.560  0.00  0.00    +0.000 A 
ATOM     20  N   UNL     1      46.566   7.091  13.288  0.00  0.00    +0.000 NA
BRANCH  19  21
ATOM     21  C   UNL     1      46.236   9.220  12.220  0.00  0.00    +0.000 A 
ATOM     22  C   UNL     1      44.838   9.079  12.186  0.00  0.00    +0.000 A 
ATOM     23  C   UNL     1      44.051  10.166  11.843  0.00  0.00    +0.000 A 
ATOM     24  N   UNL     1      44.546  11.382  11.539  0.00  0.00    +0.000 NA
ATOM     25  C   UNL     1      45.886  11.515  11.591  0.00  0.00    +0.000 A 
ATOM     26  C   UNL     1      46.753  10.486  11.924  0.00  0.00    +0.000 A 
ENDBRANCH  19  21
ENDBRANCH  14  15
ENDBRANCH   1  14
TORSDOF 5
ENDMDL
