MODEL 1
REMARK VINA RESULT:    -7.613      0.000      0.000
REMARK INTER + INTRA:         -11.471
REMARK INTER:                 -10.505
REMARK INTRA:                  -0.966
REMARK UNBOUND:                -0.966
REMARK  Name = 
REMARK  9 active torsions:
REMARK  status: ('A' for Active; 'I' for Inactive)
REMARK    1  A    between atoms: C_1  and  O_2
REMARK    2  A    between atoms: O_2  and  C_3
REMARK    3  A    between atoms: C_6  and  O_7
REMARK    4  A    between atoms: O_7  and  C_8
REMARK    5  A    between atoms: C_8  and  C_9
REMARK    6  A    between atoms: C_9  and  C_10
REMARK    7  A    between atoms: C_9  and  O_11
REMARK    8  A    between atoms: C_9  and  C_12
REMARK    9  A    between atoms: C_15  and  C_16
REMARK                            x       y       z     vdW  Elec       q    Type
REMARK                         _______ _______ _______ _____ _____    ______ ____
ROOT
ATOM      1  C   UNL     1      43.490   4.902  12.150  0.00  0.00    +0.000 C 
ATOM      2  C   UNL     1      42.708   5.986  11.401  0.00  0.00    +0.000 C 
ENDROOT
BRANCH   1   3
ATOM      3  C   UNL     1      44.936   5.344  12.405  0.00  0.00    +0.000 A 
ATOM      4  C   UNL     1      45.582   6.210  11.522  0.00  0.00    +0.000 A 
ATOM      5  C   UNL     1      46.878   6.646  11.801  0.00  0.00    +0.000 A 
ATOM      6  C   UNL     1      47.515   6.200  12.955  0.00  0.00    +0.000 A 
ATOM      7  C   UNL     1      46.814   5.342  13.787  0.00  0.00    +0.000 A 
ATOM      8  N   UNL     1      45.549   4.901  13.538  0.00  0.00    +0.000 NA
BRANCH   6   9
ATOM      9  C   UNL     1      48.873   6.649  13.336  0.00  0.00    +0.000 C 
ATOM     10  N   UNL     1      49.708   7.050  12.326  0.00  0.00    +0.000 N 
ATOM     11  O   UNL     1      49.242   6.650  14.501  0.00  0.00    +0.000 OA
ATOM     12  H   UNL     1      49.520   6.881  11.349  0.00  0.00    +0.000 HD
ATOM     13  H   UNL     1      50.653   7.304  12.586  0.00  0.00    +0.000 HD
ENDBRANCH   6   9
ENDBRANCH   1   3
BRANCH   1  14
ATOM     14  O   UNL     1      42.797   4.689  13.400  0.00  0.00    +0.000 OA
ATOM     15  H   UNL     1      43.491   4.704  14.087  0.00  0.00    +0.000 HD
ENDBRANCH   1  14
BRANCH   1  16
ATOM     16  C   UNL     1      43.489   3.567  11.372  0.00  0.00    +0.000 C 
BRANCH  16  17
ATOM     17  O   UNL     1      43.414   3.846   9.963  0.00  0.00    +0.000 OA
BRANCH  17  21
ATOM     18  C   UNL     1      46.604   2.367   7.698  0.00  0.00    +0.000 A 
ATOM     19  C   UNL     1      46.327   3.732   7.653  0.00  0.00    +0.000 A 
ATOM     20  C   UNL     1      45.266   4.268   8.397  0.00  0.00    +0.000 A 
ATOM     21  C   UNL     1      44.476   3.442   9.197  0.00  0.00    +0.000 A 
ATOM     22  C   UNL     1      44.759   2.077   9.248  0.00  0.00    +0.000 A 
ATOM     23  C   UNL     1      45.817   1.543   8.505  0.00  0.00    +0.000 A 
BRANCH  18  25
ATOM     24  C   UNL     1      47.899   2.220   5.710  0.00  0.00    +0.000 C 
ATOM     25  O   UNL     1      47.596   1.726   7.009  0.00  0.00    +0.000 OA
ENDBRANCH  18  25
ENDBRANCH  17  21
ENDBRANCH  16  17
ENDBRANCH   1  16
TORSDOF 7
ENDMDL
MODEL 2
REMARK VINA RESULT:    -7.266      2.667      6.418
REMARK INTER + INTRA:         -10.992
REMARK INTER:                 -10.276
REMARK INTRA:                  -0.716
REMARK UNBOUND:                -0.966
REMARK  Name = 
REMARK  9 active torsions:
REMARK  status: ('A' for Active; 'I' for Inactive)
REMARK    1  A    between atoms: C_1  and  O_2
REMARK    2  A    between atoms: O_2  and  C_3
REMARK    3  A    between atoms: C_6  and  O_7
REMARK    4  A    between atoms: O_7  and  C_8
REMARK    5  A    between atoms: C_8  and  C_9
REMARK    6  A    between atoms: C_9  and  C_10
REMARK    7  A    between atoms: C_9  and  O_11
REMARK    8  A    between atoms: C_9  and  C_12
REMARK    9  A    between atoms: C_15  and  C_16
REMARK                            x       y       z     vdW  Elec       q    Type
REMARK                         _______ _______ _______ _____ _____    ______ ____
ROOT
ATOM      1  C   UNL     1      44.108   4.354  10.741  0.00  0.00    +0.000 C 
ATOM      2  C   UNL     1      43.186   3.330  11.409  0.00  0.00    +0.000 C 
ENDROOT
BRANCH   1   3
ATOM      3  C   UNL     1      44.931   3.707   9.620  0.00  0.00    +0.000 A 
ATOM      4  C   UNL     1      45.601   4.495   8.683  0.00  0.00    +0.000 A 
ATOM      5  C   UNL     1      46.392   3.888   7.705  0.00  0.00    +0.000 A 
ATOM      6  C   UNL     1      46.491   2.501   7.671  0.00  0.00    +0.000 A 
ATOM      7  C   UNL     1      45.799   1.781   8.632  0.00  0.00    +0.000 A 
ATOM      8  N   UNL     1      45.020   2.348   9.597  0.00  0.00    +0.000 NA
BRANCH   6   9
ATOM      9  C   UNL     1      47.339   1.790   6.688  0.00  0.00    +0.000 C 
ATOM     10  N   UNL     1      48.350   2.504   6.099  0.00  0.00    +0.000 N 
ATOM     11  O   UNL     1      47.139   0.619   6.401  0.00  0.00    +0.000 OA
ATOM     12  H   UNL     1      48.427   3.508   6.155  0.00  0.00    +0.000 HD
ATOM     13  H   UNL     1      48.893   2.029   5.389  0.00  0.00    +0.000 HD
ENDBRANCH   6   9
ENDBRANCH   1   3
BRANCH   1  14
ATOM     14  O   UNL     1      43.251   5.388  10.208  0.00  0.00    +0.000 OA
ATOM     15  H   UNL     1      42.392   4.953  10.044  0.00  0.00    +0.000 HD
ENDBRANCH   1  14
BRANCH   1  16
ATOM     16  C   UNL     1      45.062   5.009  11.766  0.00  0.00    +0.000 C 
BRANCH  16  17
ATOM     17  O   UNL     1      44.721   6.401  11.900  0.00  0.00    +0.000 OA
BRANCH  17  21
ATOM     18  C   UNL     1      48.062   8.911  12.064  0.00  0.00    +0.000 A 
ATOM     19  C   UNL     1      46.810   9.442  12.365  0.00  0.00    +0.000 A 
ATOM     20  C   UNL     1      45.664   8.634  12.322  0.00  0.00    +0.000 A 
ATOM     21  C   UNL     1      45.763   7.285  11.981  0.00  0.00    +0.000 A 
ATOM     22  C   UNL     1      47.019   6.752  11.688  0.00  0.00    +0.000 A 
ATOM     23  C   UNL     1      48.160   7.558  11.730  0.00  0.00    +0.000 A 
BRANCH  18  25
ATOM     24  C   UNL     1      49.387  10.642  13.010  0.00  0.00    +0.000 C 
ATOM     25  O   UNL     1      49.245   9.596  12.057  0.00  0.00    +0.000 OA
ENDBRANCH  18  25
ENDBRANCH  17  21
ENDBRANCH  16  17
ENDBRANCH   1  16
TORSDOF 7
ENDMDL
MODEL 3
REMARK VINA RESULT:    -7.255      2.522      6.646
REMARK INTER + INTRA:         -10.977
REMARK INTER:                 -10.360
REMARK INTRA:                  -0.617
REMARK UNBOUND:                -0.966
REMARK  Name = 
REMARK  9 active torsions:
REMARK  status: ('A' for Active; 'I' for Inactive)
REMARK    1  A    between atoms: C_1  and  O_2
REMARK    2  A    between atoms: O_2  and  C_3
REMARK    3  A    between atoms: C_6  and  O_7
REMARK    4  A    between atoms: O_7  and  C_8
REMARK    5  A    between atoms: C_8  and  C_9
REMARK    6  A    between atoms: C_9  and  C_10
REMARK    7  A    between atoms: C_9  and  O_11
REMARK    8  A    between atoms: C_9  and  C_12
REMARK    9  A    between atoms: C_15  and  C_16
REMARK                            x       y       z     vdW  Elec       q    Type
REMARK                         _______ _______ _______ _____ _____    ______ ____
ROOT
ATOM      1  C   UNL     1      44.108   4.525  10.670  0.00  0.00    +0.000 C 
ATOM      2  C   UNL     1      43.285   3.513  11.475  0.00  0.00    +0.000 C 
ENDROOT
BRANCH   1   3
ATOM      3  C   UNL     1      44.936   3.823   9.588  0.00  0.00    +0.000 A 
ATOM      4  C   UNL     1      45.642   4.565   8.639  0.00  0.00    +0.000 A 
ATOM      5  C   UNL     1      46.436   3.910   7.696  0.00  0.00    +0.000 A 
ATOM      6  C   UNL     1      46.506   2.520   7.709  0.00  0.00    +0.000 A 
ATOM      7  C   UNL     1      45.780   1.848   8.679  0.00  0.00    +0.000 A 
ATOM      8  N   UNL     1      44.996   2.463   9.610  0.00  0.00    +0.000 NA
BRANCH   6   9
ATOM      9  C   UNL     1      47.356   1.760   6.766  0.00  0.00    +0.000 C 
ATOM     10  N   UNL     1      48.390   2.433   6.171  0.00  0.00    +0.000 N 
ATOM     11  O   UNL     1      47.138   0.583   6.517  0.00  0.00    +0.000 OA
ATOM     12  H   UNL     1      48.486   3.437   6.192  0.00  0.00    +0.000 HD
ATOM     13  H   UNL     1      48.936   1.923   5.486  0.00  0.00    +0.000 HD
ENDBRANCH   6   9
ENDBRANCH   1   3
BRANCH   1  14
ATOM     14  O   UNL     1      43.160   5.437  10.072  0.00  0.00    +0.000 OA
ATOM     15  H   UNL     1      42.498   5.616  10.768  0.00  0.00    +0.000 HD
ENDBRANCH   1  14
BRANCH   1  16
ATOM     16  C   UNL     1      45.045   5.346  11.584  0.00  0.00    +0.000 C 
BRANCH  16  17
ATOM     17  O   UNL     1      45.923   4.446  12.284  0.00  0.00    +0.000 OA
BRANCH  17  21
ATOM     18  C   UNL     1      48.211   5.885  15.474  0.00  0.00    +0.000 A 
ATOM     19  C   UNL     1      48.206   6.600  14.279  0.00  0.00    +0.000 A 
ATOM     20  C   UNL     1      47.452   6.152  13.185  0.00  0.00    +0.000 A 
ATOM     21  C   UNL     1      46.693   4.985  13.280  0.00  0.00    +0.000 A 
ATOM     22  C   UNL     1      46.692   4.274  14.481  0.00  0.00    +0.000 A 
ATOM     23  C   UNL     1      47.445   4.722  15.571  0.00  0.00    +0.000 A 
BRANCH  18  25
ATOM     24  C   UNL     1      49.156   5.162  17.532  0.00  0.00    +0.000 C 
ATOM     25  O   UNL     1      48.914   6.211  16.602  0.00  0.00    +0.000 OA
ENDBRANCH  18  25
ENDBRANCH  17  21
ENDBRANCH  16  17
ENDBRANCH   1  16
TORSDOF 7
ENDMDL
MODEL 4
REMARK VINA RESULT:    -6.196      2.025      2.702
REMARK INTER + INTRA:          -9.516
REMARK INTER:                  -9.078
REMARK INTRA:                  -0.438
REMARK UNBOUND:                -0.966
REMARK  Name = 
REMARK  9 active torsions:
REMARK  status: ('A' for Active; 'I' for Inactive)
REMARK    1  A    between atoms: C_1  and  O_2
REMARK    2  A    between atoms: O_2  and  C_3
REMARK    3  A    between atoms: C_6  and  O_7
REMARK    4  A    between atoms: O_7  and  C_8
REMARK    5  A    between atoms: C_8  and  C_9
REMARK    6  A    between atoms: C_9  and  C_10
REMARK    7  A    between atoms: C_9  and  O_11
REMARK    8  A    between atoms: C_9  and  C_12
REMARK    9  A    between atoms: C_15  and  C_16
REMARK                            x       y       z     vdW  Elec       q    Type
REMARK                         _______ _______ _______ _____ _____    ______ ____
ROOT
ATOM      1  C   UNL     1      45.352   5.525  12.740  0.00  0.00    +0.000 C 
ATOM      2  C   UNL     1      45.795   6.519  11.661  0.00  0.00    +0.000 C 
ENDROOT
BRANCH   1   3
ATOM      3  C   UNL     1      46.410   5.403  13.844  0.00  0.00    +0.000 A 
ATOM      4  C   UNL     1      47.422   6.357  13.968  0.00  0.00    +0.000 A 
ATOM      5  C   UNL     1      48.341   6.260  15.014  0.00  0.00    +0.000 A 
ATOM      6  C   UNL     1      48.242   5.204  15.915  0.00  0.00    +0.000 A 
ATOM      7  C   UNL     1      47.213   4.295  15.731  0.00  0.00    +0.000 A 
ATOM      8  N   UNL     1      46.303   4.366  14.719  0.00  0.00    +0.000 NA
BRANCH   6   9
ATOM      9  C   UNL     1      49.156   5.058  17.070  0.00  0.00    +0.000 C 
ATOM     10  N   UNL     1      48.697   5.477  18.291  0.00  0.00    +0.000 N 
ATOM     11  O   UNL     1      50.281   4.596  16.939  0.00  0.00    +0.000 OA
ATOM     12  H   UNL     1      47.867   6.037  18.410  0.00  0.00    +0.000 HD
ATOM     13  H   UNL     1      49.346   5.425  19.067  0.00  0.00    +0.000 HD
ENDBRANCH   6   9
ENDBRANCH   1   3
BRANCH   1  14
ATOM     14  O   UNL     1      44.113   6.035  13.279  0.00  0.00    +0.000 OA
ATOM     15  H   UNL     1      44.372   6.742  13.902  0.00  0.00    +0.000 HD
ENDBRANCH   1  14
BRANCH   1  16
ATOM     16  C   UNL     1      45.071   4.129  12.140  0.00  0.00    +0.000 C 
BRANCH  16  17
ATOM     17  O   UNL     1      44.379   4.287  10.888  0.00  0.00    +0.000 OA
BRANCH  17  21
ATOM     18  C   UNL     1      46.142   2.666   7.460  0.00  0.00    +0.000 A 
ATOM     19  C   UNL     1      45.630   1.799   8.424  0.00  0.00    +0.000 A 
ATOM     20  C   UNL     1      45.031   2.302   9.588  0.00  0.00    +0.000 A 
ATOM     21  C   UNL     1      44.935   3.678   9.795  0.00  0.00    +0.000 A 
ATOM     22  C   UNL     1      45.441   4.546   8.826  0.00  0.00    +0.000 A 
ATOM     23  C   UNL     1      46.038   4.043   7.666  0.00  0.00    +0.000 A 
BRANCH  18  25
ATOM     24  C   UNL     1      48.159   2.054   6.362  0.00  0.00    +0.000 C 
ATOM     25  O   UNL     1      46.759   2.299   6.296  0.00  0.00    +0.000 OA
ENDBRANCH  18  25
ENDBRANCH  17  21
ENDBRANCH  16  17
ENDBRANCH   1  16
TORSDOF 7
ENDMDL
MODEL 5
REMARK VINA RESULT:    -6.153      4.701      6.322
REMARK INTER + INTRA:          -9.457
REMARK INTER:                  -8.926
REMARK INTRA:                  -0.531
REMARK UNBOUND:                -0.966
REMARK  Name = 
REMARK  9 active torsions:
REMARK  status: ('A' for Active; 'I' for Inactive)
REMARK    1  A    between atoms: C_1  and  O_2
REMARK    2  A    between atoms: O_2  and  C_3
REMARK    3  A    between atoms: C_6  and  O_7
REMARK    4  A    between atoms: O_7  and  C_8
REMARK    5  A    between atoms: C_8  and  C_9
REMARK    6  A    between atoms: C_9  and  C_10
REMARK    7  A    between atoms: C_9  and  O_11
REMARK    8  A    between atoms: C_9  and  C_12
REMARK    9  A    between atoms: C_15  and  C_16
REMARK                            x       y       z     vdW  Elec       q    Type
REMARK                         _______ _______ _______ _____ _____    ______ ____
ROOT
ATOM      1  C   UNL     1      47.601   4.154  17.099  0.00  0.00    +0.000 C 
ATOM      2  C   UNL     1      47.374   5.206  18.189  0.00  0.00    +0.000 C 
ENDROOT
BRANCH   1   3
ATOM      3  C   UNL     1      48.991   3.519  17.226  0.00  0.00    +0.000 A 
ATOM      4  C   UNL     1      50.021   4.189  17.889  0.00  0.00    +0.000 A 
ATOM      5  C   UNL     1      51.263   3.570  18.044  0.00  0.00    +0.000 A 
ATOM      6  C   UNL     1      51.461   2.295  17.523  0.00  0.00    +0.000 A 
ATOM      7  C   UNL     1      50.395   1.690  16.877  0.00  0.00    +0.000 A 
ATOM      8  N   UNL     1      49.173   2.271  16.712  0.00  0.00    +0.000 NA
BRANCH   6   9
ATOM      9  C   UNL     1      52.737   1.563  17.683  0.00  0.00    +0.000 C 
ATOM     10  N   UNL     1      52.663   0.243  18.040  0.00  0.00    +0.000 N 
ATOM     11  O   UNL     1      53.815   2.116  17.517  0.00  0.00    +0.000 OA
ATOM     12  H   UNL     1      51.819  -0.196  18.376  0.00  0.00    +0.000 HD
ATOM     13  H   UNL     1      53.539  -0.239  18.200  0.00  0.00    +0.000 HD
ENDBRANCH   6   9
ENDBRANCH   1   3
BRANCH   1  14
ATOM     14  O   UNL     1      46.570   3.156  17.275  0.00  0.00    +0.000 OA
ATOM     15  H   UNL     1      46.741   2.759  18.151  0.00  0.00    +0.000 HD
ENDBRANCH   1  14
BRANCH   1  16
ATOM     16  C   UNL     1      47.439   4.760  15.686  0.00  0.00    +0.000 C 
BRANCH  16  17
ATOM     17  O   UNL     1      46.838   3.780  14.822  0.00  0.00    +0.000 OA
BRANCH  17  21
ATOM     18  C   UNL     1      45.257   4.916  11.121  0.00  0.00    +0.000 A 
ATOM     19  C   UNL     1      45.956   5.861  11.868  0.00  0.00    +0.000 A 
ATOM     20  C   UNL     1      46.502   5.521  13.115  0.00  0.00    +0.000 A 
ATOM     21  C   UNL     1      46.356   4.229  13.621  0.00  0.00    +0.000 A 
ATOM     22  C   UNL     1      45.664   3.281  12.867  0.00  0.00    +0.000 A 
ATOM     23  C   UNL     1      45.119   3.621  11.625  0.00  0.00    +0.000 A 
BRANCH  18  25
ATOM     24  C   UNL     1      44.525   3.998   9.054  0.00  0.00    +0.000 C 
ATOM     25  O   UNL     1      44.669   5.129   9.905  0.00  0.00    +0.000 OA
ENDBRANCH  18  25
ENDBRANCH  17  21
ENDBRANCH  16  17
ENDBRANCH   1  16
TORSDOF 7
ENDMDL
MODEL 6
REMARK VINA RESULT:    -6.137      1.878      2.101
REMARK INTER + INTRA:          -9.435
REMARK INTER:                  -8.653
REMARK INTRA:                  -0.783
REMARK UNBOUND:                -0.966
REMARK  Name = 
REMARK  9 active torsions:
REMARK  status: ('A' for Active; 'I' for Inactive)
REMARK    1  A    between atoms: C_1  and  O_2
REMARK    2  A    between atoms: O_2  and  C_3
REMARK    3  A    between atoms: C_6  and  O_7
REMARK    4  A    between atoms: O_7  and  C_8
REMARK    5  A    between atoms: C_8  and  C_9
REMARK    6  A    between atoms: C_9  and  C_10
REMARK    7  A    between atoms: C_9  and  O_11
REMARK    8  A    between atoms: C_9  and  C_12
REMARK    9  A    between atoms: C_15  and  C_16
REMARK                            x       y       z     vdW  Elec       q    Type
REMARK                         _______ _______ _______ _____ _____    ______ ____
ROOT
ATOM      1  C   UNL     1      44.561   6.204  12.189  0.00  0.00    +0.000 C 
ATOM      2  C   UNL     1      43.498   6.799  11.260  0.00  0.00    +0.000 C 
ENDROOT
BRANCH   1   3
ATOM      3  C   UNL     1      45.824   7.073  12.208  0.00  0.00    +0.000 A 
ATOM      4  C   UNL     1      47.019   6.603  11.660  0.00  0.00    +0.000 A 
ATOM      5  C   UNL     1      48.143   7.430  11.634  0.00  0.00    +0.000 A 
ATOM      6  C   UNL     1      48.060   8.712  12.169  0.00  0.00    +0.000 A 
ATOM      7  C   UNL     1      46.843   9.112  12.696  0.00  0.00    +0.000 A 
ATOM      8  N   UNL     1      45.731   8.325  12.734  0.00  0.00    +0.000 NA
BRANCH   6   9
ATOM      9  C   UNL     1      49.198   9.657  12.143  0.00  0.00    +0.000 C 
ATOM     10  N   UNL     1      50.456   9.130  12.279  0.00  0.00    +0.000 N 
ATOM     11  O   UNL     1      49.025  10.861  12.019  0.00  0.00    +0.000 OA
ATOM     12  H   UNL     1      50.632   8.183  12.578  0.00  0.00    +0.000 HD
ATOM     13  H   UNL     1      51.227   9.786  12.315  0.00  0.00    +0.000 HD
ENDBRANCH   6   9
ENDBRANCH   1   3
BRANCH   1  14
ATOM     14  O   UNL     1      43.966   6.146  13.505  0.00  0.00    +0.000 OA
ATOM     15  H   UNL     1      43.144   5.629  13.395  0.00  0.00    +0.000 HD
ENDBRANCH   1  14
BRANCH   1  16
ATOM     16  C   UNL     1      44.933   4.763  11.772  0.00  0.00    +0.000 C 
BRANCH  16  17
ATOM     17  O   UNL     1      44.226   4.428  10.564  0.00  0.00    +0.000 OA
BRANCH  17  21
ATOM     18  C   UNL     1      46.374   2.398   7.606  0.00  0.00    +0.000 A 
ATOM     19  C   UNL     1      46.374   3.791   7.596  0.00  0.00    +0.000 A 
ATOM     20  C   UNL     1      45.666   4.510   8.570  0.00  0.00    +0.000 A 
ATOM     21  C   UNL     1      44.956   3.839   9.566  0.00  0.00    +0.000 A 
ATOM     22  C   UNL     1      44.964   2.444   9.581  0.00  0.00    +0.000 A 
ATOM     23  C   UNL     1      45.669   1.728   8.608  0.00  0.00    +0.000 A 
BRANCH  18  25
ATOM     24  C   UNL     1      47.893   2.219   5.787  0.00  0.00    +0.000 C 
ATOM     25  O   UNL     1      47.010   1.588   6.706  0.00  0.00    +0.000 OA
ENDBRANCH  18  25
ENDBRANCH  17  21
ENDBRANCH  16  17
ENDBRANCH   1  16
TORSDOF 7
ENDMDL
MODEL 7
REMARK VINA RESULT:    -5.506      2.967      5.537
REMARK INTER + INTRA:          -8.564
REMARK INTER:                  -7.771
REMARK INTRA:                  -0.793
REMARK UNBOUND:                -0.966
REMARK  Name = 
REMARK  9 active torsions:
REMARK  status: ('A' for Active; 'I' for Inactive)
REMARK    1  A    between atoms: C_1  and  O_2
REMARK    2  A    between atoms: O_2  and  C_3
REMARK    3  A    between atoms: C_6  and  O_7
REMARK    4  A    between atoms: O_7  and  C_8
REMARK    5  A    between atoms: C_8  and  C_9
REMARK    6  A    between atoms: C_9  and  C_10
REMARK    7  A    between atoms: C_9  and  O_11
REMARK    8  A    between atoms: C_9  and  C_12
REMARK    9  A    between atoms: C_15  and  C_16
REMARK                            x       y       z     vdW  Elec       q    Type
REMARK                         _______ _______ _______ _____ _____    ______ ____
ROOT
ATOM      1  C   UNL     1      48.536   7.653  13.666  0.00  0.00    +0.000 C 
ATOM      2  C   UNL     1      49.242   7.107  12.421  0.00  0.00    +0.000 C 
ENDROOT
BRANCH   1   3
ATOM      3  C   UNL     1      48.447   6.584  14.761  0.00  0.00    +0.000 A 
ATOM      4  C   UNL     1      49.078   6.772  15.992  0.00  0.00    +0.000 A 
ATOM      5  C   UNL     1      48.937   5.813  16.997  0.00  0.00    +0.000 A 
ATOM      6  C   UNL     1      48.177   4.673  16.753  0.00  0.00    +0.000 A 
ATOM      7  C   UNL     1      47.579   4.553  15.509  0.00  0.00    +0.000 A 
ATOM      8  N   UNL     1      47.700   5.473  14.511  0.00  0.00    +0.000 NA
BRANCH   6   9
ATOM      9  C   UNL     1      47.952   3.634  17.782  0.00  0.00    +0.000 C 
ATOM     10  N   UNL     1      46.816   2.876  17.671  0.00  0.00    +0.000 N 
ATOM     11  O   UNL     1      48.739   3.466  18.702  0.00  0.00    +0.000 OA
ATOM     12  H   UNL     1      46.052   3.107  17.054  0.00  0.00    +0.000 HD
ATOM     13  H   UNL     1      46.640   2.203  18.407  0.00  0.00    +0.000 HD
ENDBRANCH   6   9
ENDBRANCH   1   3
BRANCH   1  14
ATOM     14  O   UNL     1      49.322   8.778  14.119  0.00  0.00    +0.000 OA
ATOM     15  H   UNL     1      50.237   8.445  14.187  0.00  0.00    +0.000 HD
ENDBRANCH   1  14
BRANCH   1  16
ATOM     16  C   UNL     1      47.117   8.167  13.332  0.00  0.00    +0.000 C 
BRANCH  16  17
ATOM     17  O   UNL     1      46.766   7.741  12.004  0.00  0.00    +0.000 OA
BRANCH  17  21
ATOM     18  C   UNL     1      43.826   4.815  11.469  0.00  0.00    +0.000 A 
ATOM     19  C   UNL     1      43.746   5.649  12.582  0.00  0.00    +0.000 A 
ATOM     20  C   UNL     1      44.712   6.643  12.798  0.00  0.00    +0.000 A 
ATOM     21  C   UNL     1      45.764   6.813  11.899  0.00  0.00    +0.000 A 
ATOM     22  C   UNL     1      45.839   5.983  10.779  0.00  0.00    +0.000 A 
ATOM     23  C   UNL     1      44.876   4.992  10.565  0.00  0.00    +0.000 A 
BRANCH  18  25
ATOM     24  C   UNL     1      43.328   2.493  11.567  0.00  0.00    +0.000 C 
ATOM     25  O   UNL     1      42.959   3.804  11.158  0.00  0.00    +0.000 OA
ENDBRANCH  18  25
ENDBRANCH  17  21
ENDBRANCH  16  17
ENDBRANCH   1  16
TORSDOF 7
ENDMDL
MODEL 8
REMARK VINA RESULT:    -5.303      3.360      8.352
REMARK INTER + INTRA:          -8.284
REMARK INTER:                  -7.523
REMARK INTRA:                  -0.761
REMARK UNBOUND:                -0.966
REMARK  Name = 
REMARK  9 active torsions:
REMARK  status: ('A' for Active; 'I' for Inactive)
REMARK    1  A    between atoms: C_1  and  O_2
REMARK    2  A    between atoms: O_2  and  C_3
REMARK    3  A    between atoms: C_6  and  O_7
REMARK    4  A    between atoms: O_7  and  C_8
REMARK    5  A    between atoms: C_8  and  C_9
REMARK    6  A    between atoms: C_9  and  C_10
REMARK    7  A    between atoms: C_9  and  O_11
REMARK    8  A    between atoms: C_9  and  C_12
REMARK    9  A    between atoms: C_15  and  C_16
REMARK                            x       y       z     vdW  Elec       q    Type
REMARK                         _______ _______ _______ _____ _____    ______ ____
ROOT
ATOM      1  C   UNL     1      48.500   7.158  13.059  0.00  0.00    +0.000 C 
ATOM      2  C   UNL     1      48.338   8.482  12.306  0.00  0.00    +0.000 C 
ENDROOT
BRANCH   1   3
ATOM      3  C   UNL     1      47.325   6.215  12.774  0.00  0.00    +0.000 A 
ATOM      4  C   UNL     1      46.998   5.195  13.669  0.00  0.00    +0.000 A 
ATOM      5  C   UNL     1      45.890   4.383  13.420  0.00  0.00    +0.000 A 
ATOM      6  C   UNL     1      45.130   4.595  12.274  0.00  0.00    +0.000 A 
ATOM      7  C   UNL     1      45.513   5.626  11.430  0.00  0.00    +0.000 A 
ATOM      8  N   UNL     1      46.590   6.432  11.649  0.00  0.00    +0.000 NA
BRANCH   6   9
ATOM      9  C   UNL     1      43.921   3.800  11.965  0.00  0.00    +0.000 C 
ATOM     10  N   UNL     1      43.865   2.524  12.461  0.00  0.00    +0.000 N 
ATOM     11  O   UNL     1      43.015   4.256  11.282  0.00  0.00    +0.000 OA
ATOM     12  H   UNL     1      44.661   2.045  12.854  0.00  0.00    +0.000 HD
ATOM     13  H   UNL     1      43.061   1.966  12.201  0.00  0.00    +0.000 HD
ENDBRANCH   6   9
ENDBRANCH   1   3
BRANCH   1  14
ATOM     14  O   UNL     1      49.740   6.576  12.599  0.00  0.00    +0.000 OA
ATOM     15  H   UNL     1      49.500   5.695  12.252  0.00  0.00    +0.000 HD
ENDBRANCH   1  14
BRANCH   1  16
ATOM     16  C   UNL     1      48.619   7.385  14.583  0.00  0.00    +0.000 C 
BRANCH  16  17
ATOM     17  O   UNL     1      49.837   6.782  15.053  0.00  0.00    +0.000 OA
BRANCH  17  21
ATOM     18  C   UNL     1      49.483   5.084  18.859  0.00  0.00    +0.000 A 
ATOM     19  C   UNL     1      50.756   5.263  18.322  0.00  0.00    +0.000 A 
ATOM     20  C   UNL     1      50.918   5.828  17.048  0.00  0.00    +0.000 A 
ATOM     21  C   UNL     1      49.807   6.224  16.304  0.00  0.00    +0.000 A 
ATOM     22  C   UNL     1      48.533   6.053  16.846  0.00  0.00    +0.000 A 
ATOM     23  C   UNL     1      48.372   5.488  18.116  0.00  0.00    +0.000 A 
BRANCH  18  25
ATOM     24  C   UNL     1      48.283   5.246  20.904  0.00  0.00    +0.000 C 
ATOM     25  O   UNL     1      49.195   4.533  20.077  0.00  0.00    +0.000 OA
ENDBRANCH  18  25
ENDBRANCH  17  21
ENDBRANCH  16  17
ENDBRANCH   1  16
TORSDOF 7
ENDMDL
MODEL 9
REMARK VINA RESULT:    -5.206      2.832      4.510
REMARK INTER + INTRA:          -8.150
REMARK INTER:                  -7.402
REMARK INTRA:                  -0.748
REMARK UNBOUND:                -0.966
REMARK  Name = 
REMARK  9 active torsions:
REMARK  status: ('A' for Active; 'I' for Inactive)
REMARK    1  A    between atoms: C_1  and  O_2
REMARK    2  A    between atoms: O_2  and  C_3
REMARK    3  A    between atoms: C_6  and  O_7
REMARK    4  A    between atoms: O_7  and  C_8
REMARK    5  A    between atoms: C_8  and  C_9
REMARK    6  A    between atoms: C_9  and  C_10
REMARK    7  A    between atoms: C_9  and  O_11
REMARK    8  A    between atoms: C_9  and  C_12
REMARK    9  A    between atoms: C_15  and  C_16
REMARK                            x       y       z     vdW  Elec       q    Type
REMARK                         _______ _______ _______ _____ _____    ______ ____
ROOT
ATOM      1  C   UNL     1      46.754   8.438  13.027  0.00  0.00    +0.000 C 
ATOM      2  C   UNL     1      45.709   9.275  12.282  0.00  0.00    +0.000 C 
ENDROOT
BRANCH   1   3
ATOM      3  C   UNL     1      48.144   8.611  12.404  0.00  0.00    +0.000 A 
ATOM      4  C   UNL     1      48.923   7.498  12.083  0.00  0.00    +0.000 A 
ATOM      5  C   UNL     1      50.162   7.674  11.464  0.00  0.00    +0.000 A 
ATOM      6  C   UNL     1      50.611   8.961  11.186  0.00  0.00    +0.000 A 
ATOM      7  C   UNL     1      49.785  10.019  11.532  0.00  0.00    +0.000 A 
ATOM      8  N   UNL     1      48.572   9.875  12.137  0.00  0.00    +0.000 NA
BRANCH   6   9
ATOM      9  C   UNL     1      51.894   9.223  10.498  0.00  0.00    +0.000 C 
ATOM     10  N   UNL     1      52.288  10.530  10.380  0.00  0.00    +0.000 N 
ATOM     11  O   UNL     1      52.570   8.314  10.040  0.00  0.00    +0.000 OA
ATOM     12  H   UNL     1      51.678  11.313  10.562  0.00  0.00    +0.000 HD
ATOM     13  H   UNL     1      53.139  10.708   9.861  0.00  0.00    +0.000 HD
ENDBRANCH   6   9
ENDBRANCH   1   3
BRANCH   1  14
ATOM     14  O   UNL     1      46.749   8.904  14.395  0.00  0.00    +0.000 OA
ATOM     15  H   UNL     1      46.838   9.875  14.338  0.00  0.00    +0.000 HD
ENDBRANCH   1  14
BRANCH   1  16
ATOM     16  C   UNL     1      46.376   6.939  13.034  0.00  0.00    +0.000 C 
BRANCH  16  17
ATOM     17  O   UNL     1      45.027   6.794  12.555  0.00  0.00    +0.000 OA
BRANCH  17  21
ATOM     18  C   UNL     1      44.495   3.733   9.757  0.00  0.00    +0.000 A 
ATOM     19  C   UNL     1      43.701   3.738  10.902  0.00  0.00    +0.000 A 
ATOM     20  C   UNL     1      43.849   4.746  11.866  0.00  0.00    +0.000 A 
ATOM     21  C   UNL     1      44.788   5.762  11.688  0.00  0.00    +0.000 A 
ATOM     22  C   UNL     1      45.576   5.761  10.536  0.00  0.00    +0.000 A 
ATOM     23  C   UNL     1      45.429   4.754   9.577  0.00  0.00    +0.000 A 
BRANCH  18  25
ATOM     24  C   UNL     1      45.553   1.896   8.680  0.00  0.00    +0.000 C 
ATOM     25  O   UNL     1      44.456   2.800   8.757  0.00  0.00    +0.000 OA
ENDBRANCH  18  25
ENDBRANCH  17  21
ENDBRANCH  16  17
ENDBRANCH   1  16
TORSDOF 7
ENDMDL
