MODEL 1
REMARK VINA RESULT:    -6.609      0.000      0.000
REMARK INTER + INTRA:          -8.511
REMARK INTER:                  -7.961
REMARK INTRA:                  -0.549
REMARK UNBOUND:                -0.549
REMARK  Name = 
REMARK  4 active torsions:
REMARK  status: ('A' for Active; 'I' for Inactive)
REMARK    1  A    between atoms: C_9  and  C_10
REMARK    2  A    between atoms: C_10  and  O_11
REMARK    3  A    between atoms: C_12  and  C_13
REMARK    4  A    between atoms: C_13  and  C_14
REMARK                            x       y       z     vdW  Elec       q    Type
REMARK                         _______ _______ _______ _____ _____    ______ ____
ROOT
ATOM      1  N   UNL     1      46.781   4.298  15.829  0.00  0.00    +0.000 NA
ATOM      2  C   UNL     1      46.938   4.574  14.579  0.00  0.00    +0.000 C 
ATOM      3  N   UNL     1      46.749   3.622  13.640  0.00  0.00    +0.000 N 
ATOM      4  N   UNL     1      47.540   5.700  14.107  0.00  0.00    +0.000 N 
ATOM      5  C   UNL     1      48.548   6.374  14.969  0.00  0.00    +0.000 C 
ATOM      6  C   UNL     1      48.674   7.817  14.441  0.00  0.00    +0.000 C 
ATOM      7  C   UNL     1      47.441   7.948  13.650  0.00  0.00    +0.000 A 
ATOM      8  C   UNL     1      46.799   8.901  12.917  0.00  0.00    +0.000 A 
ATOM      9  C   UNL     1      45.633   8.272  12.393  0.00  0.00    +0.000 A 
ATOM     10  C   UNL     1      45.617   6.946  12.871  0.00  0.00    +0.000 A 
ATOM     11  N   UNL     1      46.795   6.751  13.564  0.00  0.00    +0.000 N 
ATOM     12  H   UNL     1      46.462   3.333  15.921  0.00  0.00    +0.000 HD
ATOM     13  H   UNL     1      46.213   2.799  13.867  0.00  0.00    +0.000 HD
ATOM     14  H   UNL     1      46.662   3.937  12.684  0.00  0.00    +0.000 HD
ENDROOT
BRANCH   9  15
ATOM     15  C   UNL     1      44.624   8.991  11.549  0.00  0.00    +0.000 C 
BRANCH  15  16
ATOM     16  O   UNL     1      44.005  10.085  12.207  0.00  0.00    +0.000 OA
ATOM     17  H   UNL     1      43.207   9.737  12.636  0.00  0.00    +0.000 HD
ENDBRANCH  15  16
ENDBRANCH   9  15
BRANCH  10  18
ATOM     18  C   UNL     1      44.512   5.937  12.760  0.00  0.00    +0.000 C 
BRANCH  18  19
ATOM     19  C   UNL     1      44.528   5.030  11.551  0.00  0.00    +0.000 A 
ATOM     20  C   UNL     1      45.256   5.272  10.383  0.00  0.00    +0.000 A 
ATOM     21  C   UNL     1      45.171   4.382   9.314  0.00  0.00    +0.000 A 
ATOM     22  C   UNL     1      44.374   3.259   9.451  0.00  0.00    +0.000 A 
ATOM     23  N   UNL     1      43.675   2.973  10.567  0.00  0.00    +0.000 NA
ATOM     24  C   UNL     1      43.761   3.864  11.582  0.00  0.00    +0.000 A 
ENDBRANCH  18  19
ENDBRANCH  10  18
TORSDOF 4
ENDMDL
MODEL 2
REMARK VINA RESULT:    -6.266      2.719      4.187
REMARK INTER + INTRA:          -8.098
REMARK INTER:                  -7.662
REMARK INTRA:                  -0.436
REMARK UNBOUND:                -0.549
REMARK  Name = 
REMARK  4 active torsions:
REMARK  status: ('A' for Active; 'I' for Inactive)
REMARK    1  A    between atoms: C_9  and  C_10
REMARK    2  A    between atoms: C_10  and  O_11
REMARK    3  A    between atoms: C_12  and  C_13
REMARK    4  A    between atoms: C_13  and  C_14
REMARK                            x       y       z     vdW  Elec       q    Type
REMARK                         _______ _______ _______ _____ _____    ______ ____
ROOT
ATOM      1  N   UNL     1      43.760   9.826   9.470  0.00  0.00    +0.000 NA
ATOM      2  C   UNL     1      43.576   9.300  10.633  0.00  0.00    +0.000 C 
ATOM      3  N   UNL     1      42.334   8.959  11.040  0.00  0.00    +0.000 N 
ATOM      4  N   UNL     1      44.505   9.280  11.628  0.00  0.00    +0.000 N 
ATOM      5  C   UNL     1      45.540  10.348  11.645  0.00  0.00    +0.000 C 
ATOM      6  C   UNL     1      46.696   9.816  12.515  0.00  0.00    +0.000 C 
ATOM      7  C   UNL     1      46.412   8.373  12.531  0.00  0.00    +0.000 A 
ATOM      8  C   UNL     1      46.965   7.232  13.029  0.00  0.00    +0.000 A 
ATOM      9  C   UNL     1      46.080   6.176  12.667  0.00  0.00    +0.000 A 
ATOM     10  C   UNL     1      45.024   6.745  11.926  0.00  0.00    +0.000 A 
ATOM     11  N   UNL     1      45.209   8.114  11.943  0.00  0.00    +0.000 N 
ATOM     12  H   UNL     1      42.868   9.862   8.975  0.00  0.00    +0.000 HD
ATOM     13  H   UNL     1      41.602   8.838  10.357  0.00  0.00    +0.000 HD
ATOM     14  H   UNL     1      42.269   8.354  11.846  0.00  0.00    +0.000 HD
ENDROOT
BRANCH   9  15
ATOM     15  C   UNL     1      46.341   4.737  12.997  0.00  0.00    +0.000 C 
BRANCH  15  16
ATOM     16  O   UNL     1      45.320   4.137  13.779  0.00  0.00    +0.000 OA
ATOM     17  H   UNL     1      45.424   3.177  13.683  0.00  0.00    +0.000 HD
ENDBRANCH  15  16
ENDBRANCH   9  15
BRANCH  10  18
ATOM     18  C   UNL     1      43.942   6.039  11.164  0.00  0.00    +0.000 C 
BRANCH  18  19
ATOM     19  C   UNL     1      44.356   4.852  10.325  0.00  0.00    +0.000 A 
ATOM     20  C   UNL     1      45.249   4.907   9.251  0.00  0.00    +0.000 A 
ATOM     21  C   UNL     1      45.535   3.753   8.525  0.00  0.00    +0.000 A 
ATOM     22  C   UNL     1      44.935   2.566   8.907  0.00  0.00    +0.000 A 
ATOM     23  N   UNL     1      44.088   2.461   9.949  0.00  0.00    +0.000 NA
ATOM     24  C   UNL     1      43.813   3.600  10.625  0.00  0.00    +0.000 A 
ENDBRANCH  18  19
ENDBRANCH  10  18
TORSDOF 4
ENDMDL
MODEL 3
REMARK VINA RESULT:    -5.975      2.563      3.939
REMARK INTER + INTRA:          -7.746
REMARK INTER:                  -7.260
REMARK INTRA:                  -0.487
REMARK UNBOUND:                -0.549
REMARK  Name = 
REMARK  4 active torsions:
REMARK  status: ('A' for Active; 'I' for Inactive)
REMARK    1  A    between atoms: C_9  and  C_10
REMARK    2  A    between atoms: C_10  and  O_11
REMARK    3  A    between atoms: C_12  and  C_13
REMARK    4  A    between atoms: C_13  and  C_14
REMARK                            x       y       z     vdW  Elec       q    Type
REMARK                         _______ _______ _______ _____ _____    ______ ____
ROOT
ATOM      1  N   UNL     1      46.061  10.250  11.221  0.00  0.00    +0.000 NA
ATOM      2  C   UNL     1      45.671   9.617  12.274  0.00  0.00    +0.000 C 
ATOM      3  N   UNL     1      44.388   9.702  12.687  0.00  0.00    +0.000 N 
ATOM      4  N   UNL     1      46.506   9.051  13.189  0.00  0.00    +0.000 N 
ATOM      5  C   UNL     1      47.873   9.620  13.340  0.00  0.00    +0.000 C 
ATOM      6  C   UNL     1      48.722   8.530  14.022  0.00  0.00    +0.000 C 
ATOM      7  C   UNL     1      47.904   7.330  13.787  0.00  0.00    +0.000 A 
ATOM      8  C   UNL     1      47.968   5.991  14.028  0.00  0.00    +0.000 A 
ATOM      9  C   UNL     1      46.750   5.444  13.532  0.00  0.00    +0.000 A 
ATOM     10  C   UNL     1      46.006   6.504  12.977  0.00  0.00    +0.000 A 
ATOM     11  N   UNL     1      46.703   7.668  13.237  0.00  0.00    +0.000 N 
ATOM     12  H   UNL     1      45.259  10.719  10.797  0.00  0.00    +0.000 HD
ATOM     13  H   UNL     1      43.676  10.004  12.040  0.00  0.00    +0.000 HD
ATOM     14  H   UNL     1      44.083   9.021  13.369  0.00  0.00    +0.000 HD
ENDROOT
BRANCH   9  15
ATOM     15  C   UNL     1      46.433   3.979  13.572  0.00  0.00    +0.000 C 
BRANCH  15  16
ATOM     16  O   UNL     1      47.434   3.195  14.202  0.00  0.00    +0.000 OA
ATOM     17  H   UNL     1      47.945   3.798  14.767  0.00  0.00    +0.000 HD
ENDBRANCH  15  16
ENDBRANCH   9  15
BRANCH  10  18
ATOM     18  C   UNL     1      44.747   6.426  12.165  0.00  0.00    +0.000 C 
BRANCH  18  19
ATOM     19  C   UNL     1      44.783   5.565  10.924  0.00  0.00    +0.000 A 
ATOM     20  C   UNL     1      43.895   4.520  10.652  0.00  0.00    +0.000 A 
ATOM     21  C   UNL     1      44.042   3.769   9.487  0.00  0.00    +0.000 A 
ATOM     22  C   UNL     1      45.062   4.098   8.613  0.00  0.00    +0.000 A 
ATOM     23  N   UNL     1      45.925   5.112   8.822  0.00  0.00    +0.000 NA
ATOM     24  C   UNL     1      45.772   5.812   9.969  0.00  0.00    +0.000 A 
ENDBRANCH  18  19
ENDBRANCH  10  18
TORSDOF 4
ENDMDL
MODEL 4
REMARK VINA RESULT:    -5.816      1.940      2.575
REMARK INTER + INTRA:          -7.555
REMARK INTER:                  -7.112
REMARK INTRA:                  -0.443
REMARK UNBOUND:                -0.549
REMARK  Name = 
REMARK  4 active torsions:
REMARK  status: ('A' for Active; 'I' for Inactive)
REMARK    1  A    between atoms: C_9  and  C_10
REMARK    2  A    between atoms: C_10  and  O_11
REMARK    3  A    between atoms: C_12  and  C_13
REMARK    4  A    between atoms: C_13  and  C_14
REMARK                            x       y       z     vdW  Elec       q    Type
REMARK                         _______ _______ _______ _____ _____    ______ ____
ROOT
ATOM      1  N   UNL     1      46.763   3.541  17.589  0.00  0.00    +0.000 NA
ATOM      2  C   UNL     1      47.584   3.588  16.595  0.00  0.00    +0.000 C 
ATOM      3  N   UNL     1      48.015   2.450  16.011  0.00  0.00    +0.000 N 
ATOM      4  N   UNL     1      48.280   4.696  16.220  0.00  0.00    +0.000 N 
ATOM      5  C   UNL     1      48.581   5.721  17.255  0.00  0.00    +0.000 C 
ATOM      6  C   UNL     1      48.899   7.024  16.495  0.00  0.00    +0.000 C 
ATOM      7  C   UNL     1      48.325   6.738  15.171  0.00  0.00    +0.000 A 
ATOM      8  C   UNL     1      48.155   7.372  13.976  0.00  0.00    +0.000 A 
ATOM      9  C   UNL     1      47.530   6.425  13.115  0.00  0.00    +0.000 A 
ATOM     10  C   UNL     1      47.324   5.247  13.861  0.00  0.00    +0.000 A 
ATOM     11  N   UNL     1      47.912   5.441  15.096  0.00  0.00    +0.000 N 
ATOM     12  H   UNL     1      46.506   2.569  17.764  0.00  0.00    +0.000 HD
ATOM     13  H   UNL     1      47.494   1.596  16.139  0.00  0.00    +0.000 HD
ATOM     14  H   UNL     1      48.466   2.542  15.111  0.00  0.00    +0.000 HD
ENDROOT
BRANCH   9  15
ATOM     15  C   UNL     1      47.135   6.737  11.703  0.00  0.00    +0.000 C 
BRANCH  15  16
ATOM     16  O   UNL     1      45.944   7.502  11.599  0.00  0.00    +0.000 OA
ATOM     17  H   UNL     1      46.207   8.435  11.659  0.00  0.00    +0.000 HD
ENDBRANCH  15  16
ENDBRANCH   9  15
BRANCH  10  18
ATOM     18  C   UNL     1      46.537   4.030  13.471  0.00  0.00    +0.000 C 
BRANCH  18  19
ATOM     19  C   UNL     1      45.207   4.261  12.792  0.00  0.00    +0.000 A 
ATOM     20  C   UNL     1      44.183   5.066  13.298  0.00  0.00    +0.000 A 
ATOM     21  C   UNL     1      42.981   5.181  12.601  0.00  0.00    +0.000 A 
ATOM     22  C   UNL     1      42.845   4.504  11.402  0.00  0.00    +0.000 A 
ATOM     23  N   UNL     1      43.814   3.738  10.865  0.00  0.00    +0.000 NA
ATOM     24  C   UNL     1      44.962   3.628  11.571  0.00  0.00    +0.000 A 
ENDBRANCH  18  19
ENDBRANCH  10  18
TORSDOF 4
ENDMDL
MODEL 5
REMARK VINA RESULT:    -5.771      1.941      4.670
REMARK INTER + INTRA:          -7.501
REMARK INTER:                  -6.927
REMARK INTRA:                  -0.574
REMARK UNBOUND:                -0.549
REMARK  Name = 
REMARK  4 active torsions:
REMARK  status: ('A' for Active; 'I' for Inactive)
REMARK    1  A    between atoms: C_9  and  C_10
REMARK    2  A    between atoms: C_10  and  O_11
REMARK    3  A    between atoms: C_12  and  C_13
REMARK    4  A    between atoms: C_13  and  C_14
REMARK                            x       y       z     vdW  Elec       q    Type
REMARK                         _______ _______ _______ _____ _____    ______ ____
ROOT
ATOM      1  N   UNL     1      47.576   3.605  13.586  0.00  0.00    +0.000 NA
ATOM      2  C   UNL     1      46.755   4.470  14.076  0.00  0.00    +0.000 C 
ATOM      3  N   UNL     1      46.881   4.886  15.354  0.00  0.00    +0.000 N 
ATOM      4  N   UNL     1      45.579   4.834  13.493  0.00  0.00    +0.000 N 
ATOM      5  C   UNL     1      44.908   3.858  12.592  0.00  0.00    +0.000 C 
ATOM      6  C   UNL     1      43.935   4.673  11.718  0.00  0.00    +0.000 C 
ATOM      7  C   UNL     1      44.460   6.037  11.889  0.00  0.00    +0.000 A 
ATOM      8  C   UNL     1      44.198   7.293  11.430  0.00  0.00    +0.000 A 
ATOM      9  C   UNL     1      45.128   8.151  12.085  0.00  0.00    +0.000 A 
ATOM     10  C   UNL     1      45.942   7.345  12.906  0.00  0.00    +0.000 A 
ATOM     11  N   UNL     1      45.442   6.059  12.834  0.00  0.00    +0.000 N 
ATOM     12  H   UNL     1      48.287   3.386  14.286  0.00  0.00    +0.000 HD
ATOM     13  H   UNL     1      47.759   4.761  15.834  0.00  0.00    +0.000 HD
ATOM     14  H   UNL     1      46.367   5.715  15.616  0.00  0.00    +0.000 HD
ENDROOT
BRANCH   9  15
ATOM     15  C   UNL     1      45.200   9.627  11.832  0.00  0.00    +0.000 C 
BRANCH  15  16
ATOM     16  O   UNL     1      44.202  10.372  12.514  0.00  0.00    +0.000 OA
ATOM     17  H   UNL     1      43.544   9.732  12.829  0.00  0.00    +0.000 HD
ENDBRANCH  15  16
ENDBRANCH   9  15
BRANCH  10  18
ATOM     18  C   UNL     1      47.183   7.739  13.651  0.00  0.00    +0.000 C 
BRANCH  18  19
ATOM     19  C   UNL     1      48.386   8.130  12.824  0.00  0.00    +0.000 A 
ATOM     20  C   UNL     1      49.158   7.242  12.069  0.00  0.00    +0.000 A 
ATOM     21  C   UNL     1      50.269   7.708  11.368  0.00  0.00    +0.000 A 
ATOM     22  C   UNL     1      50.565   9.058  11.424  0.00  0.00    +0.000 A 
ATOM     23  N   UNL     1      49.836   9.954  12.118  0.00  0.00    +0.000 NA
ATOM     24  C   UNL     1      48.775   9.471  12.804  0.00  0.00    +0.000 A 
ENDBRANCH  18  19
ENDBRANCH  10  18
TORSDOF 4
ENDMDL
MODEL 6
REMARK VINA RESULT:    -5.304      2.906      4.476
REMARK INTER + INTRA:          -6.938
REMARK INTER:                  -6.255
REMARK INTRA:                  -0.683
REMARK UNBOUND:                -0.549
REMARK  Name = 
REMARK  4 active torsions:
REMARK  status: ('A' for Active; 'I' for Inactive)
REMARK    1  A    between atoms: C_9  and  C_10
REMARK    2  A    between atoms: C_10  and  O_11
REMARK    3  A    between atoms: C_12  and  C_13
REMARK    4  A    between atoms: C_13  and  C_14
REMARK                            x       y       z     vdW  Elec       q    Type
REMARK                         _______ _______ _______ _____ _____    ______ ____
ROOT
ATOM      1  N   UNL     1      44.055  10.234   9.943  0.00  0.00    +0.000 NA
ATOM      2  C   UNL     1      44.441  10.291  11.172  0.00  0.00    +0.000 C 
ATOM      3  N   UNL     1      43.534  10.319  12.172  0.00  0.00    +0.000 N 
ATOM      4  N   UNL     1      45.708  10.587  11.571  0.00  0.00    +0.000 N 
ATOM      5  C   UNL     1      46.553  11.418  10.671  0.00  0.00    +0.000 C 
ATOM      6  C   UNL     1      48.013  11.175  11.101  0.00  0.00    +0.000 C 
ATOM      7  C   UNL     1      47.887   9.930  11.874  0.00  0.00    +0.000 A 
ATOM      8  C   UNL     1      48.697   9.058  12.537  0.00  0.00    +0.000 A 
ATOM      9  C   UNL     1      47.836   8.070  13.096  0.00  0.00    +0.000 A 
ATOM     10  C   UNL     1      46.519   8.390  12.708  0.00  0.00    +0.000 A 
ATOM     11  N   UNL     1      46.576   9.595  12.037  0.00  0.00    +0.000 N 
ATOM     12  H   UNL     1      43.037  10.163   9.915  0.00  0.00    +0.000 HD
ATOM     13  H   UNL     1      42.591  10.006  11.998  0.00  0.00    +0.000 HD
ATOM     14  H   UNL     1      43.878  10.136  13.104  0.00  0.00    +0.000 HD
ENDROOT
BRANCH   9  15
ATOM     15  C   UNL     1      48.337   6.896  13.883  0.00  0.00    +0.000 C 
BRANCH  15  16
ATOM     16  O   UNL     1      48.415   5.696  13.130  0.00  0.00    +0.000 OA
ATOM     17  H   UNL     1      47.566   5.602  12.668  0.00  0.00    +0.000 HD
ENDBRANCH  15  16
ENDBRANCH   9  15
BRANCH  10  18
ATOM     18  C   UNL     1      45.278   7.564  12.880  0.00  0.00    +0.000 C 
BRANCH  18  19
ATOM     19  C   UNL     1      45.188   6.285  12.079  0.00  0.00    +0.000 A 
ATOM     20  C   UNL     1      45.514   6.167  10.726  0.00  0.00    +0.000 A 
ATOM     21  C   UNL     1      45.362   4.943  10.078  0.00  0.00    +0.000 A 
ATOM     22  C   UNL     1      44.905   3.861  10.809  0.00  0.00    +0.000 A 
ATOM     23  N   UNL     1      44.602   3.923  12.121  0.00  0.00    +0.000 NA
ATOM     24  C   UNL     1      44.741   5.127  12.720  0.00  0.00    +0.000 A 
ENDBRANCH  18  19
ENDBRANCH  10  18
TORSDOF 4
ENDMDL
MODEL 7
REMARK VINA RESULT:    -5.054      2.334      4.905
REMARK INTER + INTRA:          -6.637
REMARK INTER:                  -6.047
REMARK INTRA:                  -0.590
REMARK UNBOUND:                -0.549
REMARK  Name = 
REMARK  4 active torsions:
REMARK  status: ('A' for Active; 'I' for Inactive)
REMARK    1  A    between atoms: C_9  and  C_10
REMARK    2  A    between atoms: C_10  and  O_11
REMARK    3  A    between atoms: C_12  and  C_13
REMARK    4  A    between atoms: C_13  and  C_14
REMARK                            x       y       z     vdW  Elec       q    Type
REMARK                         _______ _______ _______ _____ _____    ______ ____
ROOT
ATOM      1  N   UNL     1      50.609   6.648  15.409  0.00  0.00    +0.000 NA
ATOM      2  C   UNL     1      49.423   7.102  15.187  0.00  0.00    +0.000 C 
ATOM      3  N   UNL     1      49.201   8.432  15.119  0.00  0.00    +0.000 N 
ATOM      4  N   UNL     1      48.285   6.359  15.266  0.00  0.00    +0.000 N 
ATOM      5  C   UNL     1      48.281   5.170  16.160  0.00  0.00    +0.000 C 
ATOM      6  C   UNL     1      47.120   4.274  15.686  0.00  0.00    +0.000 C 
ATOM      7  C   UNL     1      46.874   4.804  14.336  0.00  0.00    +0.000 A 
ATOM      8  C   UNL     1      46.064   4.541  13.272  0.00  0.00    +0.000 A 
ATOM      9  C   UNL     1      46.373   5.528  12.292  0.00  0.00    +0.000 A 
ATOM     10  C   UNL     1      47.398   6.340  12.818  0.00  0.00    +0.000 A 
ATOM     11  N   UNL     1      47.617   5.925  14.117  0.00  0.00    +0.000 N 
ATOM     12  H   UNL     1      51.263   7.431  15.453  0.00  0.00    +0.000 HD
ATOM     13  H   UNL     1      49.974   9.057  14.947  0.00  0.00    +0.000 HD
ATOM     14  H   UNL     1      48.319   8.727  14.724  0.00  0.00    +0.000 HD
ENDROOT
BRANCH   9  15
ATOM     15  C   UNL     1      45.721   5.575  10.943  0.00  0.00    +0.000 C 
BRANCH  15  16
ATOM     16  O   UNL     1      44.502   6.303  10.923  0.00  0.00    +0.000 OA
ATOM     17  H   UNL     1      44.014   6.007  10.137  0.00  0.00    +0.000 HD
ENDBRANCH  15  16
ENDBRANCH   9  15
BRANCH  10  18
ATOM     18  C   UNL     1      48.198   7.394  12.111  0.00  0.00    +0.000 C 
BRANCH  18  19
ATOM     19  C   UNL     1      47.584   8.771  12.011  0.00  0.00    +0.000 A 
ATOM     20  C   UNL     1      46.227   9.053  12.187  0.00  0.00    +0.000 A 
ATOM     21  C   UNL     1      45.764  10.360  12.040  0.00  0.00    +0.000 A 
ATOM     22  C   UNL     1      46.677  11.354  11.741  0.00  0.00    +0.000 A 
ATOM     23  N   UNL     1      47.998  11.132  11.587  0.00  0.00    +0.000 NA
ATOM     24  C   UNL     1      48.417   9.853  11.716  0.00  0.00    +0.000 A 
ENDBRANCH  18  19
ENDBRANCH  10  18
TORSDOF 4
ENDMDL
MODEL 8
REMARK VINA RESULT:    -5.038      3.025      4.330
REMARK INTER + INTRA:          -6.619
REMARK INTER:                  -5.986
REMARK INTRA:                  -0.633
REMARK UNBOUND:                -0.549
REMARK  Name = 
REMARK  4 active torsions:
REMARK  status: ('A' for Active; 'I' for Inactive)
REMARK    1  A    between atoms: C_9  and  C_10
REMARK    2  A    between atoms: C_10  and  O_11
REMARK    3  A    between atoms: C_12  and  C_13
REMARK    4  A    between atoms: C_13  and  C_14
REMARK                            x       y       z     vdW  Elec       q    Type
REMARK                         _______ _______ _______ _____ _____    ______ ____
ROOT
ATOM      1  N   UNL     1      49.653   8.419  11.718  0.00  0.00    +0.000 NA
ATOM      2  C   UNL     1      48.597   8.245  12.437  0.00  0.00    +0.000 C 
ATOM      3  N   UNL     1      47.369   8.314  11.878  0.00  0.00    +0.000 N 
ATOM      4  N   UNL     1      48.581   8.245  13.799  0.00  0.00    +0.000 N 
ATOM      5  C   UNL     1      49.636   9.012  14.514  0.00  0.00    +0.000 C 
ATOM      6  C   UNL     1      49.686   8.447  15.947  0.00  0.00    +0.000 C 
ATOM      7  C   UNL     1      48.997   7.158  15.778  0.00  0.00    +0.000 A 
ATOM      8  C   UNL     1      48.670   6.072  16.533  0.00  0.00    +0.000 A 
ATOM      9  C   UNL     1      47.944   5.200  15.672  0.00  0.00    +0.000 A 
ATOM     10  C   UNL     1      47.892   5.807  14.401  0.00  0.00    +0.000 A 
ATOM     11  N   UNL     1      48.468   7.057  14.526  0.00  0.00    +0.000 N 
ATOM     12  H   UNL     1      49.376   8.544  10.743  0.00  0.00    +0.000 HD
ATOM     13  H   UNL     1      47.270   8.208  10.880  0.00  0.00    +0.000 HD
ATOM     14  H   UNL     1      46.600   7.951  12.423  0.00  0.00    +0.000 HD
ENDROOT
BRANCH   9  15
ATOM     15  C   UNL     1      47.426   3.862  16.108  0.00  0.00    +0.000 C 
BRANCH  15  16
ATOM     16  O   UNL     1      48.078   2.767  15.484  0.00  0.00    +0.000 OA
ATOM     17  H   UNL     1      48.712   3.143  14.853  0.00  0.00    +0.000 HD
ENDBRANCH  15  16
ENDBRANCH   9  15
BRANCH  10  18
ATOM     18  C   UNL     1      47.409   5.214  13.111  0.00  0.00    +0.000 C 
BRANCH  18  19
ATOM     19  C   UNL     1      45.928   4.940  12.993  0.00  0.00    +0.000 A 
ATOM     20  C   UNL     1      44.930   5.917  13.050  0.00  0.00    +0.000 A 
ATOM     21  C   UNL     1      43.589   5.547  12.962  0.00  0.00    +0.000 A 
ATOM     22  C   UNL     1      43.283   4.208  12.797  0.00  0.00    +0.000 A 
ATOM     23  N   UNL     1      44.212   3.236  12.712  0.00  0.00    +0.000 NA
ATOM     24  C   UNL     1      45.504   3.620  12.820  0.00  0.00    +0.000 A 
ENDBRANCH  18  19
ENDBRANCH  10  18
TORSDOF 4
ENDMDL
MODEL 9
REMARK VINA RESULT:    -4.969      5.420      7.695
REMARK INTER + INTRA:          -6.535
REMARK INTER:                  -5.881
REMARK INTRA:                  -0.654
REMARK UNBOUND:                -0.549
REMARK  Name = 
REMARK  4 active torsions:
REMARK  status: ('A' for Active; 'I' for Inactive)
REMARK    1  A    between atoms: C_9  and  C_10
REMARK    2  A    between atoms: C_10  and  O_11
REMARK    3  A    between atoms: C_12  and  C_13
REMARK    4  A    between atoms: C_13  and  C_14
REMARK                            x       y       z     vdW  Elec       q    Type
REMARK                         _______ _______ _______ _____ _____    ______ ____
ROOT
ATOM      1  N   UNL     1      53.802   5.120  17.444  0.00  0.00    +0.000 NA
ATOM      2  C   UNL     1      52.830   4.827  18.237  0.00  0.00    +0.000 C 
ATOM      3  N   UNL     1      52.556   5.611  19.302  0.00  0.00    +0.000 N 
ATOM      4  N   UNL     1      52.182   3.629  18.257  0.00  0.00    +0.000 N 
ATOM      5  C   UNL     1      52.919   2.424  17.791  0.00  0.00    +0.000 C 
ATOM      6  C   UNL     1      51.850   1.368  17.448  0.00  0.00    +0.000 C 
ATOM      7  C   UNL     1      50.644   2.201  17.325  0.00  0.00    +0.000 A 
ATOM      8  C   UNL     1      49.327   2.046  17.011  0.00  0.00    +0.000 A 
ATOM      9  C   UNL     1      48.738   3.336  17.141  0.00  0.00    +0.000 A 
ATOM     10  C   UNL     1      49.762   4.233  17.510  0.00  0.00    +0.000 A 
ATOM     11  N   UNL     1      50.905   3.483  17.708  0.00  0.00    +0.000 N 
ATOM     12  H   UNL     1      54.221   6.003  17.740  0.00  0.00    +0.000 HD
ATOM     13  H   UNL     1      52.900   6.559  19.324  0.00  0.00    +0.000 HD
ATOM     14  H   UNL     1      51.663   5.472  19.753  0.00  0.00    +0.000 HD
ENDROOT
BRANCH   9  15
ATOM     15  C   UNL     1      47.293   3.611  16.850  0.00  0.00    +0.000 C 
BRANCH  15  16
ATOM     16  O   UNL     1      46.396   2.868  17.661  0.00  0.00    +0.000 OA
ATOM     17  H   UNL     1      45.544   3.333  17.631  0.00  0.00    +0.000 HD
ENDBRANCH  15  16
ENDBRANCH   9  15
BRANCH  10  18
ATOM     18  C   UNL     1      49.697   5.730  17.587  0.00  0.00    +0.000 C 
BRANCH  18  19
ATOM     19  C   UNL     1      49.775   6.489  16.282  0.00  0.00    +0.000 A 
ATOM     20  C   UNL     1      48.703   6.679  15.405  0.00  0.00    +0.000 A 
ATOM     21  C   UNL     1      48.897   7.369  14.210  0.00  0.00    +0.000 A 
ATOM     22  C   UNL     1      50.156   7.872  13.934  0.00  0.00    +0.000 A 
ATOM     23  N   UNL     1      51.211   7.734  14.761  0.00  0.00    +0.000 NA
ATOM     24  C   UNL     1      51.000   7.042  15.904  0.00  0.00    +0.000 A 
ENDBRANCH  18  19
ENDBRANCH  10  18
TORSDOF 4
ENDMDL
