MODEL 1
REMARK VINA RESULT:    -7.241      0.000      0.000
REMARK INTER + INTRA:          -9.645
REMARK INTER:                  -8.934
REMARK INTRA:                  -0.711
REMARK UNBOUND:                -0.711
REMARK  Name = 
REMARK  5 active torsions:
REMARK  status: ('A' for Active; 'I' for Inactive)
REMARK    1  A    between atoms: C_1  and  C_2
REMARK    2  A    between atoms: C_2  and  O_3
REMARK    3  A    between atoms: C_2  and  C_14
REMARK    4  A    between atoms: O_3  and  C_4
REMARK    5  A    between atoms: C_9  and  C_10
REMARK                            x       y       z     vdW  Elec       q    Type
REMARK                         _______ _______ _______ _____ _____    ______ ____
ROOT
ATOM      1  C   UNL     1      44.965   3.730   9.135  0.00  0.00    +0.000 A 
ATOM      2  C   UNL     1      44.642   2.461   9.609  0.00  0.00    +0.000 A 
ATOM      3  C   UNL     1      45.176   1.327   8.998  0.00  0.00    +0.000 A 
ATOM      4  C   UNL     1      46.046   1.457   7.922  0.00  0.00    +0.000 A 
ATOM      5  F   UNL     1      46.525   0.333   7.365  0.00  0.00    +0.000 F 
ATOM      6  C   UNL     1      46.397   2.715   7.438  0.00  0.00    +0.000 A 
ATOM      7  C   UNL     1      45.849   3.854   8.051  0.00  0.00    +0.000 A 
ENDROOT
BRANCH   6   8
ATOM      8  C   UNL     1      47.319   2.893   6.281  0.00  0.00    +0.000 C 
ATOM      9  N   UNL     1      48.647   2.628   6.469  0.00  0.00    +0.000 N 
ATOM     10  O   UNL     1      46.907   3.255   5.185  0.00  0.00    +0.000 OA
ATOM     11  H   UNL     1      49.034   2.328   7.355  0.00  0.00    +0.000 HD
ATOM     12  H   UNL     1      49.272   2.736   5.681  0.00  0.00    +0.000 HD
ENDBRANCH   6   8
BRANCH   1  13
ATOM     13  O   UNL     1      44.432   4.901   9.593  0.00  0.00    +0.000 OA
BRANCH  13  15
ATOM     14  C   UNL     1      43.050   6.119  11.216  0.00  0.00    +0.000 C 
ATOM     15  C   UNL     1      44.098   5.027  10.987  0.00  0.00    +0.000 C 
BRANCH  15  16
ATOM     16  C   UNL     1      45.368   5.406  11.743  0.00  0.00    +0.000 A 
ATOM     17  C   UNL     1      46.155   6.482  11.329  0.00  0.00    +0.000 A 
ATOM     18  C   UNL     1      47.321   6.780  12.031  0.00  0.00    +0.000 A 
ATOM     19  C   UNL     1      47.664   6.013  13.136  0.00  0.00    +0.000 A 
ATOM     20  C   UNL     1      46.814   4.984  13.504  0.00  0.00    +0.000 A 
ATOM     21  N   UNL     1      45.678   4.668  12.841  0.00  0.00    +0.000 NA
ENDBRANCH  15  16
ENDBRANCH  13  15
ENDBRANCH   1  13
TORSDOF 4
ENDMDL
MODEL 2
REMARK VINA RESULT:    -6.587      3.535      6.850
REMARK INTER + INTRA:          -8.839
REMARK INTER:                  -8.221
REMARK INTRA:                  -0.618
REMARK UNBOUND:                -0.711
REMARK  Name = 
REMARK  5 active torsions:
REMARK  status: ('A' for Active; 'I' for Inactive)
REMARK    1  A    between atoms: C_1  and  C_2
REMARK    2  A    between atoms: C_2  and  O_3
REMARK    3  A    between atoms: C_2  and  C_14
REMARK    4  A    between atoms: O_3  and  C_4
REMARK    5  A    between atoms: C_9  and  C_10
REMARK                            x       y       z     vdW  Elec       q    Type
REMARK                         _______ _______ _______ _____ _____    ______ ____
ROOT
ATOM      1  C   UNL     1      46.119   5.115  12.816  0.00  0.00    +0.000 A 
ATOM      2  C   UNL     1      46.814   6.243  12.388  0.00  0.00    +0.000 A 
ATOM      3  C   UNL     1      47.801   6.807  13.196  0.00  0.00    +0.000 A 
ATOM      4  C   UNL     1      48.106   6.238  14.427  0.00  0.00    +0.000 A 
ATOM      5  F   UNL     1      49.058   6.826  15.170  0.00  0.00    +0.000 F 
ATOM      6  C   UNL     1      47.435   5.101  14.872  0.00  0.00    +0.000 A 
ATOM      7  C   UNL     1      46.436   4.543  14.058  0.00  0.00    +0.000 A 
ENDROOT
BRANCH   6   8
ATOM      8  C   UNL     1      47.729   4.470  16.189  0.00  0.00    +0.000 C 
ATOM      9  N   UNL     1      47.150   5.007  17.305  0.00  0.00    +0.000 N 
ATOM     10  O   UNL     1      48.461   3.490  16.280  0.00  0.00    +0.000 OA
ATOM     11  H   UNL     1      46.541   5.815  17.281  0.00  0.00    +0.000 HD
ATOM     12  H   UNL     1      47.339   4.572  18.198  0.00  0.00    +0.000 HD
ENDBRANCH   6   8
BRANCH   1  13
ATOM     13  O   UNL     1      45.074   4.536  12.154  0.00  0.00    +0.000 OA
BRANCH  13  15
ATOM     14  C   UNL     1      43.110   5.197  10.838  0.00  0.00    +0.000 C 
ATOM     15  C   UNL     1      44.635   5.094  10.902  0.00  0.00    +0.000 C 
BRANCH  15  16
ATOM     16  C   UNL     1      45.108   4.170   9.783  0.00  0.00    +0.000 A 
ATOM     17  C   UNL     1      44.917   2.790   9.864  0.00  0.00    +0.000 A 
ATOM     18  C   UNL     1      45.387   1.978   8.834  0.00  0.00    +0.000 A 
ATOM     19  C   UNL     1      46.016   2.561   7.743  0.00  0.00    +0.000 A 
ATOM     20  C   UNL     1      46.136   3.940   7.719  0.00  0.00    +0.000 A 
ATOM     21  N   UNL     1      45.695   4.754   8.706  0.00  0.00    +0.000 NA
ENDBRANCH  15  16
ENDBRANCH  13  15
ENDBRANCH   1  13
TORSDOF 4
ENDMDL
MODEL 3
REMARK VINA RESULT:    -6.463      3.682      6.723
REMARK INTER + INTRA:          -8.685
REMARK INTER:                  -8.199
REMARK INTRA:                  -0.486
REMARK UNBOUND:                -0.711
REMARK  Name = 
REMARK  5 active torsions:
REMARK  status: ('A' for Active; 'I' for Inactive)
REMARK    1  A    between atoms: C_1  and  C_2
REMARK    2  A    between atoms: C_2  and  O_3
REMARK    3  A    between atoms: C_2  and  C_14
REMARK    4  A    between atoms: O_3  and  C_4
REMARK    5  A    between atoms: C_9  and  C_10
REMARK                            x       y       z     vdW  Elec       q    Type
REMARK                         _______ _______ _______ _____ _____    ______ ____
ROOT
ATOM      1  C   UNL     1      45.884   6.400  11.781  0.00  0.00    +0.000 A 
ATOM      2  C   UNL     1      47.140   6.788  12.239  0.00  0.00    +0.000 A 
ATOM      3  C   UNL     1      47.439   8.140  12.406  0.00  0.00    +0.000 A 
ATOM      4  C   UNL     1      46.479   9.107  12.129  0.00  0.00    +0.000 A 
ATOM      5  F   UNL     1      46.822  10.395  12.298  0.00  0.00    +0.000 F 
ATOM      6  C   UNL     1      45.210   8.744  11.684  0.00  0.00    +0.000 A 
ATOM      7  C   UNL     1      44.918   7.382  11.510  0.00  0.00    +0.000 A 
ENDROOT
BRANCH   6   8
ATOM      8  C   UNL     1      44.161   9.753  11.369  0.00  0.00    +0.000 C 
ATOM      9  N   UNL     1      43.454   9.608  10.208  0.00  0.00    +0.000 N 
ATOM     10  O   UNL     1      43.922  10.686  12.129  0.00  0.00    +0.000 OA
ATOM     11  H   UNL     1      43.615   8.856   9.550  0.00  0.00    +0.000 HD
ATOM     12  H   UNL     1      42.732  10.286  10.000  0.00  0.00    +0.000 HD
ENDBRANCH   6   8
BRANCH   1  13
ATOM     13  O   UNL     1      45.513   5.117  11.494  0.00  0.00    +0.000 OA
BRANCH  13  15
ATOM     14  C   UNL     1      43.295   4.180  11.018  0.00  0.00    +0.000 C 
ATOM     15  C   UNL     1      44.539   4.878  10.463  0.00  0.00    +0.000 C 
BRANCH  15  16
ATOM     16  C   UNL     1      45.177   3.974   9.412  0.00  0.00    +0.000 A 
ATOM     17  C   UNL     1      45.083   2.585   9.509  0.00  0.00    +0.000 A 
ATOM     18  C   UNL     1      45.701   1.794   8.544  0.00  0.00    +0.000 A 
ATOM     19  C   UNL     1      46.380   2.404   7.498  0.00  0.00    +0.000 A 
ATOM     20  C   UNL     1      46.398   3.788   7.452  0.00  0.00    +0.000 A 
ATOM     21  N   UNL     1      45.811   4.582   8.376  0.00  0.00    +0.000 NA
ENDBRANCH  15  16
ENDBRANCH  13  15
ENDBRANCH   1  13
TORSDOF 4
ENDMDL
MODEL 4
REMARK VINA RESULT:    -6.298      3.481      6.529
REMARK INTER + INTRA:          -8.482
REMARK INTER:                  -7.827
REMARK INTRA:                  -0.656
REMARK UNBOUND:                -0.711
REMARK  Name = 
REMARK  5 active torsions:
REMARK  status: ('A' for Active; 'I' for Inactive)
REMARK    1  A    between atoms: C_1  and  C_2
REMARK    2  A    between atoms: C_2  and  O_3
REMARK    3  A    between atoms: C_2  and  C_14
REMARK    4  A    between atoms: O_3  and  C_4
REMARK    5  A    between atoms: C_9  and  C_10
REMARK                            x       y       z     vdW  Elec       q    Type
REMARK                         _______ _______ _______ _____ _____    ______ ____
ROOT
ATOM      1  C   UNL     1      45.770   5.504  12.161  0.00  0.00    +0.000 A 
ATOM      2  C   UNL     1      45.125   6.655  11.716  0.00  0.00    +0.000 A 
ATOM      3  C   UNL     1      45.570   7.912  12.127  0.00  0.00    +0.000 A 
ATOM      4  C   UNL     1      46.667   8.022  12.973  0.00  0.00    +0.000 A 
ATOM      5  F   UNL     1      47.049   9.255  13.346  0.00  0.00    +0.000 F 
ATOM      6  C   UNL     1      47.339   6.886  13.421  0.00  0.00    +0.000 A 
ATOM      7  C   UNL     1      46.881   5.624  13.010  0.00  0.00    +0.000 A 
ENDROOT
BRANCH   6   8
ATOM      8  C   UNL     1      48.512   6.966  14.335  0.00  0.00    +0.000 C 
ATOM      9  N   UNL     1      48.313   6.712  15.663  0.00  0.00    +0.000 N 
ATOM     10  O   UNL     1      49.631   7.241  13.916  0.00  0.00    +0.000 OA
ATOM     11  H   UNL     1      47.409   6.482  16.056  0.00  0.00    +0.000 HD
ATOM     12  H   UNL     1      49.112   6.754  16.282  0.00  0.00    +0.000 HD
ENDBRANCH   6   8
BRANCH   1  13
ATOM     13  O   UNL     1      45.367   4.226  11.898  0.00  0.00    +0.000 OA
BRANCH  13  15
ATOM     14  C   UNL     1      43.369   2.921  11.322  0.00  0.00    +0.000 C 
ATOM     15  C   UNL     1      44.371   3.992  10.886  0.00  0.00    +0.000 C 
BRANCH  15  16
ATOM     16  C   UNL     1      45.084   3.509   9.627  0.00  0.00    +0.000 A 
ATOM     17  C   UNL     1      45.569   4.417   8.684  0.00  0.00    +0.000 A 
ATOM     18  C   UNL     1      46.191   3.935   7.535  0.00  0.00    +0.000 A 
ATOM     19  C   UNL     1      46.332   2.565   7.363  0.00  0.00    +0.000 A 
ATOM     20  C   UNL     1      45.857   1.730   8.359  0.00  0.00    +0.000 A 
ATOM     21  N   UNL     1      45.245   2.167   9.483  0.00  0.00    +0.000 NA
ENDBRANCH  15  16
ENDBRANCH  13  15
ENDBRANCH   1  13
TORSDOF 4
ENDMDL
MODEL 5
REMARK VINA RESULT:    -6.272      3.824      5.724
REMARK INTER + INTRA:          -8.450
REMARK INTER:                  -7.823
REMARK INTRA:                  -0.626
REMARK UNBOUND:                -0.711
REMARK  Name = 
REMARK  5 active torsions:
REMARK  status: ('A' for Active; 'I' for Inactive)
REMARK    1  A    between atoms: C_1  and  C_2
REMARK    2  A    between atoms: C_2  and  O_3
REMARK    3  A    between atoms: C_2  and  C_14
REMARK    4  A    between atoms: O_3  and  C_4
REMARK    5  A    between atoms: C_9  and  C_10
REMARK                            x       y       z     vdW  Elec       q    Type
REMARK                         _______ _______ _______ _____ _____    ______ ____
ROOT
ATOM      1  C   UNL     1      46.327   5.258  13.009  0.00  0.00    +0.000 A 
ATOM      2  C   UNL     1      45.777   6.502  12.713  0.00  0.00    +0.000 A 
ATOM      3  C   UNL     1      44.650   6.593  11.895  0.00  0.00    +0.000 A 
ATOM      4  C   UNL     1      44.064   5.442  11.383  0.00  0.00    +0.000 A 
ATOM      5  F   UNL     1      42.986   5.587  10.594  0.00  0.00    +0.000 F 
ATOM      6  C   UNL     1      44.586   4.185  11.676  0.00  0.00    +0.000 A 
ATOM      7  C   UNL     1      45.725   4.099  12.492  0.00  0.00    +0.000 A 
ENDROOT
BRANCH   6   8
ATOM      8  C   UNL     1      43.989   2.931  11.137  0.00  0.00    +0.000 C 
ATOM      9  N   UNL     1      44.601   2.332  10.072  0.00  0.00    +0.000 N 
ATOM     10  O   UNL     1      42.982   2.437  11.634  0.00  0.00    +0.000 OA
ATOM     11  H   UNL     1      45.431   2.701   9.627  0.00  0.00    +0.000 HD
ATOM     12  H   UNL     1      44.202   1.473   9.713  0.00  0.00    +0.000 HD
ENDBRANCH   6   8
BRANCH   1  13
ATOM     13  O   UNL     1      47.477   5.055  13.718  0.00  0.00    +0.000 OA
BRANCH  13  15
ATOM     14  C   UNL     1      48.906   6.760  14.755  0.00  0.00    +0.000 C 
ATOM     15  C   UNL     1      47.712   5.817  14.916  0.00  0.00    +0.000 C 
BRANCH  15  16
ATOM     16  C   UNL     1      48.014   4.837  16.046  0.00  0.00    +0.000 A 
ATOM     17  C   UNL     1      47.072   3.885  16.440  0.00  0.00    +0.000 A 
ATOM     18  C   UNL     1      47.376   3.026  17.494  0.00  0.00    +0.000 A 
ATOM     19  C   UNL     1      48.614   3.123  18.114  0.00  0.00    +0.000 A 
ATOM     20  C   UNL     1      49.507   4.069  17.642  0.00  0.00    +0.000 A 
ATOM     21  N   UNL     1      49.240   4.920  16.625  0.00  0.00    +0.000 NA
ENDBRANCH  15  16
ENDBRANCH  13  15
ENDBRANCH   1  13
TORSDOF 4
ENDMDL
MODEL 6
REMARK VINA RESULT:    -5.875      4.392      6.857
REMARK INTER + INTRA:          -7.960
REMARK INTER:                  -7.421
REMARK INTRA:                  -0.539
REMARK UNBOUND:                -0.711
REMARK  Name = 
REMARK  5 active torsions:
REMARK  status: ('A' for Active; 'I' for Inactive)
REMARK    1  A    between atoms: C_1  and  C_2
REMARK    2  A    between atoms: C_2  and  O_3
REMARK    3  A    between atoms: C_2  and  C_14
REMARK    4  A    between atoms: O_3  and  C_4
REMARK    5  A    between atoms: C_9  and  C_10
REMARK                            x       y       z     vdW  Elec       q    Type
REMARK                         _______ _______ _______ _____ _____    ______ ____
ROOT
ATOM      1  C   UNL     1      47.656   5.665  14.506  0.00  0.00    +0.000 A 
ATOM      2  C   UNL     1      47.982   6.636  13.563  0.00  0.00    +0.000 A 
ATOM      3  C   UNL     1      47.318   6.673  12.337  0.00  0.00    +0.000 A 
ATOM      4  C   UNL     1      46.318   5.750  12.055  0.00  0.00    +0.000 A 
ATOM      5  F   UNL     1      45.717   5.825  10.856  0.00  0.00    +0.000 F 
ATOM      6  C   UNL     1      45.963   4.778  12.987  0.00  0.00    +0.000 A 
ATOM      7  C   UNL     1      46.640   4.739  14.217  0.00  0.00    +0.000 A 
ENDROOT
BRANCH   6   8
ATOM      8  C   UNL     1      44.902   3.768  12.716  0.00  0.00    +0.000 C 
ATOM      9  N   UNL     1      45.142   2.823  11.758  0.00  0.00    +0.000 N 
ATOM     10  O   UNL     1      43.844   3.768  13.337  0.00  0.00    +0.000 OA
ATOM     11  H   UNL     1      45.998   2.782  11.219  0.00  0.00    +0.000 HD
ATOM     12  H   UNL     1      44.427   2.128  11.582  0.00  0.00    +0.000 HD
ENDBRANCH   6   8
BRANCH   1  13
ATOM     13  O   UNL     1      48.300   5.476  15.696  0.00  0.00    +0.000 OA
BRANCH  13  15
ATOM     14  C   UNL     1      47.195   4.722  17.754  0.00  0.00    +0.000 C 
ATOM     15  C   UNL     1      47.977   4.327  16.499  0.00  0.00    +0.000 C 
BRANCH  15  16
ATOM     16  C   UNL     1      49.285   3.669  16.927  0.00  0.00    +0.000 A 
ATOM     17  C   UNL     1      50.265   4.395  17.606  0.00  0.00    +0.000 A 
ATOM     18  C   UNL     1      51.456   3.765  17.957  0.00  0.00    +0.000 A 
ATOM     19  C   UNL     1      51.634   2.425  17.641  0.00  0.00    +0.000 A 
ATOM     20  C   UNL     1      50.602   1.764  16.998  0.00  0.00    +0.000 A 
ATOM     21  N   UNL     1      49.436   2.349  16.641  0.00  0.00    +0.000 NA
ENDBRANCH  15  16
ENDBRANCH  13  15
ENDBRANCH   1  13
TORSDOF 4
ENDMDL
MODEL 7
REMARK VINA RESULT:    -5.773      2.719      3.839
REMARK INTER + INTRA:          -7.834
REMARK INTER:                  -7.328
REMARK INTRA:                  -0.507
REMARK UNBOUND:                -0.711
REMARK  Name = 
REMARK  5 active torsions:
REMARK  status: ('A' for Active; 'I' for Inactive)
REMARK    1  A    between atoms: C_1  and  C_2
REMARK    2  A    between atoms: C_2  and  O_3
REMARK    3  A    between atoms: C_2  and  C_14
REMARK    4  A    between atoms: O_3  and  C_4
REMARK    5  A    between atoms: C_9  and  C_10
REMARK                            x       y       z     vdW  Elec       q    Type
REMARK                         _______ _______ _______ _____ _____    ______ ____
ROOT
ATOM      1  C   UNL     1      45.347   5.173   9.791  0.00  0.00    +0.000 A 
ATOM      2  C   UNL     1      45.697   4.539   8.601  0.00  0.00    +0.000 A 
ATOM      3  C   UNL     1      45.355   3.203   8.392  0.00  0.00    +0.000 A 
ATOM      4  C   UNL     1      44.652   2.501   9.363  0.00  0.00    +0.000 A 
ATOM      5  F   UNL     1      44.356   1.215   9.114  0.00  0.00    +0.000 F 
ATOM      6  C   UNL     1      44.277   3.116  10.555  0.00  0.00    +0.000 A 
ATOM      7  C   UNL     1      44.630   4.459  10.765  0.00  0.00    +0.000 A 
ENDROOT
BRANCH   6   8
ATOM      8  C   UNL     1      43.530   2.392  11.621  0.00  0.00    +0.000 C 
ATOM      9  N   UNL     1      43.813   2.693  12.924  0.00  0.00    +0.000 N 
ATOM     10  O   UNL     1      42.676   1.555  11.349  0.00  0.00    +0.000 OA
ATOM     11  H   UNL     1      44.509   3.375  13.199  0.00  0.00    +0.000 HD
ATOM     12  H   UNL     1      43.297   2.211  13.649  0.00  0.00    +0.000 HD
ENDBRANCH   6   8
BRANCH   1  13
ATOM     13  O   UNL     1      45.707   6.443  10.142  0.00  0.00    +0.000 OA
BRANCH  13  15
ATOM     14  C   UNL     1      44.856   8.347  11.436  0.00  0.00    +0.000 C 
ATOM     15  C   UNL     1      45.411   6.921  11.466  0.00  0.00    +0.000 C 
BRANCH  15  16
ATOM     16  C   UNL     1      46.708   6.919  12.268  0.00  0.00    +0.000 A 
ATOM     17  C   UNL     1      46.822   6.179  13.447  0.00  0.00    +0.000 A 
ATOM     18  C   UNL     1      48.014   6.224  14.165  0.00  0.00    +0.000 A 
ATOM     19  C   UNL     1      49.069   6.987  13.683  0.00  0.00    +0.000 A 
ATOM     20  C   UNL     1      48.891   7.664  12.489  0.00  0.00    +0.000 A 
ATOM     21  N   UNL     1      47.744   7.644  11.771  0.00  0.00    +0.000 NA
ENDBRANCH  15  16
ENDBRANCH  13  15
ENDBRANCH   1  13
TORSDOF 4
ENDMDL
MODEL 8
REMARK VINA RESULT:    -5.622      2.994      4.162
REMARK INTER + INTRA:          -7.648
REMARK INTER:                  -7.055
REMARK INTRA:                  -0.594
REMARK UNBOUND:                -0.711
REMARK  Name = 
REMARK  5 active torsions:
REMARK  status: ('A' for Active; 'I' for Inactive)
REMARK    1  A    between atoms: C_1  and  C_2
REMARK    2  A    between atoms: C_2  and  O_3
REMARK    3  A    between atoms: C_2  and  C_14
REMARK    4  A    between atoms: O_3  and  C_4
REMARK    5  A    between atoms: C_9  and  C_10
REMARK                            x       y       z     vdW  Elec       q    Type
REMARK                         _______ _______ _______ _____ _____    ______ ____
ROOT
ATOM      1  C   UNL     1      45.226   5.658  11.827  0.00  0.00    +0.000 A 
ATOM      2  C   UNL     1      44.468   5.215  12.907  0.00  0.00    +0.000 A 
ATOM      3  C   UNL     1      43.738   4.030  12.811  0.00  0.00    +0.000 A 
ATOM      4  C   UNL     1      43.776   3.278  11.643  0.00  0.00    +0.000 A 
ATOM      5  F   UNL     1      43.048   2.150  11.601  0.00  0.00    +0.000 F 
ATOM      6  C   UNL     1      44.539   3.692  10.554  0.00  0.00    +0.000 A 
ATOM      7  C   UNL     1      45.264   4.890  10.652  0.00  0.00    +0.000 A 
ENDROOT
BRANCH   6   8
ATOM      8  C   UNL     1      44.596   2.917   9.283  0.00  0.00    +0.000 C 
ATOM      9  N   UNL     1      44.242   3.551   8.125  0.00  0.00    +0.000 N 
ATOM     10  O   UNL     1      44.958   1.745   9.264  0.00  0.00    +0.000 OA
ATOM     11  H   UNL     1      43.936   4.515   8.090  0.00  0.00    +0.000 HD
ATOM     12  H   UNL     1      44.293   3.028   7.260  0.00  0.00    +0.000 HD
ENDBRANCH   6   8
BRANCH   1  13
ATOM     13  O   UNL     1      45.903   6.844  11.775  0.00  0.00    +0.000 OA
BRANCH  13  15
ATOM     14  C   UNL     1      45.299   9.063  12.634  0.00  0.00    +0.000 C 
ATOM     15  C   UNL     1      45.922   7.698  12.933  0.00  0.00    +0.000 C 
BRANCH  15  16
ATOM     16  C   UNL     1      47.378   7.906  13.340  0.00  0.00    +0.000 A 
ATOM     17  C   UNL     1      48.089   6.902  14.000  0.00  0.00    +0.000 A 
ATOM     18  C   UNL     1      49.408   7.140  14.378  0.00  0.00    +0.000 A 
ATOM     19  C   UNL     1      49.992   8.362  14.073  0.00  0.00    +0.000 A 
ATOM     20  C   UNL     1      49.233   9.294  13.385  0.00  0.00    +0.000 A 
ATOM     21  N   UNL     1      47.949   9.093  13.008  0.00  0.00    +0.000 NA
ENDBRANCH  15  16
ENDBRANCH  13  15
ENDBRANCH   1  13
TORSDOF 4
ENDMDL
MODEL 9
REMARK VINA RESULT:    -5.587      3.310      4.916
REMARK INTER + INTRA:          -7.605
REMARK INTER:                  -7.423
REMARK INTRA:                  -0.182
REMARK UNBOUND:                -0.711
REMARK  Name = 
REMARK  5 active torsions:
REMARK  status: ('A' for Active; 'I' for Inactive)
REMARK    1  A    between atoms: C_1  and  C_2
REMARK    2  A    between atoms: C_2  and  O_3
REMARK    3  A    between atoms: C_2  and  C_14
REMARK    4  A    between atoms: O_3  and  C_4
REMARK    5  A    between atoms: C_9  and  C_10
REMARK                            x       y       z     vdW  Elec       q    Type
REMARK                         _______ _______ _______ _____ _____    ______ ____
ROOT
ATOM      1  C   UNL     1      45.770   5.879  10.835  0.00  0.00    +0.000 A 
ATOM      2  C   UNL     1      45.919   5.549   9.491  0.00  0.00    +0.000 A 
ATOM      3  C   UNL     1      45.313   4.401   8.979  0.00  0.00    +0.000 A 
ATOM      4  C   UNL     1      44.546   3.589   9.806  0.00  0.00    +0.000 A 
ATOM      5  F   UNL     1      43.991   2.492   9.265  0.00  0.00    +0.000 F 
ATOM      6  C   UNL     1      44.369   3.905  11.151  0.00  0.00    +0.000 A 
ATOM      7  C   UNL     1      44.989   5.057  11.662  0.00  0.00    +0.000 A 
ENDROOT
BRANCH   6   8
ATOM      8  C   UNL     1      43.561   3.053  12.067  0.00  0.00    +0.000 C 
ATOM      9  N   UNL     1      43.535   3.379  13.394  0.00  0.00    +0.000 N 
ATOM     10  O   UNL     1      42.926   2.090  11.652  0.00  0.00    +0.000 OA
ATOM     11  H   UNL     1      44.043   4.163  13.785  0.00  0.00    +0.000 HD
ATOM     12  H   UNL     1      42.977   2.808  14.016  0.00  0.00    +0.000 HD
ENDBRANCH   6   8
BRANCH   1  13
ATOM     13  O   UNL     1      46.391   6.922  11.462  0.00  0.00    +0.000 OA
BRANCH  13  15
ATOM     14  C   UNL     1      47.508   6.562  13.618  0.00  0.00    +0.000 C 
ATOM     15  C   UNL     1      47.661   6.706  12.102  0.00  0.00    +0.000 C 
BRANCH  15  16
ATOM     16  C   UNL     1      48.545   7.916  11.814  0.00  0.00    +0.000 A 
ATOM     17  C   UNL     1      49.902   7.761  11.527  0.00  0.00    +0.000 A 
ATOM     18  C   UNL     1      50.681   8.892  11.295  0.00  0.00    +0.000 A 
ATOM     19  C   UNL     1      50.086  10.146  11.336  0.00  0.00    +0.000 A 
ATOM     20  C   UNL     1      48.728  10.215  11.593  0.00  0.00    +0.000 A 
ATOM     21  N   UNL     1      47.947   9.136  11.826  0.00  0.00    +0.000 NA
ENDBRANCH  15  16
ENDBRANCH  13  15
ENDBRANCH   1  13
TORSDOF 4
ENDMDL
