MODEL 1
REMARK VINA RESULT:    -7.420      0.000      0.000
REMARK INTER + INTRA:         -10.883
REMARK INTER:                 -10.023
REMARK INTRA:                  -0.860
REMARK UNBOUND:                -0.860
REMARK  Name = 
REMARK  9 active torsions:
REMARK  status: ('A' for Active; 'I' for Inactive)
REMARK    1  A    between atoms: C_1  and  C_2
REMARK    2  A    between atoms: C_2  and  C_3
REMARK    3  A    between atoms: C_2  and  C_4
REMARK    4  A    between atoms: C_2  and  O_5
REMARK    5  A    between atoms: O_5  and  C_6
REMARK    6  A    between atoms: C_6  and  C_7
REMARK    7  A    between atoms: C_10  and  C_11
REMARK    8  A    between atoms: C_11  and  N_12
REMARK    9  A    between atoms: C_17  and  C_18
REMARK                            x       y       z     vdW  Elec       q    Type
REMARK                         _______ _______ _______ _____ _____    ______ ____
ROOT
ATOM      1  N   UNL     1      44.334   4.296  10.526  0.00  0.00    +0.000 N 
ATOM      2  C   UNL     1      43.752   3.083  10.776  0.00  0.00    +0.000 A 
ATOM      3  N   UNL     1      44.145   2.169   9.919  0.00  0.00    +0.000 NA
ATOM      4  C   UNL     1      45.016   2.809   9.076  0.00  0.00    +0.000 A 
ATOM      5  C   UNL     1      45.703   2.314   7.971  0.00  0.00    +0.000 A 
ATOM      6  C   UNL     1      46.501   3.231   7.304  0.00  0.00    +0.000 A 
ATOM      7  N   UNL     1      46.666   4.543   7.665  0.00  0.00    +0.000 NA
ATOM      8  C   UNL     1      45.997   5.010   8.744  0.00  0.00    +0.000 A 
ATOM      9  C   UNL     1      45.165   4.147   9.440  0.00  0.00    +0.000 A 
ENDROOT
BRANCH   6  10
ATOM     10  C   UNL     1      47.235   2.795   6.073  0.00  0.00    +0.000 C 
ATOM     11  N   UNL     1      48.538   2.420   6.262  0.00  0.00    +0.000 N 
ATOM     12  O   UNL     1      46.720   2.781   4.961  0.00  0.00    +0.000 OA
ATOM     13  H   UNL     1      48.942   2.459   7.192  0.00  0.00    +0.000 HD
ATOM     14  H   UNL     1      49.094   2.139   5.468  0.00  0.00    +0.000 HD
ENDBRANCH   6  10
BRANCH   1  15
ATOM     15  C   UNL     1      44.006   5.532  11.215  0.00  0.00    +0.000 C 
BRANCH  15  19
ATOM     16  C   UNL     1      47.367   6.969  13.522  0.00  0.00    +0.000 A 
ATOM     17  C   UNL     1      46.702   7.823  12.635  0.00  0.00    +0.000 A 
ATOM     18  C   UNL     1      45.609   7.366  11.896  0.00  0.00    +0.000 A 
ATOM     19  C   UNL     1      45.162   6.044  12.031  0.00  0.00    +0.000 A 
ATOM     20  C   UNL     1      45.821   5.195  12.932  0.00  0.00    +0.000 A 
ATOM     21  C   UNL     1      46.913   5.652  13.670  0.00  0.00    +0.000 A 
BRANCH  16  22
ATOM     22  C   UNL     1      48.601   7.433  14.249  0.00  0.00    +0.000 C 
BRANCH  22  23
ATOM     23  O   UNL     1      49.241   6.329  14.884  0.00  0.00    +0.000 OA
BRANCH  23  25
ATOM     24  C   UNL     1      50.901   6.283  16.691  0.00  0.00    +0.000 C 
ATOM     25  C   UNL     1      49.425   6.443  16.306  0.00  0.00    +0.000 C 
ATOM     26  C   UNL     1      48.546   5.442  17.067  0.00  0.00    +0.000 C 
ATOM     27  C   UNL     1      48.982   7.866  16.679  0.00  0.00    +0.000 C 
ENDBRANCH  23  25
ENDBRANCH  22  23
ENDBRANCH  16  22
ENDBRANCH  15  19
ENDBRANCH   1  15
TORSDOF 6
ENDMDL
MODEL 2
REMARK VINA RESULT:    -7.407      1.857      2.295
REMARK INTER + INTRA:         -10.866
REMARK INTER:                  -9.961
REMARK INTRA:                  -0.904
REMARK UNBOUND:                -0.860
REMARK  Name = 
REMARK  9 active torsions:
REMARK  status: ('A' for Active; 'I' for Inactive)
REMARK    1  A    between atoms: C_1  and  C_2
REMARK    2  A    between atoms: C_2  and  C_3
REMARK    3  A    between atoms: C_2  and  C_4
REMARK    4  A    between atoms: C_2  and  O_5
REMARK    5  A    between atoms: O_5  and  C_6
REMARK    6  A    between atoms: C_6  and  C_7
REMARK    7  A    between atoms: C_10  and  C_11
REMARK    8  A    between atoms: C_11  and  N_12
REMARK    9  A    between atoms: C_17  and  C_18
REMARK                            x       y       z     vdW  Elec       q    Type
REMARK                         _______ _______ _______ _____ _____    ______ ____
ROOT
ATOM      1  N   UNL     1      43.970   4.352  10.539  0.00  0.00    +0.000 N 
ATOM      2  C   UNL     1      43.508   3.150  10.998  0.00  0.00    +0.000 A 
ATOM      3  N   UNL     1      44.044   2.142  10.349  0.00  0.00    +0.000 NA
ATOM      4  C   UNL     1      44.890   2.708   9.429  0.00  0.00    +0.000 A 
ATOM      5  C   UNL     1      45.687   2.096   8.467  0.00  0.00    +0.000 A 
ATOM      6  C   UNL     1      46.420   2.957   7.664  0.00  0.00    +0.000 A 
ATOM      7  N   UNL     1      46.422   4.323   7.769  0.00  0.00    +0.000 NA
ATOM      8  C   UNL     1      45.647   4.905   8.712  0.00  0.00    +0.000 A 
ATOM      9  C   UNL     1      44.874   4.099   9.532  0.00  0.00    +0.000 A 
ENDROOT
BRANCH   6  10
ATOM     10  C   UNL     1      47.265   2.385   6.567  0.00  0.00    +0.000 C 
ATOM     11  N   UNL     1      47.186   3.028   5.361  0.00  0.00    +0.000 N 
ATOM     12  O   UNL     1      47.977   1.400   6.721  0.00  0.00    +0.000 OA
ATOM     13  H   UNL     1      46.574   3.831   5.260  0.00  0.00    +0.000 HD
ATOM     14  H   UNL     1      47.713   2.678   4.576  0.00  0.00    +0.000 HD
ENDBRANCH   6  10
BRANCH   1  15
ATOM     15  C   UNL     1      43.473   5.650  10.963  0.00  0.00    +0.000 C 
BRANCH  15  19
ATOM     16  C   UNL     1      46.527   7.890  13.045  0.00  0.00    +0.000 A 
ATOM     17  C   UNL     1      45.661   8.536  12.155  0.00  0.00    +0.000 A 
ATOM     18  C   UNL     1      44.666   7.818  11.489  0.00  0.00    +0.000 A 
ATOM     19  C   UNL     1      44.521   6.439  11.701  0.00  0.00    +0.000 A 
ATOM     20  C   UNL     1      45.381   5.799  12.604  0.00  0.00    +0.000 A 
ATOM     21  C   UNL     1      46.375   6.517  13.269  0.00  0.00    +0.000 A 
BRANCH  16  22
ATOM     22  C   UNL     1      47.658   8.645  13.691  0.00  0.00    +0.000 C 
BRANCH  22  23
ATOM     23  O   UNL     1      48.878   7.921  13.547  0.00  0.00    +0.000 OA
BRANCH  23  25
ATOM     24  C   UNL     1      51.251   8.535  13.427  0.00  0.00    +0.000 C 
ATOM     25  C   UNL     1      49.885   8.543  12.731  0.00  0.00    +0.000 C 
ATOM     26  C   UNL     1      49.480   9.968  12.329  0.00  0.00    +0.000 C 
ATOM     27  C   UNL     1      49.989   7.687  11.458  0.00  0.00    +0.000 C 
ENDBRANCH  23  25
ENDBRANCH  22  23
ENDBRANCH  16  22
ENDBRANCH  15  19
ENDBRANCH   1  15
TORSDOF 6
ENDMDL
MODEL 3
REMARK VINA RESULT:    -6.126      2.933      7.940
REMARK INTER + INTRA:          -9.136
REMARK INTER:                  -8.457
REMARK INTRA:                  -0.679
REMARK UNBOUND:                -0.860
REMARK  Name = 
REMARK  9 active torsions:
REMARK  status: ('A' for Active; 'I' for Inactive)
REMARK    1  A    between atoms: C_1  and  C_2
REMARK    2  A    between atoms: C_2  and  C_3
REMARK    3  A    between atoms: C_2  and  C_4
REMARK    4  A    between atoms: C_2  and  O_5
REMARK    5  A    between atoms: O_5  and  C_6
REMARK    6  A    between atoms: C_6  and  C_7
REMARK    7  A    between atoms: C_10  and  C_11
REMARK    8  A    between atoms: C_11  and  N_12
REMARK    9  A    between atoms: C_17  and  C_18
REMARK                            x       y       z     vdW  Elec       q    Type
REMARK                         _______ _______ _______ _____ _____    ______ ____
ROOT
ATOM      1  N   UNL     1      46.363   7.113  12.948  0.00  0.00    +0.000 N 
ATOM      2  C   UNL     1      47.324   8.040  13.244  0.00  0.00    +0.000 A 
ATOM      3  N   UNL     1      48.153   7.606  14.166  0.00  0.00    +0.000 NA
ATOM      4  C   UNL     1      47.715   6.346  14.486  0.00  0.00    +0.000 A 
ATOM      5  C   UNL     1      48.214   5.448  15.425  0.00  0.00    +0.000 A 
ATOM      6  C   UNL     1      47.527   4.248  15.527  0.00  0.00    +0.000 A 
ATOM      7  N   UNL     1      46.437   3.897  14.774  0.00  0.00    +0.000 NA
ATOM      8  C   UNL     1      45.965   4.776  13.862  0.00  0.00    +0.000 A 
ATOM      9  C   UNL     1      46.596   6.002  13.727  0.00  0.00    +0.000 A 
ENDROOT
BRANCH   6  10
ATOM     10  C   UNL     1      47.966   3.244  16.550  0.00  0.00    +0.000 C 
ATOM     11  N   UNL     1      47.256   3.243  17.721  0.00  0.00    +0.000 N 
ATOM     12  O   UNL     1      48.903   2.477  16.369  0.00  0.00    +0.000 OA
ATOM     13  H   UNL     1      46.496   3.903  17.847  0.00  0.00    +0.000 HD
ATOM     14  H   UNL     1      47.517   2.607  18.459  0.00  0.00    +0.000 HD
ENDBRANCH   6  10
BRANCH   1  15
ATOM     15  C   UNL     1      45.230   7.342  12.067  0.00  0.00    +0.000 C 
BRANCH  15  19
ATOM     16  C   UNL     1      44.941   4.243   9.069  0.00  0.00    +0.000 A 
ATOM     17  C   UNL     1      43.943   4.381  10.041  0.00  0.00    +0.000 A 
ATOM     18  C   UNL     1      44.027   5.388  11.005  0.00  0.00    +0.000 A 
ATOM     19  C   UNL     1      45.113   6.275  11.013  0.00  0.00    +0.000 A 
ATOM     20  C   UNL     1      46.104   6.143  10.029  0.00  0.00    +0.000 A 
ATOM     21  C   UNL     1      46.018   5.137   9.067  0.00  0.00    +0.000 A 
BRANCH  16  22
ATOM     22  C   UNL     1      44.898   3.102   8.088  0.00  0.00    +0.000 C 
BRANCH  22  23
ATOM     23  O   UNL     1      45.677   3.415   6.936  0.00  0.00    +0.000 OA
BRANCH  23  25
ATOM     24  C   UNL     1      46.698   1.259   7.510  0.00  0.00    +0.000 C 
ATOM     25  C   UNL     1      46.787   2.539   6.671  0.00  0.00    +0.000 C 
ATOM     26  C   UNL     1      48.128   3.251   6.891  0.00  0.00    +0.000 C 
ATOM     27  C   UNL     1      46.677   2.151   5.188  0.00  0.00    +0.000 C 
ENDBRANCH  23  25
ENDBRANCH  22  23
ENDBRANCH  16  22
ENDBRANCH  15  19
ENDBRANCH   1  15
TORSDOF 6
ENDMDL
MODEL 4
REMARK VINA RESULT:    -6.094      3.214      7.576
REMARK INTER + INTRA:          -9.093
REMARK INTER:                  -8.129
REMARK INTRA:                  -0.964
REMARK UNBOUND:                -0.860
REMARK  Name = 
REMARK  9 active torsions:
REMARK  status: ('A' for Active; 'I' for Inactive)
REMARK    1  A    between atoms: C_1  and  C_2
REMARK    2  A    between atoms: C_2  and  C_3
REMARK    3  A    between atoms: C_2  and  C_4
REMARK    4  A    between atoms: C_2  and  O_5
REMARK    5  A    between atoms: O_5  and  C_6
REMARK    6  A    between atoms: C_6  and  C_7
REMARK    7  A    between atoms: C_10  and  C_11
REMARK    8  A    between atoms: C_11  and  N_12
REMARK    9  A    between atoms: C_17  and  C_18
REMARK                            x       y       z     vdW  Elec       q    Type
REMARK                         _______ _______ _______ _____ _____    ______ ____
ROOT
ATOM      1  N   UNL     1      45.421   7.280  12.568  0.00  0.00    +0.000 N 
ATOM      2  C   UNL     1      45.007   8.549  12.266  0.00  0.00    +0.000 A 
ATOM      3  N   UNL     1      46.020   9.377  12.148  0.00  0.00    +0.000 NA
ATOM      4  C   UNL     1      47.139   8.619  12.384  0.00  0.00    +0.000 A 
ATOM      5  C   UNL     1      48.477   9.003  12.412  0.00  0.00    +0.000 A 
ATOM      6  C   UNL     1      49.381   7.994  12.705  0.00  0.00    +0.000 A 
ATOM      7  N   UNL     1      49.052   6.684  12.940  0.00  0.00    +0.000 NA
ATOM      8  C   UNL     1      47.749   6.323  12.906  0.00  0.00    +0.000 A 
ATOM      9  C   UNL     1      46.795   7.292  12.640  0.00  0.00    +0.000 A 
ENDROOT
BRANCH   6  10
ATOM     10  C   UNL     1      50.838   8.330  12.806  0.00  0.00    +0.000 C 
ATOM     11  N   UNL     1      51.642   7.774  11.848  0.00  0.00    +0.000 N 
ATOM     12  O   UNL     1      51.296   9.045  13.689  0.00  0.00    +0.000 OA
ATOM     13  H   UNL     1      51.236   7.172  11.140  0.00  0.00    +0.000 HD
ATOM     14  H   UNL     1      52.636   7.942  11.875  0.00  0.00    +0.000 HD
ENDBRANCH   6  10
BRANCH   1  15
ATOM     15  C   UNL     1      44.537   6.172  12.887  0.00  0.00    +0.000 C 
BRANCH  15  19
ATOM     16  C   UNL     1      44.609   3.179   9.771  0.00  0.00    +0.000 A 
ATOM     17  C   UNL     1      45.022   2.857  11.068  0.00  0.00    +0.000 A 
ATOM     18  C   UNL     1      44.989   3.818  12.081  0.00  0.00    +0.000 A 
ATOM     19  C   UNL     1      44.544   5.120  11.811  0.00  0.00    +0.000 A 
ATOM     20  C   UNL     1      44.118   5.435  10.513  0.00  0.00    +0.000 A 
ATOM     21  C   UNL     1      44.150   4.474   9.503  0.00  0.00    +0.000 A 
BRANCH  16  22
ATOM     22  C   UNL     1      44.731   2.171   8.659  0.00  0.00    +0.000 C 
BRANCH  22  23
ATOM     23  O   UNL     1      44.983   2.832   7.421  0.00  0.00    +0.000 OA
BRANCH  23  25
ATOM     24  C   UNL     1      47.123   4.032   7.477  0.00  0.00    +0.000 C 
ATOM     25  C   UNL     1      46.347   2.812   6.965  0.00  0.00    +0.000 C 
ATOM     26  C   UNL     1      46.426   2.710   5.437  0.00  0.00    +0.000 C 
ATOM     27  C   UNL     1      46.980   1.550   7.573  0.00  0.00    +0.000 C 
ENDBRANCH  23  25
ENDBRANCH  22  23
ENDBRANCH  16  22
ENDBRANCH  15  19
ENDBRANCH   1  15
TORSDOF 6
ENDMDL
MODEL 5
REMARK VINA RESULT:    -5.905      4.104      5.804
REMARK INTER + INTRA:          -8.837
REMARK INTER:                  -7.987
REMARK INTRA:                  -0.850
REMARK UNBOUND:                -0.860
REMARK  Name = 
REMARK  9 active torsions:
REMARK  status: ('A' for Active; 'I' for Inactive)
REMARK    1  A    between atoms: C_1  and  C_2
REMARK    2  A    between atoms: C_2  and  C_3
REMARK    3  A    between atoms: C_2  and  C_4
REMARK    4  A    between atoms: C_2  and  O_5
REMARK    5  A    between atoms: O_5  and  C_6
REMARK    6  A    between atoms: C_6  and  C_7
REMARK    7  A    between atoms: C_10  and  C_11
REMARK    8  A    between atoms: C_11  and  N_12
REMARK    9  A    between atoms: C_17  and  C_18
REMARK                            x       y       z     vdW  Elec       q    Type
REMARK                         _______ _______ _______ _____ _____    ______ ____
ROOT
ATOM      1  N   UNL     1      45.963   7.810  12.771  0.00  0.00    +0.000 N 
ATOM      2  C   UNL     1      45.153   8.604  12.005  0.00  0.00    +0.000 A 
ATOM      3  N   UNL     1      44.300   7.895  11.301  0.00  0.00    +0.000 NA
ATOM      4  C   UNL     1      44.564   6.587  11.619  0.00  0.00    +0.000 A 
ATOM      5  C   UNL     1      43.971   5.423  11.137  0.00  0.00    +0.000 A 
ATOM      6  C   UNL     1      44.483   4.238  11.644  0.00  0.00    +0.000 A 
ATOM      7  N   UNL     1      45.488   4.147  12.572  0.00  0.00    +0.000 NA
ATOM      8  C   UNL     1      46.052   5.285  13.036  0.00  0.00    +0.000 A 
ATOM      9  C   UNL     1      45.598   6.501  12.551  0.00  0.00    +0.000 A 
ENDROOT
BRANCH   6  10
ATOM     10  C   UNL     1      43.938   2.937  11.141  0.00  0.00    +0.000 C 
ATOM     11  N   UNL     1      44.604   2.387  10.078  0.00  0.00    +0.000 N 
ATOM     12  O   UNL     1      42.955   2.394  11.630  0.00  0.00    +0.000 OA
ATOM     13  H   UNL     1      45.405   2.870   9.684  0.00  0.00    +0.000 HD
ATOM     14  H   UNL     1      44.272   1.523   9.678  0.00  0.00    +0.000 HD
ENDBRANCH   6  10
BRANCH   1  15
ATOM     15  C   UNL     1      47.089   8.285  13.557  0.00  0.00    +0.000 C 
BRANCH  15  19
ATOM     16  C   UNL     1      50.705   8.686  11.226  0.00  0.00    +0.000 A 
ATOM     17  C   UNL     1      50.343   7.444  11.759  0.00  0.00    +0.000 A 
ATOM     18  C   UNL     1      49.169   7.308  12.503  0.00  0.00    +0.000 A 
ATOM     19  C   UNL     1      48.338   8.414  12.729  0.00  0.00    +0.000 A 
ATOM     20  C   UNL     1      48.697   9.654  12.181  0.00  0.00    +0.000 A 
ATOM     21  C   UNL     1      49.869   9.789  11.437  0.00  0.00    +0.000 A 
BRANCH  16  22
ATOM     22  C   UNL     1      52.015   8.854  10.503  0.00  0.00    +0.000 C 
BRANCH  22  23
ATOM     23  O   UNL     1      52.894   7.778  10.822  0.00  0.00    +0.000 OA
BRANCH  23  25
ATOM     24  C   UNL     1      52.524   7.016   8.519  0.00  0.00    +0.000 C 
ATOM     25  C   UNL     1      53.496   7.105   9.702  0.00  0.00    +0.000 C 
ATOM     26  C   UNL     1      54.015   5.716  10.095  0.00  0.00    +0.000 C 
ATOM     27  C   UNL     1      54.692   7.973   9.278  0.00  0.00    +0.000 C 
ENDBRANCH  23  25
ENDBRANCH  22  23
ENDBRANCH  16  22
ENDBRANCH  15  19
ENDBRANCH   1  15
TORSDOF 6
ENDMDL
MODEL 6
REMARK VINA RESULT:    -5.761      4.341      5.980
REMARK INTER + INTRA:          -8.643
REMARK INTER:                  -7.810
REMARK INTRA:                  -0.833
REMARK UNBOUND:                -0.860
REMARK  Name = 
REMARK  9 active torsions:
REMARK  status: ('A' for Active; 'I' for Inactive)
REMARK    1  A    between atoms: C_1  and  C_2
REMARK    2  A    between atoms: C_2  and  C_3
REMARK    3  A    between atoms: C_2  and  C_4
REMARK    4  A    between atoms: C_2  and  O_5
REMARK    5  A    between atoms: O_5  and  C_6
REMARK    6  A    between atoms: C_6  and  C_7
REMARK    7  A    between atoms: C_10  and  C_11
REMARK    8  A    between atoms: C_11  and  N_12
REMARK    9  A    between atoms: C_17  and  C_18
REMARK                            x       y       z     vdW  Elec       q    Type
REMARK                         _______ _______ _______ _____ _____    ______ ____
ROOT
ATOM      1  N   UNL     1      47.407   6.431  13.588  0.00  0.00    +0.000 N 
ATOM      2  C   UNL     1      47.690   5.552  14.597  0.00  0.00    +0.000 A 
ATOM      3  N   UNL     1      47.075   4.404  14.430  0.00  0.00    +0.000 NA
ATOM      4  C   UNL     1      46.361   4.538  13.266  0.00  0.00    +0.000 A 
ATOM      5  C   UNL     1      45.512   3.630  12.640  0.00  0.00    +0.000 A 
ATOM      6  C   UNL     1      44.914   4.080  11.472  0.00  0.00    +0.000 A 
ATOM      7  N   UNL     1      45.117   5.311  10.907  0.00  0.00    +0.000 NA
ATOM      8  C   UNL     1      45.948   6.183  11.523  0.00  0.00    +0.000 A 
ATOM      9  C   UNL     1      46.559   5.800  12.706  0.00  0.00    +0.000 A 
ENDROOT
BRANCH   6  10
ATOM     10  C   UNL     1      43.946   3.185  10.761  0.00  0.00    +0.000 C 
ATOM     11  N   UNL     1      44.101   3.105   9.403  0.00  0.00    +0.000 N 
ATOM     12  O   UNL     1      43.060   2.569  11.341  0.00  0.00    +0.000 OA
ATOM     13  H   UNL     1      44.833   3.641   8.949  0.00  0.00    +0.000 HD
ATOM     14  H   UNL     1      43.465   2.538   8.863  0.00  0.00    +0.000 HD
ENDBRANCH   6  10
BRANCH   1  15
ATOM     15  C   UNL     1      47.829   7.821  13.553  0.00  0.00    +0.000 C 
BRANCH  15  19
ATOM     16  C   UNL     1      51.704   8.235  11.684  0.00  0.00    +0.000 A 
ATOM     17  C   UNL     1      50.594   7.838  10.929  0.00  0.00    +0.000 A 
ATOM     18  C   UNL     1      49.338   7.714  11.527  0.00  0.00    +0.000 A 
ATOM     19  C   UNL     1      49.171   7.984  12.893  0.00  0.00    +0.000 A 
ATOM     20  C   UNL     1      50.282   8.396  13.643  0.00  0.00    +0.000 A 
ATOM     21  C   UNL     1      51.536   8.520  13.045  0.00  0.00    +0.000 A 
BRANCH  16  22
ATOM     22  C   UNL     1      53.074   8.280  11.062  0.00  0.00    +0.000 C 
BRANCH  22  23
ATOM     23  O   UNL     1      52.969   8.272   9.641  0.00  0.00    +0.000 OA
BRANCH  23  25
ATOM     24  C   UNL     1      53.701   5.942   9.892  0.00  0.00    +0.000 C 
ATOM     25  C   UNL     1      53.597   7.164   8.971  0.00  0.00    +0.000 C 
ATOM     26  C   UNL     1      54.973   7.552   8.413  0.00  0.00    +0.000 C 
ATOM     27  C   UNL     1      52.677   6.803   7.794  0.00  0.00    +0.000 C 
ENDBRANCH  23  25
ENDBRANCH  22  23
ENDBRANCH  16  22
ENDBRANCH  15  19
ENDBRANCH   1  15
TORSDOF 6
ENDMDL
MODEL 7
REMARK VINA RESULT:    -5.633      4.385      8.596
REMARK INTER + INTRA:          -8.469
REMARK INTER:                  -7.513
REMARK INTRA:                  -0.956
REMARK UNBOUND:                -0.860
REMARK  Name = 
REMARK  9 active torsions:
REMARK  status: ('A' for Active; 'I' for Inactive)
REMARK    1  A    between atoms: C_1  and  C_2
REMARK    2  A    between atoms: C_2  and  C_3
REMARK    3  A    between atoms: C_2  and  C_4
REMARK    4  A    between atoms: C_2  and  O_5
REMARK    5  A    between atoms: O_5  and  C_6
REMARK    6  A    between atoms: C_6  and  C_7
REMARK    7  A    between atoms: C_10  and  C_11
REMARK    8  A    between atoms: C_11  and  N_12
REMARK    9  A    between atoms: C_17  and  C_18
REMARK                            x       y       z     vdW  Elec       q    Type
REMARK                         _______ _______ _______ _____ _____    ______ ____
ROOT
ATOM      1  N   UNL     1      48.717   8.561  15.844  0.00  0.00    +0.000 N 
ATOM      2  C   UNL     1      48.242   9.428  16.789  0.00  0.00    +0.000 A 
ATOM      3  N   UNL     1      48.000   8.822  17.929  0.00  0.00    +0.000 NA
ATOM      4  C   UNL     1      48.329   7.506  17.719  0.00  0.00    +0.000 A 
ATOM      5  C   UNL     1      48.240   6.423  18.589  0.00  0.00    +0.000 A 
ATOM      6  C   UNL     1      48.635   5.202  18.064  0.00  0.00    +0.000 A 
ATOM      7  N   UNL     1      49.111   5.007  16.793  0.00  0.00    +0.000 NA
ATOM      8  C   UNL     1      49.197   6.069  15.960  0.00  0.00    +0.000 A 
ATOM      9  C   UNL     1      48.796   7.313  16.419  0.00  0.00    +0.000 A 
ENDROOT
BRANCH   6  10
ATOM     10  C   UNL     1      48.523   3.975  18.915  0.00  0.00    +0.000 C 
ATOM     11  N   UNL     1      48.647   4.175  20.264  0.00  0.00    +0.000 N 
ATOM     12  O   UNL     1      48.343   2.856  18.449  0.00  0.00    +0.000 OA
ATOM     13  H   UNL     1      48.812   5.111  20.618  0.00  0.00    +0.000 HD
ATOM     14  H   UNL     1      48.604   3.385  20.889  0.00  0.00    +0.000 HD
ENDBRANCH   6  10
BRANCH   1  15
ATOM     15  C   UNL     1      48.956   8.899  14.451  0.00  0.00    +0.000 C 
BRANCH  15  19
ATOM     16  C   UNL     1      46.020   7.061  11.866  0.00  0.00    +0.000 A 
ATOM     17  C   UNL     1      45.633   8.034  12.795  0.00  0.00    +0.000 A 
ATOM     18  C   UNL     1      46.580   8.638  13.624  0.00  0.00    +0.000 A 
ATOM     19  C   UNL     1      47.933   8.278  13.539  0.00  0.00    +0.000 A 
ATOM     20  C   UNL     1      48.319   7.314  12.597  0.00  0.00    +0.000 A 
ATOM     21  C   UNL     1      47.372   6.711  11.769  0.00  0.00    +0.000 A 
BRANCH  16  22
ATOM     22  C   UNL     1      44.988   6.344  11.038  0.00  0.00    +0.000 C 
BRANCH  22  23
ATOM     23  O   UNL     1      45.494   5.083  10.606  0.00  0.00    +0.000 OA
BRANCH  23  25
ATOM     24  C   UNL     1      43.294   4.252  11.306  0.00  0.00    +0.000 C 
ATOM     25  C   UNL     1      44.773   3.926  11.064  0.00  0.00    +0.000 C 
ATOM     26  C   UNL     1      45.417   3.324  12.320  0.00  0.00    +0.000 C 
ATOM     27  C   UNL     1      44.858   2.894   9.929  0.00  0.00    +0.000 C 
ENDBRANCH  23  25
ENDBRANCH  22  23
ENDBRANCH  16  22
ENDBRANCH  15  19
ENDBRANCH   1  15
TORSDOF 6
ENDMDL
MODEL 8
REMARK VINA RESULT:    -5.575      3.579      5.435
REMARK INTER + INTRA:          -8.391
REMARK INTER:                  -7.356
REMARK INTRA:                  -1.034
REMARK UNBOUND:                -0.860
REMARK  Name = 
REMARK  9 active torsions:
REMARK  status: ('A' for Active; 'I' for Inactive)
REMARK    1  A    between atoms: C_1  and  C_2
REMARK    2  A    between atoms: C_2  and  C_3
REMARK    3  A    between atoms: C_2  and  C_4
REMARK    4  A    between atoms: C_2  and  O_5
REMARK    5  A    between atoms: O_5  and  C_6
REMARK    6  A    between atoms: C_6  and  C_7
REMARK    7  A    between atoms: C_10  and  C_11
REMARK    8  A    between atoms: C_11  and  N_12
REMARK    9  A    between atoms: C_17  and  C_18
REMARK                            x       y       z     vdW  Elec       q    Type
REMARK                         _______ _______ _______ _____ _____    ______ ____
ROOT
ATOM      1  N   UNL     1      47.212   8.032  12.862  0.00  0.00    +0.000 N 
ATOM      2  C   UNL     1      46.356   9.028  12.479  0.00  0.00    +0.000 A 
ATOM      3  N   UNL     1      45.180   8.555  12.137  0.00  0.00    +0.000 NA
ATOM      4  C   UNL     1      45.271   7.196  12.301  0.00  0.00    +0.000 A 
ATOM      5  C   UNL     1      44.321   6.209  12.055  0.00  0.00    +0.000 A 
ATOM      6  C   UNL     1      44.732   4.909  12.303  0.00  0.00    +0.000 A 
ATOM      7  N   UNL     1      45.967   4.549  12.778  0.00  0.00    +0.000 NA
ATOM      8  C   UNL     1      46.880   5.518  13.017  0.00  0.00    +0.000 A 
ATOM      9  C   UNL     1      46.536   6.837  12.768  0.00  0.00    +0.000 A 
ENDROOT
BRANCH   6  10
ATOM     10  C   UNL     1      43.789   3.781  12.016  0.00  0.00    +0.000 C 
ATOM     11  N   UNL     1      44.155   2.561  12.519  0.00  0.00    +0.000 N 
ATOM     12  O   UNL     1      42.761   3.922  11.365  0.00  0.00    +0.000 OA
ATOM     13  H   UNL     1      45.021   2.471  13.039  0.00  0.00    +0.000 HD
ATOM     14  H   UNL     1      43.574   1.755  12.340  0.00  0.00    +0.000 HD
ENDBRANCH   6  10
BRANCH   1  15
ATOM     15  C   UNL     1      48.619   8.219  13.172  0.00  0.00    +0.000 C 
BRANCH  15  19
ATOM     16  C   UNL     1      49.345   7.797  17.412  0.00  0.00    +0.000 A 
ATOM     17  C   UNL     1      49.971   6.940  16.499  0.00  0.00    +0.000 A 
ATOM     18  C   UNL     1      49.748   7.080  15.128  0.00  0.00    +0.000 A 
ATOM     19  C   UNL     1      48.892   8.081  14.645  0.00  0.00    +0.000 A 
ATOM     20  C   UNL     1      48.278   8.947  15.562  0.00  0.00    +0.000 A 
ATOM     21  C   UNL     1      48.502   8.806  16.931  0.00  0.00    +0.000 A 
BRANCH  16  22
ATOM     22  C   UNL     1      49.512   7.588  18.893  0.00  0.00    +0.000 C 
BRANCH  22  23
ATOM     23  O   UNL     1      49.557   6.194  19.191  0.00  0.00    +0.000 OA
BRANCH  23  25
ATOM     24  C   UNL     1      47.498   5.005  18.583  0.00  0.00    +0.000 C 
ATOM     25  C   UNL     1      48.341   5.623  19.705  0.00  0.00    +0.000 C 
ATOM     26  C   UNL     1      47.529   6.653  20.501  0.00  0.00    +0.000 C 
ATOM     27  C   UNL     1      48.771   4.497  20.659  0.00  0.00    +0.000 C 
ENDBRANCH  23  25
ENDBRANCH  22  23
ENDBRANCH  16  22
ENDBRANCH  15  19
ENDBRANCH   1  15
TORSDOF 6
ENDMDL
MODEL 9
REMARK VINA RESULT:    -5.489      5.327      9.252
REMARK INTER + INTRA:          -8.275
REMARK INTER:                  -7.955
REMARK INTRA:                  -0.320
REMARK UNBOUND:                -0.860
REMARK  Name = 
REMARK  9 active torsions:
REMARK  status: ('A' for Active; 'I' for Inactive)
REMARK    1  A    between atoms: C_1  and  C_2
REMARK    2  A    between atoms: C_2  and  C_3
REMARK    3  A    between atoms: C_2  and  C_4
REMARK    4  A    between atoms: C_2  and  O_5
REMARK    5  A    between atoms: O_5  and  C_6
REMARK    6  A    between atoms: C_6  and  C_7
REMARK    7  A    between atoms: C_10  and  C_11
REMARK    8  A    between atoms: C_11  and  N_12
REMARK    9  A    between atoms: C_17  and  C_18
REMARK                            x       y       z     vdW  Elec       q    Type
REMARK                         _______ _______ _______ _____ _____    ______ ____
ROOT
ATOM      1  N   UNL     1      49.300   3.697  17.181  0.00  0.00    +0.000 N 
ATOM      2  C   UNL     1      49.017   2.530  16.525  0.00  0.00    +0.000 A 
ATOM      3  N   UNL     1      50.002   1.666  16.623  0.00  0.00    +0.000 NA
ATOM      4  C   UNL     1      50.965   2.294  17.370  0.00  0.00    +0.000 A 
ATOM      5  C   UNL     1      52.225   1.840  17.751  0.00  0.00    +0.000 A 
ATOM      6  C   UNL     1      52.981   2.732  18.496  0.00  0.00    +0.000 A 
ATOM      7  N   UNL     1      52.571   3.981  18.884  0.00  0.00    +0.000 NA
ATOM      8  C   UNL     1      51.343   4.408  18.512  0.00  0.00    +0.000 A 
ATOM      9  C   UNL     1      50.548   3.571  17.747  0.00  0.00    +0.000 A 
ENDROOT
BRANCH   6  10
ATOM     10  C   UNL     1      54.370   2.344  18.903  0.00  0.00    +0.000 C 
ATOM     11  N   UNL     1      54.514   1.941  20.204  0.00  0.00    +0.000 N 
ATOM     12  O   UNL     1      55.325   2.391  18.138  0.00  0.00    +0.000 OA
ATOM     13  H   UNL     1      53.707   1.930  20.818  0.00  0.00    +0.000 HD
ATOM     14  H   UNL     1      55.429   1.689  20.547  0.00  0.00    +0.000 HD
ENDBRANCH   6  10
BRANCH   1  15
ATOM     15  C   UNL     1      48.469   4.890  17.150  0.00  0.00    +0.000 C 
BRANCH  15  19
ATOM     16  C   UNL     1      46.716   5.591  13.262  0.00  0.00    +0.000 A 
ATOM     17  C   UNL     1      47.740   6.419  13.735  0.00  0.00    +0.000 A 
ATOM     18  C   UNL     1      48.317   6.189  14.985  0.00  0.00    +0.000 A 
ATOM     19  C   UNL     1      47.877   5.126  15.787  0.00  0.00    +0.000 A 
ATOM     20  C   UNL     1      46.861   4.289  15.304  0.00  0.00    +0.000 A 
ATOM     21  C   UNL     1      46.286   4.519  14.054  0.00  0.00    +0.000 A 
BRANCH  16  22
ATOM     22  C   UNL     1      46.031   5.893  11.956  0.00  0.00    +0.000 C 
BRANCH  22  23
ATOM     23  O   UNL     1      45.562   4.688  11.356  0.00  0.00    +0.000 OA
BRANCH  23  25
ATOM     24  C   UNL     1      43.482   5.990  11.341  0.00  0.00    +0.000 C 
ATOM     25  C   UNL     1      44.158   4.645  11.047  0.00  0.00    +0.000 C 
ATOM     26  C   UNL     1      43.455   3.501  11.789  0.00  0.00    +0.000 C 
ATOM     27  C   UNL     1      44.063   4.380   9.537  0.00  0.00    +0.000 C 
ENDBRANCH  23  25
ENDBRANCH  22  23
ENDBRANCH  16  22
ENDBRANCH  15  19
ENDBRANCH   1  15
TORSDOF 6
ENDMDL
