MODEL 1
REMARK VINA RESULT:    -7.801      0.000      0.000
REMARK INTER + INTRA:         -10.842
REMARK INTER:                 -10.081
REMARK INTRA:                  -0.760
REMARK UNBOUND:                -0.760
REMARK  Name = 
REMARK  5 active torsions:
REMARK  status: ('A' for Active; 'I' for Inactive)
REMARK    1  A    between atoms: C_2  and  C_4
REMARK    2  A    between atoms: C_7  and  O_8
REMARK    3  A    between atoms: O_8  and  C_9
REMARK    4  A    between atoms: C_9  and  C_10
REMARK    5  A    between atoms: C_15  and  N_16
REMARK                            x       y       z     vdW  Elec       q    Type
REMARK                         _______ _______ _______ _____ _____    ______ ____
ROOT
ATOM      1  C   UNL     1      43.977   4.913  11.482  0.00  0.00    +0.000 C 
ATOM      2  C   UNL     1      42.606   5.114  12.115  0.00  0.00    +0.000 C 
ATOM      3  C   UNL     1      43.017   5.954  10.952  0.00  0.00    +0.000 C 
ENDROOT
BRANCH   1   4
ATOM      4  C   UNL     1      45.213   5.322  12.269  0.00  0.00    +0.000 A 
ATOM      5  C   UNL     1      45.664   4.532  13.331  0.00  0.00    +0.000 A 
ATOM      6  C   UNL     1      46.821   4.864  14.029  0.00  0.00    +0.000 A 
ATOM      7  C   UNL     1      47.558   6.003  13.681  0.00  0.00    +0.000 A 
ATOM      8 CL   UNL     1      48.904   6.363  14.721  0.00  0.00    +0.000 Cl
ATOM      9  C   UNL     1      47.174   6.835  12.603  0.00  0.00    +0.000 A 
ATOM     10  C   UNL     1      45.986   6.460  11.933  0.00  0.00    +0.000 A 
BRANCH   9  11
ATOM     11  N   UNL     1      47.893   7.959  12.203  0.00  0.00    +0.000 N 
ATOM     12  C   UNL     1      49.149   7.869  11.442  0.00  0.00    +0.000 C 
ATOM     13  C   UNL     1      50.346   8.416  12.252  0.00  0.00    +0.000 C 
ATOM     14  N   UNL     1      50.132   9.789  12.753  0.00  0.00    +0.000 NA
ATOM     15  C   UNL     1      48.906   9.790  13.578  0.00  0.00    +0.000 C 
ATOM     16  C   UNL     1      47.646   9.265  12.848  0.00  0.00    +0.000 C 
ATOM     17  H   UNL     1      49.970  10.398  11.951  0.00  0.00    +0.000 HD
ENDBRANCH   9  11
ENDBRANCH   1   4
BRANCH   1  18
ATOM     18  O   UNL     1      44.021   3.614  10.843  0.00  0.00    +0.000 OA
BRANCH  18  22
ATOM     19  C   UNL     1      46.397   2.971   7.552  0.00  0.00    +0.000 A 
ATOM     20  C   UNL     1      45.964   1.893   8.323  0.00  0.00    +0.000 A 
ATOM     21  C   UNL     1      45.183   2.143   9.447  0.00  0.00    +0.000 A 
ATOM     22  C   UNL     1      44.858   3.459   9.757  0.00  0.00    +0.000 A 
ATOM     23  N   UNL     1      45.274   4.525   9.041  0.00  0.00    +0.000 NA
ATOM     24  C   UNL     1      46.053   4.254   7.964  0.00  0.00    +0.000 A 
BRANCH  19  26
ATOM     25  N   UNL     1      48.527   2.490   6.484  0.00  0.00    +0.000 N 
ATOM     26  C   UNL     1      47.203   2.796   6.324  0.00  0.00    +0.000 C 
ATOM     27  O   UNL     1      46.699   2.885   5.212  0.00  0.00    +0.000 OA
ATOM     28  H   UNL     1      49.040   2.269   5.638  0.00  0.00    +0.000 HD
ATOM     29  H   UNL     1      48.909   2.158   7.357  0.00  0.00    +0.000 HD
ENDBRANCH  19  26
ENDBRANCH  18  22
ENDBRANCH   1  18
TORSDOF 5
ENDMDL
MODEL 2
REMARK VINA RESULT:    -7.589      1.567      2.174
REMARK INTER + INTRA:         -10.568
REMARK INTER:                 -10.891
REMARK INTRA:                   0.323
REMARK UNBOUND:                -0.760
REMARK  Name = 
REMARK  5 active torsions:
REMARK  status: ('A' for Active; 'I' for Inactive)
REMARK    1  A    between atoms: C_2  and  C_4
REMARK    2  A    between atoms: C_7  and  O_8
REMARK    3  A    between atoms: O_8  and  C_9
REMARK    4  A    between atoms: C_9  and  C_10
REMARK    5  A    between atoms: C_15  and  N_16
REMARK                            x       y       z     vdW  Elec       q    Type
REMARK                         _______ _______ _______ _____ _____    ______ ____
ROOT
ATOM      1  C   UNL     1      44.205   4.658  11.454  0.00  0.00    +0.000 C 
ATOM      2  C   UNL     1      44.663   3.383  12.152  0.00  0.00    +0.000 C 
ATOM      3  C   UNL     1      43.405   4.056  12.587  0.00  0.00    +0.000 C 
ENDROOT
BRANCH   1   4
ATOM      4  C   UNL     1      45.008   5.933  11.660  0.00  0.00    +0.000 A 
ATOM      5  C   UNL     1      44.397   7.181  11.508  0.00  0.00    +0.000 A 
ATOM      6  C   UNL     1      45.104   8.357  11.741  0.00  0.00    +0.000 A 
ATOM      7  C   UNL     1      46.448   8.313  12.132  0.00  0.00    +0.000 A 
ATOM      8 CL   UNL     1      47.235   9.857  12.261  0.00  0.00    +0.000 Cl
ATOM      9  C   UNL     1      47.123   7.085  12.327  0.00  0.00    +0.000 A 
ATOM     10  C   UNL     1      46.365   5.920  12.067  0.00  0.00    +0.000 A 
BRANCH   9  11
ATOM     11  N   UNL     1      48.449   6.993  12.745  0.00  0.00    +0.000 N 
ATOM     12  C   UNL     1      48.842   7.046  14.162  0.00  0.00    +0.000 C 
ATOM     13  C   UNL     1      49.700   8.295  14.468  0.00  0.00    +0.000 C 
ATOM     14  N   UNL     1      50.881   8.419  13.590  0.00  0.00    +0.000 NA
ATOM     15  C   UNL     1      50.411   8.445  12.190  0.00  0.00    +0.000 C 
ATOM     16  C   UNL     1      49.547   7.227  11.785  0.00  0.00    +0.000 C 
ATOM     17  H   UNL     1      51.456   7.584  13.711  0.00  0.00    +0.000 HD
ENDBRANCH   9  11
ENDBRANCH   1   4
BRANCH   1  18
ATOM     18  O   UNL     1      43.830   4.345  10.090  0.00  0.00    +0.000 OA
BRANCH  18  22
ATOM     19  C   UNL     1      46.608   2.712   7.540  0.00  0.00    +0.000 A 
ATOM     20  C   UNL     1      45.855   1.887   8.375  0.00  0.00    +0.000 A 
ATOM     21  C   UNL     1      44.941   2.471   9.247  0.00  0.00    +0.000 A 
ATOM     22  C   UNL     1      44.808   3.854   9.250  0.00  0.00    +0.000 A 
ATOM     23  N   UNL     1      45.532   4.681   8.467  0.00  0.00    +0.000 NA
ATOM     24  C   UNL     1      46.432   4.088   7.643  0.00  0.00    +0.000 A 
BRANCH  19  26
ATOM     25  N   UNL     1      47.888   2.970   5.490  0.00  0.00    +0.000 N 
ATOM     26  C   UNL     1      47.578   2.177   6.560  0.00  0.00    +0.000 C 
ATOM     27  O   UNL     1      48.109   1.086   6.720  0.00  0.00    +0.000 OA
ATOM     28  H   UNL     1      48.631   2.636   4.887  0.00  0.00    +0.000 HD
ATOM     29  H   UNL     1      47.678   3.957   5.463  0.00  0.00    +0.000 HD
ENDBRANCH  19  26
ENDBRANCH  18  22
ENDBRANCH   1  18
TORSDOF 5
ENDMDL
MODEL 3
REMARK VINA RESULT:    -7.269      2.150      3.329
REMARK INTER + INTRA:         -10.154
REMARK INTER:                 -11.054
REMARK INTRA:                   0.900
REMARK UNBOUND:                -0.760
REMARK  Name = 
REMARK  5 active torsions:
REMARK  status: ('A' for Active; 'I' for Inactive)
REMARK    1  A    between atoms: C_2  and  C_4
REMARK    2  A    between atoms: C_7  and  O_8
REMARK    3  A    between atoms: O_8  and  C_9
REMARK    4  A    between atoms: C_9  and  C_10
REMARK    5  A    between atoms: C_15  and  N_16
REMARK                            x       y       z     vdW  Elec       q    Type
REMARK                         _______ _______ _______ _____ _____    ______ ____
ROOT
ATOM      1  C   UNL     1      44.117   4.586  11.686  0.00  0.00    +0.000 C 
ATOM      2  C   UNL     1      43.706   3.247  12.287  0.00  0.00    +0.000 C 
ATOM      3  C   UNL     1      42.966   4.487  12.661  0.00  0.00    +0.000 C 
ENDROOT
BRANCH   1   4
ATOM      4  C   UNL     1      45.443   5.200  12.108  0.00  0.00    +0.000 A 
ATOM      5  C   UNL     1      46.003   6.244  11.364  0.00  0.00    +0.000 A 
ATOM      6  C   UNL     1      47.190   6.850  11.764  0.00  0.00    +0.000 A 
ATOM      7  C   UNL     1      47.851   6.424  12.922  0.00  0.00    +0.000 A 
ATOM      8 CL   UNL     1      49.385   7.184  13.224  0.00  0.00    +0.000 Cl
ATOM      9  C   UNL     1      47.331   5.389  13.735  0.00  0.00    +0.000 A 
ATOM     10  C   UNL     1      46.129   4.798  13.280  0.00  0.00    +0.000 A 
BRANCH   9  11
ATOM     11  N   UNL     1      47.938   4.954  14.911  0.00  0.00    +0.000 N 
ATOM     12  C   UNL     1      47.647   3.646  15.519  0.00  0.00    +0.000 C 
ATOM     13  C   UNL     1      46.975   3.800  16.902  0.00  0.00    +0.000 C 
ATOM     14  N   UNL     1      47.744   4.653  17.832  0.00  0.00    +0.000 NA
ATOM     15  C   UNL     1      47.926   5.974  17.196  0.00  0.00    +0.000 C 
ATOM     16  C   UNL     1      48.602   5.924  15.805  0.00  0.00    +0.000 C 
ATOM     17  H   UNL     1      48.666   4.236  17.956  0.00  0.00    +0.000 HD
ENDBRANCH   9  11
ENDBRANCH   1   4
BRANCH   1  18
ATOM     18  O   UNL     1      43.832   4.578  10.266  0.00  0.00    +0.000 OA
BRANCH  18  22
ATOM     19  C   UNL     1      46.415   2.485   7.850  0.00  0.00    +0.000 A 
ATOM     20  C   UNL     1      46.283   3.866   7.702  0.00  0.00    +0.000 A 
ATOM     21  C   UNL     1      45.381   4.544   8.516  0.00  0.00    +0.000 A 
ATOM     22  C   UNL     1      44.648   3.821   9.451  0.00  0.00    +0.000 A 
ATOM     23  N   UNL     1      44.741   2.484   9.608  0.00  0.00    +0.000 NA
ATOM     24  C   UNL     1      45.611   1.844   8.786  0.00  0.00    +0.000 A 
BRANCH  19  26
ATOM     25  N   UNL     1      48.412   2.362   6.470  0.00  0.00    +0.000 N 
ATOM     26  C   UNL     1      47.372   1.690   7.050  0.00  0.00    +0.000 C 
ATOM     27  O   UNL     1      47.257   0.476   6.942  0.00  0.00    +0.000 OA
ATOM     28  H   UNL     1      49.115   1.790   6.016  0.00  0.00    +0.000 HD
ATOM     29  H   UNL     1      48.681   3.295   6.746  0.00  0.00    +0.000 HD
ENDBRANCH  19  26
ENDBRANCH  18  22
ENDBRANCH   1  18
TORSDOF 5
ENDMDL
MODEL 4
REMARK VINA RESULT:    -6.707      5.471      8.398
REMARK INTER + INTRA:          -9.427
REMARK INTER:                  -9.183
REMARK INTRA:                  -0.244
REMARK UNBOUND:                -0.760
REMARK  Name = 
REMARK  5 active torsions:
REMARK  status: ('A' for Active; 'I' for Inactive)
REMARK    1  A    between atoms: C_2  and  C_4
REMARK    2  A    between atoms: C_7  and  O_8
REMARK    3  A    between atoms: O_8  and  C_9
REMARK    4  A    between atoms: C_9  and  C_10
REMARK    5  A    between atoms: C_15  and  N_16
REMARK                            x       y       z     vdW  Elec       q    Type
REMARK                         _______ _______ _______ _____ _____    ______ ____
ROOT
ATOM      1  C   UNL     1      48.074   4.608  16.897  0.00  0.00    +0.000 C 
ATOM      2  C   UNL     1      47.177   4.896  18.095  0.00  0.00    +0.000 C 
ATOM      3  C   UNL     1      47.345   3.494  17.614  0.00  0.00    +0.000 C 
ENDROOT
BRANCH   1   4
ATOM      4  C   UNL     1      47.625   5.071  15.520  0.00  0.00    +0.000 A 
ATOM      5  C   UNL     1      48.340   6.064  14.844  0.00  0.00    +0.000 A 
ATOM      6  C   UNL     1      47.973   6.464  13.563  0.00  0.00    +0.000 A 
ATOM      7  C   UNL     1      46.873   5.879  12.923  0.00  0.00    +0.000 A 
ATOM      8 CL   UNL     1      46.456   6.568  11.383  0.00  0.00    +0.000 Cl
ATOM      9  C   UNL     1      46.118   4.852  13.538  0.00  0.00    +0.000 A 
ATOM     10  C   UNL     1      46.525   4.489  14.843  0.00  0.00    +0.000 A 
BRANCH   9  11
ATOM     11  N   UNL     1      45.037   4.221  12.927  0.00  0.00    +0.000 N 
ATOM     12  C   UNL     1      45.200   3.175  11.905  0.00  0.00    +0.000 C 
ATOM     13  C   UNL     1      44.646   3.627  10.535  0.00  0.00    +0.000 C 
ATOM     14  N   UNL     1      43.243   4.086  10.598  0.00  0.00    +0.000 NA
ATOM     15  C   UNL     1      43.165   5.190  11.577  0.00  0.00    +0.000 C 
ATOM     16  C   UNL     1      43.692   4.830  12.986  0.00  0.00    +0.000 C 
ATOM     17  H   UNL     1      42.672   3.316  10.949  0.00  0.00    +0.000 HD
ENDBRANCH   9  11
ENDBRANCH   1   4
BRANCH   1  18
ATOM     18  O   UNL     1      49.450   4.886  17.254  0.00  0.00    +0.000 OA
BRANCH  18  22
ATOM     19  C   UNL     1      52.118   1.784  17.641  0.00  0.00    +0.000 A 
ATOM     20  C   UNL     1      52.448   3.054  18.115  0.00  0.00    +0.000 A 
ATOM     21  C   UNL     1      51.535   4.090  17.946  0.00  0.00    +0.000 A 
ATOM     22  C   UNL     1      50.326   3.822  17.315  0.00  0.00    +0.000 A 
ATOM     23  N   UNL     1      49.983   2.609  16.832  0.00  0.00    +0.000 NA
ATOM     24  C   UNL     1      50.900   1.622  16.989  0.00  0.00    +0.000 A 
BRANCH  19  26
ATOM     25  N   UNL     1      52.508  -0.469  18.467  0.00  0.00    +0.000 N 
ATOM     26  C   UNL     1      53.013   0.618  17.807  0.00  0.00    +0.000 C 
ATOM     27  O   UNL     1      54.144   0.612  17.340  0.00  0.00    +0.000 OA
ATOM     28  H   UNL     1      53.094  -1.295  18.479  0.00  0.00    +0.000 HD
ATOM     29  H   UNL     1      51.521  -0.598  18.630  0.00  0.00    +0.000 HD
ENDBRANCH  19  26
ENDBRANCH  18  22
ENDBRANCH   1  18
TORSDOF 5
ENDMDL
MODEL 5
REMARK VINA RESULT:    -6.606      3.674      5.852
REMARK INTER + INTRA:          -9.298
REMARK INTER:                  -8.486
REMARK INTRA:                  -0.812
REMARK UNBOUND:                -0.760
REMARK  Name = 
REMARK  5 active torsions:
REMARK  status: ('A' for Active; 'I' for Inactive)
REMARK    1  A    between atoms: C_2  and  C_4
REMARK    2  A    between atoms: C_7  and  O_8
REMARK    3  A    between atoms: O_8  and  C_9
REMARK    4  A    between atoms: C_9  and  C_10
REMARK    5  A    between atoms: C_15  and  N_16
REMARK                            x       y       z     vdW  Elec       q    Type
REMARK                         _______ _______ _______ _____ _____    ______ ____
ROOT
ATOM      1  C   UNL     1      48.104   7.499  13.446  0.00  0.00    +0.000 C 
ATOM      2  C   UNL     1      49.021   8.252  12.489  0.00  0.00    +0.000 C 
ATOM      3  C   UNL     1      49.062   6.761  12.539  0.00  0.00    +0.000 C 
ENDROOT
BRANCH   1   4
ATOM      4  C   UNL     1      48.368   7.600  14.941  0.00  0.00    +0.000 A 
ATOM      5  C   UNL     1      48.260   8.832  15.593  0.00  0.00    +0.000 A 
ATOM      6  C   UNL     1      48.449   8.933  16.968  0.00  0.00    +0.000 A 
ATOM      7  C   UNL     1      48.754   7.797  17.729  0.00  0.00    +0.000 A 
ATOM      8 CL   UNL     1      49.089   8.096  19.408  0.00  0.00    +0.000 Cl
ATOM      9  C   UNL     1      48.856   6.515  17.139  0.00  0.00    +0.000 A 
ATOM     10  C   UNL     1      48.666   6.467  15.738  0.00  0.00    +0.000 A 
BRANCH   9  11
ATOM     11  N   UNL     1      49.127   5.355  17.861  0.00  0.00    +0.000 N 
ATOM     12  C   UNL     1      50.486   4.981  18.284  0.00  0.00    +0.000 C 
ATOM     13  C   UNL     1      50.954   3.675  17.604  0.00  0.00    +0.000 C 
ATOM     14  N   UNL     1      50.016   2.550  17.795  0.00  0.00    +0.000 NA
ATOM     15  C   UNL     1      48.696   2.960  17.273  0.00  0.00    +0.000 C 
ATOM     16  C   UNL     1      48.138   4.259  17.902  0.00  0.00    +0.000 C 
ATOM     17  H   UNL     1      49.919   2.385  18.797  0.00  0.00    +0.000 HD
ENDBRANCH   9  11
ENDBRANCH   1   4
BRANCH   1  18
ATOM     18  O   UNL     1      46.730   7.668  13.021  0.00  0.00    +0.000 OA
BRANCH  18  22
ATOM     19  C   UNL     1      44.828   4.357  11.499  0.00  0.00    +0.000 A 
ATOM     20  C   UNL     1      45.078   5.459  10.681  0.00  0.00    +0.000 A 
ATOM     21  C   UNL     1      45.700   6.575  11.231  0.00  0.00    +0.000 A 
ATOM     22  C   UNL     1      46.053   6.551  12.575  0.00  0.00    +0.000 A 
ATOM     23  N   UNL     1      45.811   5.509  13.397  0.00  0.00    +0.000 NA
ATOM     24  C   UNL     1      45.183   4.442  12.841  0.00  0.00    +0.000 A 
BRANCH  19  26
ATOM     25  N   UNL     1      44.919   2.377  10.093  0.00  0.00    +0.000 N 
ATOM     26  C   UNL     1      44.202   3.117  10.992  0.00  0.00    +0.000 C 
ATOM     27  O   UNL     1      43.104   2.750  11.388  0.00  0.00    +0.000 OA
ATOM     28  H   UNL     1      44.524   1.480   9.837  0.00  0.00    +0.000 HD
ATOM     29  H   UNL     1      45.910   2.506   9.947  0.00  0.00    +0.000 HD
ENDBRANCH  19  26
ENDBRANCH  18  22
ENDBRANCH   1  18
TORSDOF 5
ENDMDL
MODEL 6
REMARK VINA RESULT:    -6.451      3.345      5.556
REMARK INTER + INTRA:          -9.098
REMARK INTER:                  -8.561
REMARK INTRA:                  -0.536
REMARK UNBOUND:                -0.760
REMARK  Name = 
REMARK  5 active torsions:
REMARK  status: ('A' for Active; 'I' for Inactive)
REMARK    1  A    between atoms: C_2  and  C_4
REMARK    2  A    between atoms: C_7  and  O_8
REMARK    3  A    between atoms: O_8  and  C_9
REMARK    4  A    between atoms: C_9  and  C_10
REMARK    5  A    between atoms: C_15  and  N_16
REMARK                            x       y       z     vdW  Elec       q    Type
REMARK                         _______ _______ _______ _____ _____    ______ ____
ROOT
ATOM      1  C   UNL     1      48.125   7.723  12.827  0.00  0.00    +0.000 C 
ATOM      2  C   UNL     1      48.265   9.013  12.027  0.00  0.00    +0.000 C 
ATOM      3  C   UNL     1      48.591   7.704  11.389  0.00  0.00    +0.000 C 
ENDROOT
BRANCH   1   4
ATOM      4  C   UNL     1      49.100   7.459  13.964  0.00  0.00    +0.000 A 
ATOM      5  C   UNL     1      50.409   7.946  13.896  0.00  0.00    +0.000 A 
ATOM      6  C   UNL     1      51.298   7.756  14.949  0.00  0.00    +0.000 A 
ATOM      7  C   UNL     1      50.899   7.069  16.102  0.00  0.00    +0.000 A 
ATOM      8 CL   UNL     1      52.151   6.797  17.276  0.00  0.00    +0.000 Cl
ATOM      9  C   UNL     1      49.583   6.570  16.249  0.00  0.00    +0.000 A 
ATOM     10  C   UNL     1      48.721   6.779  15.148  0.00  0.00    +0.000 A 
BRANCH   9  11
ATOM     11  N   UNL     1      49.134   5.908  17.390  0.00  0.00    +0.000 N 
ATOM     12  C   UNL     1      48.607   4.535  17.357  0.00  0.00    +0.000 C 
ATOM     13  C   UNL     1      47.114   4.489  17.752  0.00  0.00    +0.000 C 
ATOM     14  N   UNL     1      46.836   5.128  19.054  0.00  0.00    +0.000 NA
ATOM     15  C   UNL     1      47.310   6.526  18.990  0.00  0.00    +0.000 C 
ATOM     16  C   UNL     1      48.803   6.674  18.609  0.00  0.00    +0.000 C 
ATOM     17  H   UNL     1      47.381   4.644  19.768  0.00  0.00    +0.000 HD
ENDBRANCH   9  11
ENDBRANCH   1   4
BRANCH   1  18
ATOM     18  O   UNL     1      46.724   7.488  13.111  0.00  0.00    +0.000 OA
BRANCH  18  22
ATOM     19  C   UNL     1      44.875   4.166  11.550  0.00  0.00    +0.000 A 
ATOM     20  C   UNL     1      45.635   4.061  12.715  0.00  0.00    +0.000 A 
ATOM     21  C   UNL     1      46.271   5.198  13.205  0.00  0.00    +0.000 A 
ATOM     22  C   UNL     1      46.122   6.397  12.518  0.00  0.00    +0.000 A 
ATOM     23  N   UNL     1      45.408   6.529  11.381  0.00  0.00    +0.000 NA
ATOM     24  C   UNL     1      44.817   5.401  10.913  0.00  0.00    +0.000 A 
BRANCH  19  26
ATOM     25  N   UNL     1      44.765   2.303   9.993  0.00  0.00    +0.000 N 
ATOM     26  C   UNL     1      44.139   3.019  10.977  0.00  0.00    +0.000 C 
ATOM     27  O   UNL     1      43.032   2.701  11.391  0.00  0.00    +0.000 OA
ATOM     28  H   UNL     1      44.294   1.460   9.686  0.00  0.00    +0.000 HD
ATOM     29  H   UNL     1      45.756   2.372   9.814  0.00  0.00    +0.000 HD
ENDBRANCH  19  26
ENDBRANCH  18  22
ENDBRANCH   1  18
TORSDOF 5
ENDMDL
MODEL 7
REMARK VINA RESULT:    -6.437      3.718      7.815
REMARK INTER + INTRA:          -9.079
REMARK INTER:                  -8.275
REMARK INTRA:                  -0.804
REMARK UNBOUND:                -0.760
REMARK  Name = 
REMARK  5 active torsions:
REMARK  status: ('A' for Active; 'I' for Inactive)
REMARK    1  A    between atoms: C_2  and  C_4
REMARK    2  A    between atoms: C_7  and  O_8
REMARK    3  A    between atoms: O_8  and  C_9
REMARK    4  A    between atoms: C_9  and  C_10
REMARK    5  A    between atoms: C_15  and  N_16
REMARK                            x       y       z     vdW  Elec       q    Type
REMARK                         _______ _______ _______ _____ _____    ______ ____
ROOT
ATOM      1  C   UNL     1      48.344   7.168  12.701  0.00  0.00    +0.000 C 
ATOM      2  C   UNL     1      49.461   7.593  11.755  0.00  0.00    +0.000 C 
ATOM      3  C   UNL     1      49.248   8.333  13.033  0.00  0.00    +0.000 C 
ENDROOT
BRANCH   1   4
ATOM      4  C   UNL     1      46.901   7.398  12.278  0.00  0.00    +0.000 A 
ATOM      5  C   UNL     1      46.393   8.697  12.190  0.00  0.00    +0.000 A 
ATOM      6  C   UNL     1      45.091   8.928  11.756  0.00  0.00    +0.000 A 
ATOM      7  C   UNL     1      44.260   7.859  11.400  0.00  0.00    +0.000 A 
ATOM      8 CL   UNL     1      42.623   8.289  11.002  0.00  0.00    +0.000 Cl
ATOM      9  C   UNL     1      44.715   6.520  11.442  0.00  0.00    +0.000 A 
ATOM     10  C   UNL     1      46.041   6.337  11.899  0.00  0.00    +0.000 A 
BRANCH   9  11
ATOM     11  N   UNL     1      43.934   5.428  11.068  0.00  0.00    +0.000 N 
ATOM     12  C   UNL     1      42.982   4.781  11.984  0.00  0.00    +0.000 C 
ATOM     13  C   UNL     1      43.394   3.325  12.296  0.00  0.00    +0.000 C 
ATOM     14  N   UNL     1      43.598   2.505  11.084  0.00  0.00    +0.000 NA
ATOM     15  C   UNL     1      44.625   3.165  10.251  0.00  0.00    +0.000 C 
ATOM     16  C   UNL     1      44.297   4.630   9.879  0.00  0.00    +0.000 C 
ATOM     17  H   UNL     1      42.725   2.496  10.556  0.00  0.00    +0.000 HD
ENDBRANCH   9  11
ENDBRANCH   1   4
BRANCH   1  18
ATOM     18  O   UNL     1      48.655   5.864  13.250  0.00  0.00    +0.000 OA
BRANCH  18  22
ATOM     19  C   UNL     1      48.018   5.073  17.233  0.00  0.00    +0.000 A 
ATOM     20  C   UNL     1      47.216   4.471  16.263  0.00  0.00    +0.000 A 
ATOM     21  C   UNL     1      47.438   4.779  14.924  0.00  0.00    +0.000 A 
ATOM     22  C   UNL     1      48.454   5.671  14.602  0.00  0.00    +0.000 A 
ATOM     23  N   UNL     1      49.237   6.282  15.515  0.00  0.00    +0.000 NA
ATOM     24  C   UNL     1      48.984   5.982  16.814  0.00  0.00    +0.000 A 
BRANCH  19  26
ATOM     25  N   UNL     1      48.398   3.601  19.129  0.00  0.00    +0.000 N 
ATOM     26  C   UNL     1      47.874   4.780  18.675  0.00  0.00    +0.000 C 
ATOM     27  O   UNL     1      47.342   5.576  19.437  0.00  0.00    +0.000 OA
ATOM     28  H   UNL     1      48.386   3.464  20.133  0.00  0.00    +0.000 HD
ATOM     29  H   UNL     1      49.058   3.055  18.595  0.00  0.00    +0.000 HD
ENDBRANCH  19  26
ENDBRANCH  18  22
ENDBRANCH   1  18
TORSDOF 5
ENDMDL
MODEL 8
REMARK VINA RESULT:    -6.218      2.181      2.877
REMARK INTER + INTRA:          -8.796
REMARK INTER:                  -9.785
REMARK INTRA:                   0.988
REMARK UNBOUND:                -0.760
REMARK  Name = 
REMARK  5 active torsions:
REMARK  status: ('A' for Active; 'I' for Inactive)
REMARK    1  A    between atoms: C_2  and  C_4
REMARK    2  A    between atoms: C_7  and  O_8
REMARK    3  A    between atoms: O_8  and  C_9
REMARK    4  A    between atoms: C_9  and  C_10
REMARK    5  A    between atoms: C_15  and  N_16
REMARK                            x       y       z     vdW  Elec       q    Type
REMARK                         _______ _______ _______ _____ _____    ______ ____
ROOT
ATOM      1  C   UNL     1      43.948   4.305  11.731  0.00  0.00    +0.000 C 
ATOM      2  C   UNL     1      44.127   2.959  12.423  0.00  0.00    +0.000 C 
ATOM      3  C   UNL     1      43.022   3.870  12.843  0.00  0.00    +0.000 C 
ENDROOT
BRANCH   1   4
ATOM      4  C   UNL     1      44.989   5.390  11.964  0.00  0.00    +0.000 A 
ATOM      5  C   UNL     1      46.321   5.045  12.213  0.00  0.00    +0.000 A 
ATOM      6  C   UNL     1      47.295   6.025  12.378  0.00  0.00    +0.000 A 
ATOM      7  C   UNL     1      46.958   7.382  12.301  0.00  0.00    +0.000 A 
ATOM      8 CL   UNL     1      48.250   8.490  12.656  0.00  0.00    +0.000 Cl
ATOM      9  C   UNL     1      45.635   7.804  12.029  0.00  0.00    +0.000 A 
ATOM     10  C   UNL     1      44.681   6.770  11.880  0.00  0.00    +0.000 A 
BRANCH   9  11
ATOM     11  N   UNL     1      45.261   9.141  11.913  0.00  0.00    +0.000 N 
ATOM     12  C   UNL     1      43.970   9.559  11.343  0.00  0.00    +0.000 C 
ATOM     13  C   UNL     1      44.159  10.359  10.035  0.00  0.00    +0.000 C 
ATOM     14  N   UNL     1      45.067  11.515  10.185  0.00  0.00    +0.000 NA
ATOM     15  C   UNL     1      46.367  11.015  10.678  0.00  0.00    +0.000 C 
ATOM     16  C   UNL     1      46.281  10.205  11.993  0.00  0.00    +0.000 C 
ATOM     17  H   UNL     1      44.678  12.133  10.898  0.00  0.00    +0.000 HD
ENDBRANCH   9  11
ENDBRANCH   1   4
BRANCH   1  18
ATOM     18  O   UNL     1      43.543   4.086  10.358  0.00  0.00    +0.000 OA
BRANCH  18  22
ATOM     19  C   UNL     1      46.382   2.460   7.869  0.00  0.00    +0.000 A 
ATOM     20  C   UNL     1      46.172   3.840   7.885  0.00  0.00    +0.000 A 
ATOM     21  C   UNL     1      45.186   4.358   8.719  0.00  0.00    +0.000 A 
ATOM     22  C   UNL     1      44.449   3.484   9.508  0.00  0.00    +0.000 A 
ATOM     23  N   UNL     1      44.615   2.144   9.505  0.00  0.00    +0.000 NA
ATOM     24  C   UNL     1      45.567   1.663   8.666  0.00  0.00    +0.000 A 
BRANCH  19  26
ATOM     25  N   UNL     1      48.401   2.642   6.528  0.00  0.00    +0.000 N 
ATOM     26  C   UNL     1      47.429   1.827   7.040  0.00  0.00    +0.000 C 
ATOM     27  O   UNL     1      47.446   0.618   6.848  0.00  0.00    +0.000 OA
ATOM     28  H   UNL     1      49.167   2.180   6.053  0.00  0.00    +0.000 HD
ATOM     29  H   UNL     1      48.565   3.577   6.872  0.00  0.00    +0.000 HD
ENDBRANCH  19  26
ENDBRANCH  18  22
ENDBRANCH   1  18
TORSDOF 5
ENDMDL
MODEL 9
REMARK VINA RESULT:    -5.619      5.434      8.910
REMARK INTER + INTRA:          -8.022
REMARK INTER:                  -7.657
REMARK INTRA:                  -0.366
REMARK UNBOUND:                -0.760
REMARK  Name = 
REMARK  5 active torsions:
REMARK  status: ('A' for Active; 'I' for Inactive)
REMARK    1  A    between atoms: C_2  and  C_4
REMARK    2  A    between atoms: C_7  and  O_8
REMARK    3  A    between atoms: O_8  and  C_9
REMARK    4  A    between atoms: C_9  and  C_10
REMARK    5  A    between atoms: C_15  and  N_16
REMARK                            x       y       z     vdW  Elec       q    Type
REMARK                         _______ _______ _______ _____ _____    ______ ____
ROOT
ATOM      1  C   UNL     1      48.036   4.362  16.679  0.00  0.00    +0.000 C 
ATOM      2  C   UNL     1      47.142   3.377  17.423  0.00  0.00    +0.000 C 
ATOM      3  C   UNL     1      48.392   2.895  16.767  0.00  0.00    +0.000 C 
ENDROOT
BRANCH   1   4
ATOM      4  C   UNL     1      47.533   4.964  15.376  0.00  0.00    +0.000 A 
ATOM      5  C   UNL     1      48.216   6.033  14.786  0.00  0.00    +0.000 A 
ATOM      6  C   UNL     1      47.799   6.562  13.569  0.00  0.00    +0.000 A 
ATOM      7  C   UNL     1      46.683   6.035  12.908  0.00  0.00    +0.000 A 
ATOM      8 CL   UNL     1      46.204   6.879  11.466  0.00  0.00    +0.000 Cl
ATOM      9  C   UNL     1      45.959   4.938  13.435  0.00  0.00    +0.000 A 
ATOM     10  C   UNL     1      46.416   4.443  14.678  0.00  0.00    +0.000 A 
BRANCH   9  11
ATOM     11  N   UNL     1      44.863   4.362  12.797  0.00  0.00    +0.000 N 
ATOM     12  C   UNL     1      45.000   3.422  11.674  0.00  0.00    +0.000 C 
ATOM     13  C   UNL     1      44.402   4.001  10.372  0.00  0.00    +0.000 C 
ATOM     14  N   UNL     1      43.000   4.442  10.521  0.00  0.00    +0.000 NA
ATOM     15  C   UNL     1      42.947   5.445  11.604  0.00  0.00    +0.000 C 
ATOM     16  C   UNL     1      43.518   4.953  12.956  0.00  0.00    +0.000 C 
ATOM     17  H   UNL     1      42.443   3.638  10.811  0.00  0.00    +0.000 HD
ENDBRANCH   9  11
ENDBRANCH   1   4
BRANCH   1  18
ATOM     18  O   UNL     1      48.625   5.282  17.629  0.00  0.00    +0.000 OA
BRANCH  18  22
ATOM     19  C   UNL     1      52.502   4.572  18.794  0.00  0.00    +0.000 A 
ATOM     20  C   UNL     1      51.484   4.625  19.747  0.00  0.00    +0.000 A 
ATOM     21  C   UNL     1      50.185   4.894  19.325  0.00  0.00    +0.000 A 
ATOM     22  C   UNL     1      49.949   5.095  17.970  0.00  0.00    +0.000 A 
ATOM     23  N   UNL     1      50.913   5.066  17.026  0.00  0.00    +0.000 NA
ATOM     24  C   UNL     1      52.174   4.825  17.467  0.00  0.00    +0.000 A 
BRANCH  19  26
ATOM     25  N   UNL     1      54.118   3.573  20.310  0.00  0.00    +0.000 N 
ATOM     26  C   UNL     1      53.904   4.262  19.148  0.00  0.00    +0.000 C 
ATOM     27  O   UNL     1      54.831   4.576  18.413  0.00  0.00    +0.000 OA
ATOM     28  H   UNL     1      55.070   3.275  20.485  0.00  0.00    +0.000 HD
ATOM     29  H   UNL     1      53.382   3.080  20.796  0.00  0.00    +0.000 HD
ENDBRANCH  19  26
ENDBRANCH  18  22
ENDBRANCH   1  18
TORSDOF 5
ENDMDL
