MODEL 1
REMARK VINA RESULT:    -5.763      0.000      0.000
REMARK INTER + INTRA:          -7.941
REMARK INTER:                  -7.447
REMARK INTRA:                  -0.493
REMARK UNBOUND:                -0.493
REMARK  Name = 
REMARK  8 active torsions:
REMARK  status: ('A' for Active; 'I' for Inactive)
REMARK    1  A    between atoms: C_1  and  C_2
REMARK    2  A    between atoms: C_2  and  C_3
REMARK    3  A    between atoms: C_2  and  C_4
REMARK    4  A    between atoms: C_2  and  O_5
REMARK    5  A    between atoms: O_5  and  C_6
REMARK    6  A    between atoms: C_11  and  N_12
REMARK    7  A    between atoms: N_12  and  C_13
REMARK    8  A    between atoms: C_13  and  C_14
REMARK                            x       y       z     vdW  Elec       q    Type
REMARK                         _______ _______ _______ _____ _____    ______ ____
ROOT
ATOM      1  C   UNL     1      48.919   6.639  15.203  0.00  0.00    +0.000 C 
ATOM      2  O   UNL     1      49.376   5.996  16.138  0.00  0.00    +0.000 OA
ATOM      3  N   UNL     1      47.738   6.300  14.575  0.00  0.00    +0.000 N 
ATOM      4  C   UNL     1      47.109   5.030  14.917  0.00  0.00    +0.000 C 
ATOM      5  C   UNL     1      47.102   4.115  13.694  0.00  0.00    +0.000 C 
ATOM      6  C   UNL     1      46.414   4.790  12.489  0.00  0.00    +0.000 C 
ATOM      7  C   UNL     1      47.134   6.124  12.208  0.00  0.00    +0.000 C 
ATOM      8  C   UNL     1      47.171   7.021  13.443  0.00  0.00    +0.000 C 
ENDROOT
BRANCH   6   9
ATOM      9  N   UNL     1      44.974   4.929  12.784  0.00  0.00    +0.000 NA
ATOM     10  H   UNL     1      44.813   5.728  13.391  0.00  0.00    +0.000 HD
BRANCH   9  11
ATOM     11  C   UNL     1      44.089   5.019  11.595  0.00  0.00    +0.000 C 
ATOM     12  C   UNL     1      43.337   6.311  11.327  0.00  0.00    +0.000 C 
ATOM     13  C   UNL     1      42.596   5.141  11.884  0.00  0.00    +0.000 C 
BRANCH  11  14
ATOM     14  C   UNL     1      44.501   4.173  10.386  0.00  0.00    +0.000 A 
ATOM     15  C   UNL     1      45.157   4.757   9.299  0.00  0.00    +0.000 A 
ATOM     16  C   UNL     1      45.574   3.964   8.234  0.00  0.00    +0.000 A 
ATOM     17  C   UNL     1      45.310   2.603   8.262  0.00  0.00    +0.000 A 
ATOM     18  C   UNL     1      44.634   2.093   9.355  0.00  0.00    +0.000 A 
ATOM     19  N   UNL     1      44.232   2.839  10.406  0.00  0.00    +0.000 NA
ENDBRANCH  11  14
ENDBRANCH   9  11
ENDBRANCH   6   9
BRANCH   1  20
ATOM     20  O   UNL     1      49.520   7.732  14.657  0.00  0.00    +0.000 OA
BRANCH  20  22
ATOM     21  C   UNL     1      50.892   9.039  16.228  0.00  0.00    +0.000 C 
ATOM     22  C   UNL     1      49.580   8.952  15.437  0.00  0.00    +0.000 C 
ATOM     23  C   UNL     1      48.335   9.090  16.323  0.00  0.00    +0.000 C 
ATOM     24  C   UNL     1      49.572  10.107  14.420  0.00  0.00    +0.000 C 
ENDBRANCH  20  22
ENDBRANCH   1  20
TORSDOF 5
ENDMDL
MODEL 2
REMARK VINA RESULT:    -5.595      1.751      2.609
REMARK INTER + INTRA:          -7.723
REMARK INTER:                  -8.060
REMARK INTRA:                   0.337
REMARK UNBOUND:                -0.493
REMARK  Name = 
REMARK  8 active torsions:
REMARK  status: ('A' for Active; 'I' for Inactive)
REMARK    1  A    between atoms: C_1  and  C_2
REMARK    2  A    between atoms: C_2  and  C_3
REMARK    3  A    between atoms: C_2  and  C_4
REMARK    4  A    between atoms: C_2  and  O_5
REMARK    5  A    between atoms: O_5  and  C_6
REMARK    6  A    between atoms: C_11  and  N_12
REMARK    7  A    between atoms: N_12  and  C_13
REMARK    8  A    between atoms: C_13  and  C_14
REMARK                            x       y       z     vdW  Elec       q    Type
REMARK                         _______ _______ _______ _____ _____    ______ ____
ROOT
ATOM      1  C   UNL     1      47.634   8.069  12.608  0.00  0.00    +0.000 C 
ATOM      2  O   UNL     1      47.271   8.967  11.862  0.00  0.00    +0.000 OA
ATOM      3  N   UNL     1      47.200   6.767  12.471  0.00  0.00    +0.000 N 
ATOM      4  C   UNL     1      46.133   6.487  11.518  0.00  0.00    +0.000 C 
ATOM      5  C   UNL     1      44.897   5.986  12.265  0.00  0.00    +0.000 C 
ATOM      6  C   UNL     1      45.226   4.755  13.136  0.00  0.00    +0.000 C 
ATOM      7  C   UNL     1      46.366   5.138  14.099  0.00  0.00    +0.000 C 
ATOM      8  C   UNL     1      47.586   5.673  13.353  0.00  0.00    +0.000 C 
ENDROOT
BRANCH   6   9
ATOM      9  N   UNL     1      45.538   3.617  12.248  0.00  0.00    +0.000 NA
ATOM     10  H   UNL     1      45.699   2.776  12.795  0.00  0.00    +0.000 HD
BRANCH   9  11
ATOM     11  C   UNL     1      44.530   3.341  11.193  0.00  0.00    +0.000 C 
ATOM     12  C   UNL     1      43.133   3.920  11.333  0.00  0.00    +0.000 C 
ATOM     13  C   UNL     1      43.351   2.470  11.611  0.00  0.00    +0.000 C 
BRANCH  11  14
ATOM     14  C   UNL     1      45.079   3.143   9.777  0.00  0.00    +0.000 A 
ATOM     15  C   UNL     1      45.129   4.212   8.877  0.00  0.00    +0.000 A 
ATOM     16  C   UNL     1      45.682   4.028   7.613  0.00  0.00    +0.000 A 
ATOM     17  C   UNL     1      46.157   2.773   7.260  0.00  0.00    +0.000 A 
ATOM     18  C   UNL     1      46.053   1.753   8.188  0.00  0.00    +0.000 A 
ATOM     19  N   UNL     1      45.534   1.910   9.424  0.00  0.00    +0.000 NA
ENDBRANCH  11  14
ENDBRANCH   9  11
ENDBRANCH   6   9
BRANCH   1  20
ATOM     20  O   UNL     1      48.474   8.243  13.666  0.00  0.00    +0.000 OA
BRANCH  20  22
ATOM     21  C   UNL     1      50.041  10.124  13.407  0.00  0.00    +0.000 C 
ATOM     22  C   UNL     1      49.854   8.602  13.403  0.00  0.00    +0.000 C 
ATOM     23  C   UNL     1      50.348   7.938  12.110  0.00  0.00    +0.000 C 
ATOM     24  C   UNL     1      50.671   8.029  14.575  0.00  0.00    +0.000 C 
ENDBRANCH  20  22
ENDBRANCH   1  20
TORSDOF 5
ENDMDL
MODEL 3
REMARK VINA RESULT:    -5.561      2.928      7.635
REMARK INTER + INTRA:          -7.680
REMARK INTER:                  -7.716
REMARK INTRA:                   0.036
REMARK UNBOUND:                -0.493
REMARK  Name = 
REMARK  8 active torsions:
REMARK  status: ('A' for Active; 'I' for Inactive)
REMARK    1  A    between atoms: C_1  and  C_2
REMARK    2  A    between atoms: C_2  and  C_3
REMARK    3  A    between atoms: C_2  and  C_4
REMARK    4  A    between atoms: C_2  and  O_5
REMARK    5  A    between atoms: O_5  and  C_6
REMARK    6  A    between atoms: C_11  and  N_12
REMARK    7  A    between atoms: N_12  and  C_13
REMARK    8  A    between atoms: C_13  and  C_14
REMARK                            x       y       z     vdW  Elec       q    Type
REMARK                         _______ _______ _______ _____ _____    ______ ____
ROOT
ATOM      1  C   UNL     1      43.723   4.645  10.972  0.00  0.00    +0.000 C 
ATOM      2  O   UNL     1      43.147   5.675  10.648  0.00  0.00    +0.000 OA
ATOM      3  N   UNL     1      44.341   4.492  12.196  0.00  0.00    +0.000 N 
ATOM      4  C   UNL     1      44.468   5.658  13.061  0.00  0.00    +0.000 C 
ATOM      5  C   UNL     1      45.946   6.001  13.246  0.00  0.00    +0.000 C 
ATOM      6  C   UNL     1      46.740   4.795  13.789  0.00  0.00    +0.000 C 
ATOM      7  C   UNL     1      46.538   3.611  12.823  0.00  0.00    +0.000 C 
ATOM      8  C   UNL     1      45.059   3.295  12.611  0.00  0.00    +0.000 C 
ENDROOT
BRANCH   6   9
ATOM      9  N   UNL     1      46.304   4.527  15.175  0.00  0.00    +0.000 NA
ATOM     10  H   UNL     1      45.664   3.738  15.198  0.00  0.00    +0.000 HD
BRANCH   9  11
ATOM     11  C   UNL     1      47.400   4.310  16.153  0.00  0.00    +0.000 C 
ATOM     12  C   UNL     1      48.064   2.947  16.232  0.00  0.00    +0.000 C 
ATOM     13  C   UNL     1      47.093   3.345  17.293  0.00  0.00    +0.000 C 
BRANCH  11  14
ATOM     14  C   UNL     1      48.255   5.537  16.486  0.00  0.00    +0.000 A 
ATOM     15  C   UNL     1      48.229   6.097  17.767  0.00  0.00    +0.000 A 
ATOM     16  C   UNL     1      49.054   7.176  18.068  0.00  0.00    +0.000 A 
ATOM     17  C   UNL     1      49.875   7.695  17.077  0.00  0.00    +0.000 A 
ATOM     18  C   UNL     1      49.833   7.112  15.824  0.00  0.00    +0.000 A 
ATOM     19  N   UNL     1      49.052   6.055  15.512  0.00  0.00    +0.000 NA
ENDBRANCH  11  14
ENDBRANCH   9  11
ENDBRANCH   6   9
BRANCH   1  20
ATOM     20  O   UNL     1      43.849   3.553  10.169  0.00  0.00    +0.000 OA
BRANCH  20  22
ATOM     21  C   UNL     1      45.650   2.250   9.110  0.00  0.00    +0.000 C 
ATOM     22  C   UNL     1      44.863   3.567   9.133  0.00  0.00    +0.000 C 
ATOM     23  C   UNL     1      45.763   4.802   9.273  0.00  0.00    +0.000 C 
ATOM     24  C   UNL     1      44.104   3.679   7.799  0.00  0.00    +0.000 C 
ENDBRANCH  20  22
ENDBRANCH   1  20
TORSDOF 5
ENDMDL
MODEL 4
REMARK VINA RESULT:    -5.549      1.133      1.340
REMARK INTER + INTRA:          -7.664
REMARK INTER:                  -7.063
REMARK INTRA:                  -0.601
REMARK UNBOUND:                -0.493
REMARK  Name = 
REMARK  8 active torsions:
REMARK  status: ('A' for Active; 'I' for Inactive)
REMARK    1  A    between atoms: C_1  and  C_2
REMARK    2  A    between atoms: C_2  and  C_3
REMARK    3  A    between atoms: C_2  and  C_4
REMARK    4  A    between atoms: C_2  and  O_5
REMARK    5  A    between atoms: O_5  and  C_6
REMARK    6  A    between atoms: C_11  and  N_12
REMARK    7  A    between atoms: N_12  and  C_13
REMARK    8  A    between atoms: C_13  and  C_14
REMARK                            x       y       z     vdW  Elec       q    Type
REMARK                         _______ _______ _______ _____ _____    ______ ____
ROOT
ATOM      1  C   UNL     1      48.987   5.440  16.183  0.00  0.00    +0.000 C 
ATOM      2  O   UNL     1      49.181   4.552  17.003  0.00  0.00    +0.000 OA
ATOM      3  N   UNL     1      47.890   5.452  15.347  0.00  0.00    +0.000 N 
ATOM      4  C   UNL     1      47.029   4.276  15.313  0.00  0.00    +0.000 C 
ATOM      5  C   UNL     1      47.088   3.637  13.926  0.00  0.00    +0.000 C 
ATOM      6  C   UNL     1      46.719   4.651  12.823  0.00  0.00    +0.000 C 
ATOM      7  C   UNL     1      47.668   5.860  12.942  0.00  0.00    +0.000 C 
ATOM      8  C   UNL     1      47.633   6.474  14.340  0.00  0.00    +0.000 C 
ENDROOT
BRANCH   6   9
ATOM      9  N   UNL     1      45.287   4.989  12.951  0.00  0.00    +0.000 NA
ATOM     10  H   UNL     1      45.154   5.694  13.670  0.00  0.00    +0.000 HD
BRANCH   9  11
ATOM     11  C   UNL     1      44.623   5.423  11.695  0.00  0.00    +0.000 C 
ATOM     12  C   UNL     1      44.410   6.905  11.445  0.00  0.00    +0.000 C 
ATOM     13  C   UNL     1      43.248   6.063  11.857  0.00  0.00    +0.000 C 
BRANCH  11  14
ATOM     14  C   UNL     1      44.835   4.520  10.477  0.00  0.00    +0.000 A 
ATOM     15  C   UNL     1      45.472   5.007   9.332  0.00  0.00    +0.000 A 
ATOM     16  C   UNL     1      45.707   4.157   8.256  0.00  0.00    +0.000 A 
ATOM     17  C   UNL     1      45.282   2.838   8.331  0.00  0.00    +0.000 A 
ATOM     18  C   UNL     1      44.635   2.428   9.482  0.00  0.00    +0.000 A 
ATOM     19  N   UNL     1      44.408   3.229  10.544  0.00  0.00    +0.000 NA
ENDBRANCH  11  14
ENDBRANCH   9  11
ENDBRANCH   6   9
BRANCH   1  20
ATOM     20  O   UNL     1      49.827   6.491  15.977  0.00  0.00    +0.000 OA
BRANCH  20  22
ATOM     21  C   UNL     1      51.021   6.910  18.089  0.00  0.00    +0.000 C 
ATOM     22  C   UNL     1      50.023   7.443  17.052  0.00  0.00    +0.000 C 
ATOM     23  C   UNL     1      48.677   7.849  17.667  0.00  0.00    +0.000 C 
ATOM     24  C   UNL     1      50.647   8.692  16.404  0.00  0.00    +0.000 C 
ENDBRANCH  20  22
ENDBRANCH   1  20
TORSDOF 5
ENDMDL
MODEL 5
REMARK VINA RESULT:    -5.170      3.115      7.748
REMARK INTER + INTRA:          -7.174
REMARK INTER:                  -6.685
REMARK INTRA:                  -0.489
REMARK UNBOUND:                -0.493
REMARK  Name = 
REMARK  8 active torsions:
REMARK  status: ('A' for Active; 'I' for Inactive)
REMARK    1  A    between atoms: C_1  and  C_2
REMARK    2  A    between atoms: C_2  and  C_3
REMARK    3  A    between atoms: C_2  and  C_4
REMARK    4  A    between atoms: C_2  and  O_5
REMARK    5  A    between atoms: O_5  and  C_6
REMARK    6  A    between atoms: C_11  and  N_12
REMARK    7  A    between atoms: N_12  and  C_13
REMARK    8  A    between atoms: C_13  and  C_14
REMARK                            x       y       z     vdW  Elec       q    Type
REMARK                         _______ _______ _______ _____ _____    ______ ____
ROOT
ATOM      1  C   UNL     1      45.783   5.634  11.772  0.00  0.00    +0.000 C 
ATOM      2  O   UNL     1      45.856   6.506  10.917  0.00  0.00    +0.000 OA
ATOM      3  N   UNL     1      46.253   5.811  13.057  0.00  0.00    +0.000 N 
ATOM      4  C   UNL     1      47.024   7.012  13.356  0.00  0.00    +0.000 C 
ATOM      5  C   UNL     1      48.453   6.623  13.733  0.00  0.00    +0.000 C 
ATOM      6  C   UNL     1      48.472   5.621  14.908  0.00  0.00    +0.000 C 
ATOM      7  C   UNL     1      47.626   4.396  14.509  0.00  0.00    +0.000 C 
ATOM      8  C   UNL     1      46.210   4.792  14.097  0.00  0.00    +0.000 C 
ENDROOT
BRANCH   6   9
ATOM      9  N   UNL     1      48.003   6.312  16.126  0.00  0.00    +0.000 NA
ATOM     10  H   UNL     1      47.005   6.493  16.067  0.00  0.00    +0.000 HD
BRANCH   9  11
ATOM     11  C   UNL     1      48.312   5.623  17.404  0.00  0.00    +0.000 C 
ATOM     12  C   UNL     1      47.194   4.924  18.157  0.00  0.00    +0.000 C 
ATOM     13  C   UNL     1      47.696   6.237  18.657  0.00  0.00    +0.000 C 
BRANCH  11  14
ATOM     14  C   UNL     1      49.724   5.044  17.530  0.00  0.00    +0.000 A 
ATOM     15  C   UNL     1      49.920   3.665  17.649  0.00  0.00    +0.000 A 
ATOM     16  C   UNL     1      51.212   3.151  17.706  0.00  0.00    +0.000 A 
ATOM     17  C   UNL     1      52.288   4.026  17.665  0.00  0.00    +0.000 A 
ATOM     18  C   UNL     1      52.024   5.380  17.574  0.00  0.00    +0.000 A 
ATOM     19  N   UNL     1      50.781   5.901  17.503  0.00  0.00    +0.000 NA
ENDBRANCH  11  14
ENDBRANCH   9  11
ENDBRANCH   6   9
BRANCH   1  20
ATOM     20  O   UNL     1      45.266   4.393  11.559  0.00  0.00    +0.000 OA
BRANCH  20  22
ATOM     21  C   UNL     1      44.068   4.212   9.415  0.00  0.00    +0.000 C 
ATOM     22  C   UNL     1      43.958   4.283  10.944  0.00  0.00    +0.000 C 
ATOM     23  C   UNL     1      43.036   5.410  11.429  0.00  0.00    +0.000 C 
ATOM     24  C   UNL     1      43.372   2.946  11.431  0.00  0.00    +0.000 C 
ENDBRANCH  20  22
ENDBRANCH   1  20
TORSDOF 5
ENDMDL
MODEL 6
REMARK VINA RESULT:    -5.149      1.436      2.218
REMARK INTER + INTRA:          -7.147
REMARK INTER:                  -7.026
REMARK INTRA:                  -0.121
REMARK UNBOUND:                -0.493
REMARK  Name = 
REMARK  8 active torsions:
REMARK  status: ('A' for Active; 'I' for Inactive)
REMARK    1  A    between atoms: C_1  and  C_2
REMARK    2  A    between atoms: C_2  and  C_3
REMARK    3  A    between atoms: C_2  and  C_4
REMARK    4  A    between atoms: C_2  and  O_5
REMARK    5  A    between atoms: O_5  and  C_6
REMARK    6  A    between atoms: C_11  and  N_12
REMARK    7  A    between atoms: N_12  and  C_13
REMARK    8  A    between atoms: C_13  and  C_14
REMARK                            x       y       z     vdW  Elec       q    Type
REMARK                         _______ _______ _______ _____ _____    ______ ____
ROOT
ATOM      1  C   UNL     1      48.768   8.507  14.406  0.00  0.00    +0.000 C 
ATOM      2  O   UNL     1      49.646   8.012  15.100  0.00  0.00    +0.000 OA
ATOM      3  N   UNL     1      47.667   7.794  13.979  0.00  0.00    +0.000 N 
ATOM      4  C   UNL     1      47.639   6.356  14.211  0.00  0.00    +0.000 C 
ATOM      5  C   UNL     1      47.647   5.620  12.871  0.00  0.00    +0.000 C 
ATOM      6  C   UNL     1      46.482   6.080  11.969  0.00  0.00    +0.000 C 
ATOM      7  C   UNL     1      46.585   7.607  11.790  0.00  0.00    +0.000 C 
ATOM      8  C   UNL     1      46.613   8.336  13.132  0.00  0.00    +0.000 C 
ENDROOT
BRANCH   6   9
ATOM      9  N   UNL     1      45.212   5.623  12.569  0.00  0.00    +0.000 NA
ATOM     10  H   UNL     1      44.847   6.329  13.201  0.00  0.00    +0.000 HD
BRANCH   9  11
ATOM     11  C   UNL     1      44.159   5.228  11.599  0.00  0.00    +0.000 C 
ATOM     12  C   UNL     1      42.992   6.167  11.350  0.00  0.00    +0.000 C 
ATOM     13  C   UNL     1      42.781   4.951  12.190  0.00  0.00    +0.000 C 
BRANCH  11  14
ATOM     14  C   UNL     1      44.615   4.338  10.439  0.00  0.00    +0.000 A 
ATOM     15  C   UNL     1      44.417   2.955  10.482  0.00  0.00    +0.000 A 
ATOM     16  C   UNL     1      44.787   2.168   9.396  0.00  0.00    +0.000 A 
ATOM     17  C   UNL     1      45.369   2.772   8.292  0.00  0.00    +0.000 A 
ATOM     18  C   UNL     1      45.561   4.141   8.324  0.00  0.00    +0.000 A 
ATOM     19  N   UNL     1      45.198   4.928   9.360  0.00  0.00    +0.000 NA
ENDBRANCH  11  14
ENDBRANCH   9  11
ENDBRANCH   6   9
BRANCH   1  20
ATOM     20  O   UNL     1      48.782   9.791  13.953  0.00  0.00    +0.000 OA
BRANCH  20  22
ATOM     21  C   UNL     1      48.906  11.053  11.842  0.00  0.00    +0.000 C 
ATOM     22  C   UNL     1      49.628  10.118  12.822  0.00  0.00    +0.000 C 
ATOM     23  C   UNL     1      50.157   8.841  12.155  0.00  0.00    +0.000 C 
ATOM     24  C   UNL     1      50.829  10.888  13.400  0.00  0.00    +0.000 C 
ENDBRANCH  20  22
ENDBRANCH   1  20
TORSDOF 5
ENDMDL
MODEL 7
REMARK VINA RESULT:    -5.017      2.673      7.255
REMARK INTER + INTRA:          -6.977
REMARK INTER:                  -7.553
REMARK INTRA:                   0.575
REMARK UNBOUND:                -0.493
REMARK  Name = 
REMARK  8 active torsions:
REMARK  status: ('A' for Active; 'I' for Inactive)
REMARK    1  A    between atoms: C_1  and  C_2
REMARK    2  A    between atoms: C_2  and  C_3
REMARK    3  A    between atoms: C_2  and  C_4
REMARK    4  A    between atoms: C_2  and  O_5
REMARK    5  A    between atoms: O_5  and  C_6
REMARK    6  A    between atoms: C_11  and  N_12
REMARK    7  A    between atoms: N_12  and  C_13
REMARK    8  A    between atoms: C_13  and  C_14
REMARK                            x       y       z     vdW  Elec       q    Type
REMARK                         _______ _______ _______ _____ _____    ______ ____
ROOT
ATOM      1  C   UNL     1      45.320   6.680  11.393  0.00  0.00    +0.000 C 
ATOM      2  O   UNL     1      44.606   7.587  10.989  0.00  0.00    +0.000 OA
ATOM      3  N   UNL     1      46.023   6.759  12.578  0.00  0.00    +0.000 N 
ATOM      4  C   UNL     1      46.058   8.035  13.281  0.00  0.00    +0.000 C 
ATOM      5  C   UNL     1      47.492   8.564  13.313  0.00  0.00    +0.000 C 
ATOM      6  C   UNL     1      48.457   7.535  13.941  0.00  0.00    +0.000 C 
ATOM      7  C   UNL     1      48.343   6.220  13.145  0.00  0.00    +0.000 C 
ATOM      8  C   UNL     1      46.904   5.715  13.084  0.00  0.00    +0.000 C 
ENDROOT
BRANCH   6   9
ATOM      9  N   UNL     1      48.139   7.405  15.377  0.00  0.00    +0.000 NA
ATOM     10  H   UNL     1      47.268   6.895  15.501  0.00  0.00    +0.000 HD
BRANCH   9  11
ATOM     11  C   UNL     1      49.203   6.786  16.209  0.00  0.00    +0.000 C 
ATOM     12  C   UNL     1      50.020   7.665  17.139  0.00  0.00    +0.000 C 
ATOM     13  C   UNL     1      50.633   7.187  15.865  0.00  0.00    +0.000 C 
BRANCH  11  14
ATOM     14  C   UNL     1      48.964   5.333  16.630  0.00  0.00    +0.000 A 
ATOM     15  C   UNL     1      47.686   4.772  16.559  0.00  0.00    +0.000 A 
ATOM     16  C   UNL     1      47.498   3.434  16.892  0.00  0.00    +0.000 A 
ATOM     17  C   UNL     1      48.586   2.684  17.313  0.00  0.00    +0.000 A 
ATOM     18  C   UNL     1      49.818   3.307  17.386  0.00  0.00    +0.000 A 
ATOM     19  N   UNL     1      50.028   4.599  17.055  0.00  0.00    +0.000 NA
ENDBRANCH  11  14
ENDBRANCH   9  11
ENDBRANCH   6   9
BRANCH   1  20
ATOM     20  O   UNL     1      45.531   5.513  10.724  0.00  0.00    +0.000 OA
BRANCH  20  22
ATOM     21  C   UNL     1      44.235   4.169   9.119  0.00  0.00    +0.000 C 
ATOM     22  C   UNL     1      44.425   4.585  10.583  0.00  0.00    +0.000 C 
ATOM     23  C   UNL     1      43.151   5.163  11.214  0.00  0.00    +0.000 C 
ATOM     24  C   UNL     1      44.822   3.328  11.377  0.00  0.00    +0.000 C 
ENDBRANCH  20  22
ENDBRANCH   1  20
TORSDOF 5
ENDMDL
MODEL 8
REMARK VINA RESULT:    -4.974      2.781      7.668
REMARK INTER + INTRA:          -6.921
REMARK INTER:                  -6.873
REMARK INTRA:                  -0.047
REMARK UNBOUND:                -0.493
REMARK  Name = 
REMARK  8 active torsions:
REMARK  status: ('A' for Active; 'I' for Inactive)
REMARK    1  A    between atoms: C_1  and  C_2
REMARK    2  A    between atoms: C_2  and  C_3
REMARK    3  A    between atoms: C_2  and  C_4
REMARK    4  A    between atoms: C_2  and  O_5
REMARK    5  A    between atoms: O_5  and  C_6
REMARK    6  A    between atoms: C_11  and  N_12
REMARK    7  A    between atoms: N_12  and  C_13
REMARK    8  A    between atoms: C_13  and  C_14
REMARK                            x       y       z     vdW  Elec       q    Type
REMARK                         _______ _______ _______ _____ _____    ______ ____
ROOT
ATOM      1  C   UNL     1      45.858   5.403  11.236  0.00  0.00    +0.000 C 
ATOM      2  O   UNL     1      46.031   5.927  10.144  0.00  0.00    +0.000 OA
ATOM      3  N   UNL     1      46.299   5.973  12.412  0.00  0.00    +0.000 N 
ATOM      4  C   UNL     1      47.159   7.148  12.335  0.00  0.00    +0.000 C 
ATOM      5  C   UNL     1      48.537   6.813  12.904  0.00  0.00    +0.000 C 
ATOM      6  C   UNL     1      48.434   6.271  14.345  0.00  0.00    +0.000 C 
ATOM      7  C   UNL     1      47.501   5.044  14.333  0.00  0.00    +0.000 C 
ATOM      8  C   UNL     1      46.137   5.372  13.729  0.00  0.00    +0.000 C 
ENDROOT
BRANCH   6   9
ATOM      9  N   UNL     1      47.986   7.364  15.231  0.00  0.00    +0.000 NA
ATOM     10  H   UNL     1      46.988   7.290  15.407  0.00  0.00    +0.000 HD
BRANCH   9  11
ATOM     11  C   UNL     1      48.713   7.472  16.522  0.00  0.00    +0.000 C 
ATOM     12  C   UNL     1      48.389   8.621  17.460  0.00  0.00    +0.000 C 
ATOM     13  C   UNL     1      49.648   8.669  16.661  0.00  0.00    +0.000 C 
BRANCH  11  14
ATOM     14  C   UNL     1      49.170   6.151  17.147  0.00  0.00    +0.000 A 
ATOM     15  C   UNL     1      48.326   5.440  18.005  0.00  0.00    +0.000 A 
ATOM     16  C   UNL     1      48.735   4.213  18.520  0.00  0.00    +0.000 A 
ATOM     17  C   UNL     1      49.990   3.727  18.188  0.00  0.00    +0.000 A 
ATOM     18  C   UNL     1      50.787   4.493  17.356  0.00  0.00    +0.000 A 
ATOM     19  N   UNL     1      50.406   5.678  16.832  0.00  0.00    +0.000 NA
ENDBRANCH  11  14
ENDBRANCH   9  11
ENDBRANCH   6   9
BRANCH   1  20
ATOM     20  O   UNL     1      45.246   4.201  11.421  0.00  0.00    +0.000 OA
BRANCH  20  22
ATOM     21  C   UNL     1      44.099   3.569   9.337  0.00  0.00    +0.000 C 
ATOM     22  C   UNL     1      43.951   3.980  10.807  0.00  0.00    +0.000 C 
ATOM     23  C   UNL     1      43.045   5.204  11.001  0.00  0.00    +0.000 C 
ATOM     24  C   UNL     1      43.321   2.796  11.561  0.00  0.00    +0.000 C 
ENDBRANCH  20  22
ENDBRANCH   1  20
TORSDOF 5
ENDMDL
MODEL 9
REMARK VINA RESULT:    -4.813      3.127      7.259
REMARK INTER + INTRA:          -6.714
REMARK INTER:                  -6.250
REMARK INTRA:                  -0.464
REMARK UNBOUND:                -0.493
REMARK  Name = 
REMARK  8 active torsions:
REMARK  status: ('A' for Active; 'I' for Inactive)
REMARK    1  A    between atoms: C_1  and  C_2
REMARK    2  A    between atoms: C_2  and  C_3
REMARK    3  A    between atoms: C_2  and  C_4
REMARK    4  A    between atoms: C_2  and  O_5
REMARK    5  A    between atoms: O_5  and  C_6
REMARK    6  A    between atoms: C_11  and  N_12
REMARK    7  A    between atoms: N_12  and  C_13
REMARK    8  A    between atoms: C_13  and  C_14
REMARK                            x       y       z     vdW  Elec       q    Type
REMARK                         _______ _______ _______ _____ _____    ______ ____
ROOT
ATOM      1  C   UNL     1      45.916   4.910  13.113  0.00  0.00    +0.000 C 
ATOM      2  O   UNL     1      46.513   3.925  13.526  0.00  0.00    +0.000 OA
ATOM      3  N   UNL     1      46.564   6.066  12.731  0.00  0.00    +0.000 N 
ATOM      4  C   UNL     1      47.992   6.182  12.998  0.00  0.00    +0.000 C 
ATOM      5  C   UNL     1      48.237   7.315  13.995  0.00  0.00    +0.000 C 
ATOM      6  C   UNL     1      47.637   8.645  13.494  0.00  0.00    +0.000 C 
ATOM      7  C   UNL     1      46.135   8.425  13.227  0.00  0.00    +0.000 C 
ATOM      8  C   UNL     1      45.892   7.269  12.259  0.00  0.00    +0.000 C 
ENDROOT
BRANCH   6   9
ATOM      9  N   UNL     1      48.403   9.095  12.314  0.00  0.00    +0.000 NA
ATOM     10  H   UNL     1      47.811   9.645  11.698  0.00  0.00    +0.000 HD
BRANCH   9  11
ATOM     11  C   UNL     1      49.647   9.848  12.616  0.00  0.00    +0.000 C 
ATOM     12  C   UNL     1      49.672  10.790  13.806  0.00  0.00    +0.000 C 
ATOM     13  C   UNL     1      49.571  11.360  12.431  0.00  0.00    +0.000 C 
BRANCH  11  14
ATOM     14  C   UNL     1      50.958   9.160  12.225  0.00  0.00    +0.000 A 
ATOM     15  C   UNL     1      51.040   8.391  11.060  0.00  0.00    +0.000 A 
ATOM     16  C   UNL     1      52.253   7.820  10.691  0.00  0.00    +0.000 A 
ATOM     17  C   UNL     1      53.362   8.007  11.502  0.00  0.00    +0.000 A 
ATOM     18  C   UNL     1      53.208   8.756  12.654  0.00  0.00    +0.000 A 
ATOM     19  N   UNL     1      52.045   9.333  13.026  0.00  0.00    +0.000 NA
ENDBRANCH  11  14
ENDBRANCH   9  11
ENDBRANCH   6   9
BRANCH   1  20
ATOM     20  O   UNL     1      44.561   4.998  13.009  0.00  0.00    +0.000 OA
BRANCH  20  22
ATOM     21  C   UNL     1      43.469   2.890  12.356  0.00  0.00    +0.000 C 
ATOM     22  C   UNL     1      43.902   4.296  11.924  0.00  0.00    +0.000 C 
ATOM     23  C   UNL     1      44.784   4.294  10.668  0.00  0.00    +0.000 C 
ATOM     24  C   UNL     1      42.628   5.101  11.611  0.00  0.00    +0.000 C 
ENDBRANCH  20  22
ENDBRANCH   1  20
TORSDOF 5
ENDMDL
