MODEL 1
REMARK VINA RESULT:    -7.374      0.000      0.000
REMARK INTER + INTRA:         -10.921
REMARK INTER:                  -9.960
REMARK INTRA:                  -0.961
REMARK UNBOUND:                -0.961
REMARK  Name = 
REMARK  6 active torsions:
REMARK  status: ('A' for Active; 'I' for Inactive)
REMARK    1  A    between atoms: C_2  and  C_19
REMARK    2  A    between atoms: N_3  and  C_4
REMARK    3  A    between atoms: C_4  and  C_5
REMARK    4  A    between atoms: C_8  and  C_9
REMARK    5  A    between atoms: C_9  and  N_10
REMARK    6  A    between atoms: N_10  and  C_11
REMARK                            x       y       z     vdW  Elec       q    Type
REMARK                         _______ _______ _______ _____ _____    ______ ____
ROOT
ATOM      1  C   UNL     1      46.635   7.204  12.955  0.00  0.00    +0.000 C 
ENDROOT
BRANCH   1   2
ATOM      2  C   UNL     1      46.412   5.914  12.170  0.00  0.00    +0.000 C 
ATOM      3  C   UNL     1      45.802   6.196  10.784  0.00  0.00    +0.000 C 
ATOM      4  C   UNL     1      45.530   4.904  10.020  0.00  0.00    +0.000 C 
ATOM      5  C   UNL     1      44.641   3.946  10.827  0.00  0.00    +0.000 C 
ATOM      6  C   UNL     1      45.259   3.672  12.204  0.00  0.00    +0.000 C 
ATOM      7  C   UNL     1      45.518   4.963  12.971  0.00  0.00    +0.000 C 
BRANCH   5   8
ATOM      8  C   UNL     1      44.416   2.643  10.044  0.00  0.00    +0.000 C 
BRANCH   8   9
ATOM      9  N   UNL     1      45.659   2.219   9.401  0.00  0.00    +0.000 NA
ATOM     10  H   UNL     1      46.137   1.536   9.988  0.00  0.00    +0.000 HD
BRANCH   9  11
ATOM     11  C   UNL     1      45.484   1.709   8.036  0.00  0.00    +0.000 C 
ATOM     12  C   UNL     1      46.668   0.879   7.520  0.00  0.00    +0.000 C 
ATOM     13  C   UNL     1      47.909   1.740   7.294  0.00  0.00    +0.000 C 
ATOM     14  N   UNL     1      47.640   2.823   6.345  0.00  0.00    +0.000 NA
ATOM     15  C   UNL     1      46.552   3.683   6.821  0.00  0.00    +0.000 C 
ATOM     16  C   UNL     1      45.265   2.897   7.080  0.00  0.00    +0.000 C 
ATOM     17  H   UNL     1      47.367   2.416   5.450  0.00  0.00    +0.000 HD
ENDBRANCH   9  11
ENDBRANCH   8   9
ENDBRANCH   5   8
ENDBRANCH   1   2
BRANCH   1  20
ATOM     18  O   UNL     1      49.354   6.738  13.705  0.00  0.00    +0.000 OA
ATOM     19  C   UNL     1      48.461   6.653  14.542  0.00  0.00    +0.000 C 
ATOM     20  N   UNL     1      47.147   6.925  14.273  0.00  0.00    +0.000 N 
ATOM     21  H   UNL     1      46.459   6.840  15.010  0.00  0.00    +0.000 HD
BRANCH  19  22
ATOM     22  C   UNL     1      48.732   6.302  15.936  0.00  0.00    +0.000 A 
ATOM     23  C   UNL     1      49.364   7.192  16.790  0.00  0.00    +0.000 A 
ATOM     24  S   UNL     1      49.536   6.589  18.380  0.00  0.00    +0.000 S 
ATOM     25  C   UNL     1      48.803   5.110  17.962  0.00  0.00    +0.000 A 
ATOM     26  N   UNL     1      48.628   4.121  18.883  0.00  0.00    +0.000 NA
ATOM     27  C   UNL     1      48.069   3.053  18.421  0.00  0.00    +0.000 A 
ATOM     28  N   UNL     1      47.672   2.876  17.118  0.00  0.00    +0.000 N 
ATOM     29  C   UNL     1      47.839   3.837  16.154  0.00  0.00    +0.000 A 
ATOM     30  O   UNL     1      47.463   3.640  15.005  0.00  0.00    +0.000 OA
ATOM     31  C   UNL     1      48.440   5.072  16.631  0.00  0.00    +0.000 A 
ATOM     32  H   UNL     1      47.238   2.018  16.818  0.00  0.00    +0.000 HD
ENDBRANCH  19  22
ENDBRANCH   1  20
TORSDOF 6
ENDMDL
MODEL 2
REMARK VINA RESULT:    -7.297      1.608      2.029
REMARK INTER + INTRA:         -10.817
REMARK INTER:                  -9.652
REMARK INTRA:                  -1.165
REMARK UNBOUND:                -0.961
REMARK  Name = 
REMARK  6 active torsions:
REMARK  status: ('A' for Active; 'I' for Inactive)
REMARK    1  A    between atoms: C_2  and  C_19
REMARK    2  A    between atoms: N_3  and  C_4
REMARK    3  A    between atoms: C_4  and  C_5
REMARK    4  A    between atoms: C_8  and  C_9
REMARK    5  A    between atoms: C_9  and  N_10
REMARK    6  A    between atoms: N_10  and  C_11
REMARK                            x       y       z     vdW  Elec       q    Type
REMARK                         _______ _______ _______ _____ _____    ______ ____
ROOT
ATOM      1  C   UNL     1      48.551   7.108  13.697  0.00  0.00    +0.000 C 
ENDROOT
BRANCH   1   2
ATOM      2  C   UNL     1      47.717   6.057  12.971  0.00  0.00    +0.000 C 
ATOM      3  C   UNL     1      46.567   6.702  12.172  0.00  0.00    +0.000 C 
ATOM      4  C   UNL     1      45.703   5.649  11.488  0.00  0.00    +0.000 C 
ATOM      5  C   UNL     1      45.163   4.620  12.493  0.00  0.00    +0.000 C 
ATOM      6  C   UNL     1      46.316   3.984  13.281  0.00  0.00    +0.000 C 
ATOM      7  C   UNL     1      47.172   5.037  13.974  0.00  0.00    +0.000 C 
BRANCH   5   8
ATOM      8  C   UNL     1      44.326   3.555  11.767  0.00  0.00    +0.000 C 
BRANCH   8   9
ATOM      9  N   UNL     1      45.131   2.891  10.743  0.00  0.00    +0.000 NA
ATOM     10  H   UNL     1      45.521   2.027  11.116  0.00  0.00    +0.000 HD
BRANCH   9  11
ATOM     11  C   UNL     1      44.417   2.648   9.484  0.00  0.00    +0.000 C 
ATOM     12  C   UNL     1      44.940   1.442   8.690  0.00  0.00    +0.000 C 
ATOM     13  C   UNL     1      46.336   1.696   8.126  0.00  0.00    +0.000 C 
ATOM     14  N   UNL     1      46.354   2.877   7.260  0.00  0.00    +0.000 NA
ATOM     15  C   UNL     1      45.918   4.072   7.989  0.00  0.00    +0.000 C 
ATOM     16  C   UNL     1      44.523   3.902   8.596  0.00  0.00    +0.000 C 
ATOM     17  H   UNL     1      45.718   2.721   6.477  0.00  0.00    +0.000 HD
ENDBRANCH   9  11
ENDBRANCH   8   9
ENDBRANCH   5   8
ENDBRANCH   1   2
BRANCH   1  20
ATOM     18  O   UNL     1      49.969   8.513  15.744  0.00  0.00    +0.000 OA
ATOM     19  C   UNL     1      49.077   7.726  16.042  0.00  0.00    +0.000 C 
ATOM     20  N   UNL     1      48.312   7.067  15.118  0.00  0.00    +0.000 N 
ATOM     21  H   UNL     1      47.588   6.434  15.430  0.00  0.00    +0.000 HD
BRANCH  19  22
ATOM     22  C   UNL     1      48.708   7.459  17.433  0.00  0.00    +0.000 A 
ATOM     23  C   UNL     1      48.184   8.456  18.239  0.00  0.00    +0.000 A 
ATOM     24  S   UNL     1      47.784   7.908  19.809  0.00  0.00    +0.000 S 
ATOM     25  C   UNL     1      48.332   6.333  19.463  0.00  0.00    +0.000 A 
ATOM     26  N   UNL     1      48.268   5.341  20.394  0.00  0.00    +0.000 NA
ATOM     27  C   UNL     1      48.729   4.202  19.995  0.00  0.00    +0.000 A 
ATOM     28  N   UNL     1      49.256   3.962  18.749  0.00  0.00    +0.000 N 
ATOM     29  C   UNL     1      49.351   4.932  17.784  0.00  0.00    +0.000 A 
ATOM     30  O   UNL     1      49.820   4.672  16.683  0.00  0.00    +0.000 OA
ATOM     31  C   UNL     1      48.819   6.227  18.176  0.00  0.00    +0.000 A 
ATOM     32  H   UNL     1      49.598   3.050  18.496  0.00  0.00    +0.000 HD
ENDBRANCH  19  22
ENDBRANCH   1  20
TORSDOF 6
ENDMDL
MODEL 3
REMARK VINA RESULT:    -7.128      2.133      2.838
REMARK INTER + INTRA:         -10.588
REMARK INTER:                  -9.583
REMARK INTRA:                  -1.006
REMARK UNBOUND:                -0.961
REMARK  Name = 
REMARK  6 active torsions:
REMARK  status: ('A' for Active; 'I' for Inactive)
REMARK    1  A    between atoms: C_2  and  C_19
REMARK    2  A    between atoms: N_3  and  C_4
REMARK    3  A    between atoms: C_4  and  C_5
REMARK    4  A    between atoms: C_8  and  C_9
REMARK    5  A    between atoms: C_9  and  N_10
REMARK    6  A    between atoms: N_10  and  C_11
REMARK                            x       y       z     vdW  Elec       q    Type
REMARK                         _______ _______ _______ _____ _____    ______ ____
ROOT
ATOM      1  C   UNL     1      48.085   7.265  13.844  0.00  0.00    +0.000 C 
ENDROOT
BRANCH   1   2
ATOM      2  C   UNL     1      47.406   6.146  13.059  0.00  0.00    +0.000 C 
ATOM      3  C   UNL     1      46.265   6.689  12.177  0.00  0.00    +0.000 C 
ATOM      4  C   UNL     1      45.553   5.565  11.431  0.00  0.00    +0.000 C 
ATOM      5  C   UNL     1      45.037   4.486  12.395  0.00  0.00    +0.000 C 
ATOM      6  C   UNL     1      46.182   3.952  13.267  0.00  0.00    +0.000 C 
ATOM      7  C   UNL     1      46.884   5.075  14.020  0.00  0.00    +0.000 C 
BRANCH   5   8
ATOM      8  C   UNL     1      44.356   3.353  11.609  0.00  0.00    +0.000 C 
BRANCH   8   9
ATOM      9  N   UNL     1      45.237   2.877  10.544  0.00  0.00    +0.000 NA
ATOM     10  H   UNL     1      45.762   2.065  10.866  0.00  0.00    +0.000 HD
BRANCH   9  11
ATOM     11  C   UNL     1      44.548   2.593   9.280  0.00  0.00    +0.000 C 
ATOM     12  C   UNL     1      45.018   1.306   8.585  0.00  0.00    +0.000 C 
ATOM     13  C   UNL     1      46.443   1.438   8.053  0.00  0.00    +0.000 C 
ATOM     14  N   UNL     1      46.561   2.554   7.113  0.00  0.00    +0.000 NA
ATOM     15  C   UNL     1      46.178   3.820   7.747  0.00  0.00    +0.000 C 
ATOM     16  C   UNL     1      44.758   3.775   8.315  0.00  0.00    +0.000 C 
ATOM     17  H   UNL     1      45.940   2.384   6.321  0.00  0.00    +0.000 HD
ENDBRANCH   9  11
ENDBRANCH   8   9
ENDBRANCH   5   8
ENDBRANCH   1   2
BRANCH   1  20
ATOM     18  O   UNL     1      50.311   6.628  15.520  0.00  0.00    +0.000 OA
ATOM     19  C   UNL     1      49.175   6.631  15.980  0.00  0.00    +0.000 C 
ATOM     20  N   UNL     1      48.068   6.988  15.258  0.00  0.00    +0.000 N 
ATOM     21  H   UNL     1      47.158   6.973  15.699  0.00  0.00    +0.000 HD
BRANCH  19  22
ATOM     22  C   UNL     1      48.901   6.300  17.380  0.00  0.00    +0.000 A 
ATOM     23  C   UNL     1      49.145   5.030  17.876  0.00  0.00    +0.000 A 
ATOM     24  S   UNL     1      48.795   4.883  19.543  0.00  0.00    +0.000 S 
ATOM     25  C   UNL     1      48.278   6.502  19.638  0.00  0.00    +0.000 A 
ATOM     26  N   UNL     1      47.842   7.039  20.813  0.00  0.00    +0.000 NA
ATOM     27  C   UNL     1      47.472   8.273  20.732  0.00  0.00    +0.000 A 
ATOM     28  N   UNL     1      47.489   9.024  19.581  0.00  0.00    +0.000 N 
ATOM     29  C   UNL     1      47.907   8.523  18.374  0.00  0.00    +0.000 A 
ATOM     30  O   UNL     1      47.913   9.231  17.374  0.00  0.00    +0.000 OA
ATOM     31  C   UNL     1      48.362   7.143  18.419  0.00  0.00    +0.000 A 
ATOM     32  H   UNL     1      47.188   9.985  19.582  0.00  0.00    +0.000 HD
ENDBRANCH  19  22
ENDBRANCH   1  20
TORSDOF 6
ENDMDL
MODEL 4
REMARK VINA RESULT:    -7.121      2.619      3.754
REMARK INTER + INTRA:         -10.580
REMARK INTER:                  -9.273
REMARK INTRA:                  -1.306
REMARK UNBOUND:                -0.961
REMARK  Name = 
REMARK  6 active torsions:
REMARK  status: ('A' for Active; 'I' for Inactive)
REMARK    1  A    between atoms: C_2  and  C_19
REMARK    2  A    between atoms: N_3  and  C_4
REMARK    3  A    between atoms: C_4  and  C_5
REMARK    4  A    between atoms: C_8  and  C_9
REMARK    5  A    between atoms: C_9  and  N_10
REMARK    6  A    between atoms: N_10  and  C_11
REMARK                            x       y       z     vdW  Elec       q    Type
REMARK                         _______ _______ _______ _____ _____    ______ ____
ROOT
ATOM      1  C   UNL     1      49.873   8.119  13.605  0.00  0.00    +0.000 C 
ENDROOT
BRANCH   1   2
ATOM      2  C   UNL     1      48.595   8.086  12.771  0.00  0.00    +0.000 C 
ATOM      3  C   UNL     1      47.453   8.859  13.459  0.00  0.00    +0.000 C 
ATOM      4  C   UNL     1      46.162   8.783  12.651  0.00  0.00    +0.000 C 
ATOM      5  C   UNL     1      45.753   7.329  12.375  0.00  0.00    +0.000 C 
ATOM      6  C   UNL     1      46.897   6.570  11.689  0.00  0.00    +0.000 C 
ATOM      7  C   UNL     1      48.183   6.636  12.504  0.00  0.00    +0.000 C 
BRANCH   5   8
ATOM      8  C   UNL     1      44.469   7.289  11.530  0.00  0.00    +0.000 C 
BRANCH   8   9
ATOM      9  N   UNL     1      44.496   6.143  10.623  0.00  0.00    +0.000 NA
ATOM     10  H   UNL     1      45.397   5.670  10.690  0.00  0.00    +0.000 HD
BRANCH   9  11
ATOM     11  C   UNL     1      43.390   5.198  10.818  0.00  0.00    +0.000 C 
ATOM     12  C   UNL     1      42.998   4.986  12.288  0.00  0.00    +0.000 C 
ATOM     13  C   UNL     1      44.083   4.241  13.062  0.00  0.00    +0.000 C 
ATOM     14  N   UNL     1      44.373   2.940  12.455  0.00  0.00    +0.000 NA
ATOM     15  C   UNL     1      44.810   3.092  11.064  0.00  0.00    +0.000 C 
ATOM     16  C   UNL     1      43.779   3.836  10.212  0.00  0.00    +0.000 C 
ATOM     17  H   UNL     1      43.525   2.373  12.472  0.00  0.00    +0.000 HD
ENDBRANCH   9  11
ENDBRANCH   8   9
ENDBRANCH   5   8
ENDBRANCH   1   2
BRANCH   1  20
ATOM     18  O   UNL     1      49.316   8.501  16.382  0.00  0.00    +0.000 OA
ATOM     19  C   UNL     1      49.623   7.390  15.963  0.00  0.00    +0.000 C 
ATOM     20  N   UNL     1      49.841   7.117  14.640  0.00  0.00    +0.000 N 
ATOM     21  H   UNL     1      50.089   6.177  14.359  0.00  0.00    +0.000 HD
BRANCH  19  22
ATOM     22  C   UNL     1      49.735   6.228  16.846  0.00  0.00    +0.000 A 
ATOM     23  C   UNL     1      50.742   6.143  17.793  0.00  0.00    +0.000 A 
ATOM     24  S   UNL     1      50.652   4.723  18.741  0.00  0.00    +0.000 S 
ATOM     25  C   UNL     1      49.286   4.169  17.889  0.00  0.00    +0.000 A 
ATOM     26  N   UNL     1      48.685   2.987  18.204  0.00  0.00    +0.000 NA
ATOM     27  C   UNL     1      47.668   2.691  17.467  0.00  0.00    +0.000 A 
ATOM     28  N   UNL     1      47.195   3.465  16.435  0.00  0.00    +0.000 N 
ATOM     29  C   UNL     1      47.774   4.655  16.073  0.00  0.00    +0.000 A 
ATOM     30  O   UNL     1      47.314   5.317  15.151  0.00  0.00    +0.000 OA
ATOM     31  C   UNL     1      48.908   5.047  16.893  0.00  0.00    +0.000 A 
ATOM     32  H   UNL     1      46.393   3.180  15.896  0.00  0.00    +0.000 HD
ENDBRANCH  19  22
ENDBRANCH   1  20
TORSDOF 6
ENDMDL
MODEL 5
REMARK VINA RESULT:    -7.107      4.400      9.054
REMARK INTER + INTRA:         -10.561
REMARK INTER:                  -9.805
REMARK INTRA:                  -0.756
REMARK UNBOUND:                -0.961
REMARK  Name = 
REMARK  6 active torsions:
REMARK  status: ('A' for Active; 'I' for Inactive)
REMARK    1  A    between atoms: C_2  and  C_19
REMARK    2  A    between atoms: N_3  and  C_4
REMARK    3  A    between atoms: C_4  and  C_5
REMARK    4  A    between atoms: C_8  and  C_9
REMARK    5  A    between atoms: C_9  and  N_10
REMARK    6  A    between atoms: N_10  and  C_11
REMARK                            x       y       z     vdW  Elec       q    Type
REMARK                         _______ _______ _______ _____ _____    ______ ____
ROOT
ATOM      1  C   UNL     1      47.213   3.594  16.811  0.00  0.00    +0.000 C 
ENDROOT
BRANCH   1   2
ATOM      2  C   UNL     1      48.737   3.523  16.798  0.00  0.00    +0.000 C 
ATOM      3  C   UNL     1      49.237   2.085  17.035  0.00  0.00    +0.000 C 
ATOM      4  C   UNL     1      50.760   2.022  17.074  0.00  0.00    +0.000 C 
ATOM      5  C   UNL     1      51.339   2.984  18.122  0.00  0.00    +0.000 C 
ATOM      6  C   UNL     1      50.836   4.413  17.875  0.00  0.00    +0.000 C 
ATOM      7  C   UNL     1      49.314   4.476  17.849  0.00  0.00    +0.000 C 
BRANCH   5   8
ATOM      8  C   UNL     1      52.875   2.921  18.110  0.00  0.00    +0.000 C 
BRANCH   8   9
ATOM      9  N   UNL     1      53.339   1.759  18.866  0.00  0.00    +0.000 NA
ATOM     10  H   UNL     1      52.670   0.996  18.771  0.00  0.00    +0.000 HD
BRANCH   9  11
ATOM     11  C   UNL     1      54.694   1.318  18.515  0.00  0.00    +0.000 C 
ATOM     12  C   UNL     1      54.908   1.084  17.012  0.00  0.00    +0.000 C 
ATOM     13  C   UNL     1      54.128  -0.129  16.511  0.00  0.00    +0.000 C 
ATOM     14  N   UNL     1      54.505  -1.343  17.238  0.00  0.00    +0.000 NA
ATOM     15  C   UNL     1      54.264  -1.192  18.677  0.00  0.00    +0.000 C 
ATOM     16  C   UNL     1      55.007   0.010  19.264  0.00  0.00    +0.000 C 
ATOM     17  H   UNL     1      55.499  -1.520  17.090  0.00  0.00    +0.000 HD
ENDBRANCH   9  11
ENDBRANCH   8   9
ENDBRANCH   5   8
ENDBRANCH   1   2
BRANCH   1  20
ATOM     18  O   UNL     1      47.196   3.135  13.989  0.00  0.00    +0.000 OA
ATOM     19  C   UNL     1      46.810   4.207  14.441  0.00  0.00    +0.000 C 
ATOM     20  N   UNL     1      46.728   4.477  15.780  0.00  0.00    +0.000 N 
ATOM     21  H   UNL     1      46.397   5.382  16.087  0.00  0.00    +0.000 HD
BRANCH  19  22
ATOM     22  C   UNL     1      46.344   5.293  13.577  0.00  0.00    +0.000 A 
ATOM     23  C   UNL     1      47.138   6.402  13.329  0.00  0.00    +0.000 A 
ATOM     24  S   UNL     1      46.413   7.520  12.258  0.00  0.00    +0.000 S 
ATOM     25  C   UNL     1      45.006   6.569  12.124  0.00  0.00    +0.000 A 
ATOM     26  N   UNL     1      43.963   6.955  11.337  0.00  0.00    +0.000 NA
ATOM     27  C   UNL     1      42.961   6.141  11.340  0.00  0.00    +0.000 A 
ATOM     28  N   UNL     1      42.899   4.976  12.065  0.00  0.00    +0.000 N 
ATOM     29  C   UNL     1      43.918   4.553  12.880  0.00  0.00    +0.000 A 
ATOM     30  O   UNL     1      43.824   3.502  13.501  0.00  0.00    +0.000 OA
ATOM     31  C   UNL     1      45.083   5.422  12.888  0.00  0.00    +0.000 A 
ATOM     32  H   UNL     1      42.088   4.380  12.024  0.00  0.00    +0.000 HD
ENDBRANCH  19  22
ENDBRANCH   1  20
TORSDOF 6
ENDMDL
MODEL 6
REMARK VINA RESULT:    -6.972      2.049      2.784
REMARK INTER + INTRA:         -10.379
REMARK INTER:                  -9.651
REMARK INTRA:                  -0.727
REMARK UNBOUND:                -0.961
REMARK  Name = 
REMARK  6 active torsions:
REMARK  status: ('A' for Active; 'I' for Inactive)
REMARK    1  A    between atoms: C_2  and  C_19
REMARK    2  A    between atoms: N_3  and  C_4
REMARK    3  A    between atoms: C_4  and  C_5
REMARK    4  A    between atoms: C_8  and  C_9
REMARK    5  A    between atoms: C_9  and  N_10
REMARK    6  A    between atoms: N_10  and  C_11
REMARK                            x       y       z     vdW  Elec       q    Type
REMARK                         _______ _______ _______ _____ _____    ______ ____
ROOT
ATOM      1  C   UNL     1      46.034   4.411  14.826  0.00  0.00    +0.000 C 
ENDROOT
BRANCH   1   2
ATOM      2  C   UNL     1      46.220   4.555  13.318  0.00  0.00    +0.000 C 
ATOM      3  C   UNL     1      46.230   6.035  12.889  0.00  0.00    +0.000 C 
ATOM      4  C   UNL     1      46.364   6.177  11.377  0.00  0.00    +0.000 C 
ATOM      5  C   UNL     1      45.268   5.397  10.635  0.00  0.00    +0.000 C 
ATOM      6  C   UNL     1      45.269   3.925  11.070  0.00  0.00    +0.000 C 
ATOM      7  C   UNL     1      45.122   3.785  12.580  0.00  0.00    +0.000 C 
BRANCH   5   8
ATOM      8  C   UNL     1      45.454   5.533   9.115  0.00  0.00    +0.000 C 
BRANCH   8   9
ATOM      9  N   UNL     1      46.273   4.435   8.606  0.00  0.00    +0.000 NA
ATOM     10  H   UNL     1      46.539   3.818   9.373  0.00  0.00    +0.000 HD
BRANCH   9  11
ATOM     11  C   UNL     1      45.649   3.680   7.513  0.00  0.00    +0.000 C 
ATOM     12  C   UNL     1      44.999   2.360   7.954  0.00  0.00    +0.000 C 
ATOM     13  C   UNL     1      46.041   1.332   8.388  0.00  0.00    +0.000 C 
ATOM     14  N   UNL     1      46.995   1.054   7.312  0.00  0.00    +0.000 NA
ATOM     15  C   UNL     1      47.689   2.276   6.894  0.00  0.00    +0.000 C 
ATOM     16  C   UNL     1      46.715   3.368   6.445  0.00  0.00    +0.000 C 
ATOM     17  H   UNL     1      46.488   0.675   6.512  0.00  0.00    +0.000 HD
ENDBRANCH   9  11
ENDBRANCH   8   9
ENDBRANCH   5   8
ENDBRANCH   1   2
BRANCH   1  20
ATOM     18  O   UNL     1      46.743   3.263  17.346  0.00  0.00    +0.000 OA
ATOM     19  C   UNL     1      47.538   3.985  16.752  0.00  0.00    +0.000 C 
ATOM     20  N   UNL     1      47.295   4.517  15.515  0.00  0.00    +0.000 N 
ATOM     21  H   UNL     1      47.995   5.103  15.078  0.00  0.00    +0.000 HD
BRANCH  19  22
ATOM     22  C   UNL     1      48.858   4.303  17.298  0.00  0.00    +0.000 A 
ATOM     23  C   UNL     1      49.135   5.558  17.817  0.00  0.00    +0.000 A 
ATOM     24  S   UNL     1      50.722   5.691  18.439  0.00  0.00    +0.000 S 
ATOM     25  C   UNL     1      51.092   4.088  18.001  0.00  0.00    +0.000 A 
ATOM     26  N   UNL     1      52.316   3.547  18.259  0.00  0.00    +0.000 NA
ATOM     27  C   UNL     1      52.456   2.327  17.861  0.00  0.00    +0.000 A 
ATOM     28  N   UNL     1      51.486   1.594  17.222  0.00  0.00    +0.000 N 
ATOM     29  C   UNL     1      50.245   2.099  16.931  0.00  0.00    +0.000 A 
ATOM     30  O   UNL     1      49.407   1.406  16.366  0.00  0.00    +0.000 OA
ATOM     31  C   UNL     1      50.027   3.462  17.384  0.00  0.00    +0.000 A 
ATOM     32  H   UNL     1      51.656   0.642  16.937  0.00  0.00    +0.000 HD
ENDBRANCH  19  22
ENDBRANCH   1  20
TORSDOF 6
ENDMDL
MODEL 7
REMARK VINA RESULT:    -6.751      2.872      8.488
REMARK INTER + INTRA:         -10.080
REMARK INTER:                  -8.909
REMARK INTRA:                  -1.172
REMARK UNBOUND:                -0.961
REMARK  Name = 
REMARK  6 active torsions:
REMARK  status: ('A' for Active; 'I' for Inactive)
REMARK    1  A    between atoms: C_2  and  C_19
REMARK    2  A    between atoms: N_3  and  C_4
REMARK    3  A    between atoms: C_4  and  C_5
REMARK    4  A    between atoms: C_8  and  C_9
REMARK    5  A    between atoms: C_9  and  N_10
REMARK    6  A    between atoms: N_10  and  C_11
REMARK                            x       y       z     vdW  Elec       q    Type
REMARK                         _______ _______ _______ _____ _____    ______ ____
ROOT
ATOM      1  C   UNL     1      47.496   8.067  11.897  0.00  0.00    +0.000 C 
ENDROOT
BRANCH   1   2
ATOM      2  C   UNL     1      48.329   8.012  13.175  0.00  0.00    +0.000 C 
ATOM      3  C   UNL     1      48.141   6.672  13.913  0.00  0.00    +0.000 C 
ATOM      4  C   UNL     1      48.933   6.637  15.216  0.00  0.00    +0.000 C 
ATOM      5  C   UNL     1      48.576   7.821  16.127  0.00  0.00    +0.000 C 
ATOM      6  C   UNL     1      48.768   9.149  15.382  0.00  0.00    +0.000 C 
ATOM      7  C   UNL     1      47.966   9.187  14.087  0.00  0.00    +0.000 C 
BRANCH   5   8
ATOM      8  C   UNL     1      49.415   7.774  17.414  0.00  0.00    +0.000 C 
BRANCH   8   9
ATOM      9  N   UNL     1      49.816   6.399  17.706  0.00  0.00    +0.000 NA
ATOM     10  H   UNL     1      50.832   6.327  17.708  0.00  0.00    +0.000 HD
BRANCH   9  11
ATOM     11  C   UNL     1      49.246   5.860  18.947  0.00  0.00    +0.000 C 
ATOM     12  C   UNL     1      49.701   4.430  19.276  0.00  0.00    +0.000 C 
ATOM     13  C   UNL     1      49.130   3.413  18.292  0.00  0.00    +0.000 C 
ATOM     14  N   UNL     1      47.666   3.452  18.274  0.00  0.00    +0.000 NA
ATOM     15  C   UNL     1      47.179   4.785  17.906  0.00  0.00    +0.000 C 
ATOM     16  C   UNL     1      47.710   5.873  18.842  0.00  0.00    +0.000 C 
ATOM     17  H   UNL     1      47.319   3.223  19.207  0.00  0.00    +0.000 HD
ENDBRANCH   9  11
ENDBRANCH   8   9
ENDBRANCH   5   8
ENDBRANCH   1   2
BRANCH   1  20
ATOM     18  O   UNL     1      44.689   7.808  11.426  0.00  0.00    +0.000 OA
ATOM     19  C   UNL     1      45.387   6.808  11.554  0.00  0.00    +0.000 C 
ATOM     20  N   UNL     1      46.745   6.850  11.717  0.00  0.00    +0.000 N 
ATOM     21  H   UNL     1      47.263   5.987  11.814  0.00  0.00    +0.000 HD
BRANCH  19  22
ATOM     22  C   UNL     1      44.829   5.456  11.490  0.00  0.00    +0.000 A 
ATOM     23  C   UNL     1      44.132   4.917  12.560  0.00  0.00    +0.000 A 
ATOM     24  S   UNL     1      43.532   3.347  12.247  0.00  0.00    +0.000 S 
ATOM     25  C   UNL     1      44.218   3.331  10.689  0.00  0.00    +0.000 A 
ATOM     26  N   UNL     1      44.073   2.258   9.862  0.00  0.00    +0.000 NA
ATOM     27  C   UNL     1      44.655   2.383   8.716  0.00  0.00    +0.000 A 
ATOM     28  N   UNL     1      45.377   3.482   8.318  0.00  0.00    +0.000 N 
ATOM     29  C   UNL     1      45.559   4.580   9.120  0.00  0.00    +0.000 A 
ATOM     30  O   UNL     1      46.203   5.543   8.721  0.00  0.00    +0.000 OA
ATOM     31  C   UNL     1      44.898   4.500  10.412  0.00  0.00    +0.000 A 
ATOM     32  H   UNL     1      45.806   3.521   7.408  0.00  0.00    +0.000 HD
ENDBRANCH  19  22
ENDBRANCH   1  20
TORSDOF 6
ENDMDL
MODEL 8
REMARK VINA RESULT:    -6.527      4.307      8.983
REMARK INTER + INTRA:          -9.777
REMARK INTER:                  -8.713
REMARK INTRA:                  -1.064
REMARK UNBOUND:                -0.961
REMARK  Name = 
REMARK  6 active torsions:
REMARK  status: ('A' for Active; 'I' for Inactive)
REMARK    1  A    between atoms: C_2  and  C_19
REMARK    2  A    between atoms: N_3  and  C_4
REMARK    3  A    between atoms: C_4  and  C_5
REMARK    4  A    between atoms: C_8  and  C_9
REMARK    5  A    between atoms: C_9  and  N_10
REMARK    6  A    between atoms: N_10  and  C_11
REMARK                            x       y       z     vdW  Elec       q    Type
REMARK                         _______ _______ _______ _____ _____    ______ ____
ROOT
ATOM      1  C   UNL     1      47.354   3.713  16.774  0.00  0.00    +0.000 C 
ENDROOT
BRANCH   1   2
ATOM      2  C   UNL     1      48.873   3.564  16.763  0.00  0.00    +0.000 C 
ATOM      3  C   UNL     1      49.301   2.133  17.144  0.00  0.00    +0.000 C 
ATOM      4  C   UNL     1      50.819   1.997  17.184  0.00  0.00    +0.000 C 
ATOM      5  C   UNL     1      51.455   3.030  18.126  0.00  0.00    +0.000 C 
ATOM      6  C   UNL     1      51.023   4.450  17.735  0.00  0.00    +0.000 C 
ATOM      7  C   UNL     1      49.506   4.588  17.709  0.00  0.00    +0.000 C 
BRANCH   5   8
ATOM      8  C   UNL     1      52.986   2.888  18.115  0.00  0.00    +0.000 C 
BRANCH   8   9
ATOM      9  N   UNL     1      53.383   1.656  18.794  0.00  0.00    +0.000 NA
ATOM     10  H   UNL     1      52.697   0.924  18.613  0.00  0.00    +0.000 HD
BRANCH   9  11
ATOM     11  C   UNL     1      54.739   1.200  18.463  0.00  0.00    +0.000 C 
ATOM     12  C   UNL     1      54.976   0.976  16.962  0.00  0.00    +0.000 C 
ATOM     13  C   UNL     1      54.190  -0.222  16.437  0.00  0.00    +0.000 C 
ATOM     14  N   UNL     1      54.538  -1.447  17.160  0.00  0.00    +0.000 NA
ATOM     15  C   UNL     1      54.273  -1.305  18.596  0.00  0.00    +0.000 C 
ATOM     16  C   UNL     1      55.022  -0.119  19.207  0.00  0.00    +0.000 C 
ATOM     17  H   UNL     1      55.532  -1.636  17.028  0.00  0.00    +0.000 HD
ENDBRANCH   9  11
ENDBRANCH   8   9
ENDBRANCH   5   8
ENDBRANCH   1   2
BRANCH   1  20
ATOM     18  O   UNL     1      47.183   3.222  13.963  0.00  0.00    +0.000 OA
ATOM     19  C   UNL     1      46.921   4.333  14.411  0.00  0.00    +0.000 C 
ATOM     20  N   UNL     1      46.917   4.627  15.748  0.00  0.00    +0.000 N 
ATOM     21  H   UNL     1      46.688   5.563  16.052  0.00  0.00    +0.000 HD
BRANCH  19  22
ATOM     22  C   UNL     1      46.529   5.448  13.547  0.00  0.00    +0.000 A 
ATOM     23  C   UNL     1      45.357   5.406  12.811  0.00  0.00    +0.000 A 
ATOM     24  S   UNL     1      45.078   6.832  11.910  0.00  0.00    +0.000 S 
ATOM     25  C   UNL     1      46.534   7.529  12.453  0.00  0.00    +0.000 A 
ATOM     26  N   UNL     1      46.913   8.777  12.057  0.00  0.00    +0.000 NA
ATOM     27  C   UNL     1      48.044   9.171  12.539  0.00  0.00    +0.000 A 
ATOM     28  N   UNL     1      48.840   8.430  13.378  0.00  0.00    +0.000 N 
ATOM     29  C   UNL     1      48.506   7.165  13.794  0.00  0.00    +0.000 A 
ATOM     30  O   UNL     1      49.242   6.544  14.550  0.00  0.00    +0.000 OA
ATOM     31  C   UNL     1      47.226   6.687  13.300  0.00  0.00    +0.000 A 
ATOM     32  H   UNL     1      49.713   8.794  13.724  0.00  0.00    +0.000 HD
ENDBRANCH  19  22
ENDBRANCH   1  20
TORSDOF 6
ENDMDL
MODEL 9
REMARK VINA RESULT:    -6.456      3.153      4.544
REMARK INTER + INTRA:          -9.682
REMARK INTER:                  -8.654
REMARK INTRA:                  -1.027
REMARK UNBOUND:                -0.961
REMARK  Name = 
REMARK  6 active torsions:
REMARK  status: ('A' for Active; 'I' for Inactive)
REMARK    1  A    between atoms: C_2  and  C_19
REMARK    2  A    between atoms: N_3  and  C_4
REMARK    3  A    between atoms: C_4  and  C_5
REMARK    4  A    between atoms: C_8  and  C_9
REMARK    5  A    between atoms: C_9  and  N_10
REMARK    6  A    between atoms: N_10  and  C_11
REMARK                            x       y       z     vdW  Elec       q    Type
REMARK                         _______ _______ _______ _____ _____    ______ ____
ROOT
ATOM      1  C   UNL     1      49.857   8.281  13.656  0.00  0.00    +0.000 C 
ENDROOT
BRANCH   1   2
ATOM      2  C   UNL     1      48.601   8.178  12.794  0.00  0.00    +0.000 C 
ATOM      3  C   UNL     1      47.415   8.924  13.435  0.00  0.00    +0.000 C 
ATOM      4  C   UNL     1      46.147   8.779  12.600  0.00  0.00    +0.000 C 
ATOM      5  C   UNL     1      45.799   7.304  12.352  0.00  0.00    +0.000 C 
ATOM      6  C   UNL     1      46.987   6.572  11.713  0.00  0.00    +0.000 C 
ATOM      7  C   UNL     1      48.249   6.708  12.555  0.00  0.00    +0.000 C 
BRANCH   5   8
ATOM      8  C   UNL     1      44.538   7.194  11.480  0.00  0.00    +0.000 C 
BRANCH   8   9
ATOM      9  N   UNL     1      44.612   6.005  10.633  0.00  0.00    +0.000 NA
ATOM     10  H   UNL     1      45.450   5.471  10.859  0.00  0.00    +0.000 HD
BRANCH   9  11
ATOM     11  C   UNL     1      43.415   5.157  10.686  0.00  0.00    +0.000 C 
ATOM     12  C   UNL     1      42.617   5.280  11.992  0.00  0.00    +0.000 C 
ATOM     13  C   UNL     1      43.377   4.692  13.179  0.00  0.00    +0.000 C 
ATOM     14  N   UNL     1      43.706   3.282  12.955  0.00  0.00    +0.000 NA
ATOM     15  C   UNL     1      44.520   3.116  11.747  0.00  0.00    +0.000 C 
ATOM     16  C   UNL     1      43.833   3.685  10.504  0.00  0.00    +0.000 C 
ATOM     17  H   UNL     1      42.838   2.756  12.840  0.00  0.00    +0.000 HD
ENDBRANCH   9  11
ENDBRANCH   8   9
ENDBRANCH   5   8
ENDBRANCH   1   2
BRANCH   1  20
ATOM     18  O   UNL     1      49.134   8.268  16.422  0.00  0.00    +0.000 OA
ATOM     19  C   UNL     1      49.629   7.269  15.910  0.00  0.00    +0.000 C 
ATOM     20  N   UNL     1      49.940   7.178  14.581  0.00  0.00    +0.000 N 
ATOM     21  H   UNL     1      50.343   6.323  14.220  0.00  0.00    +0.000 HD
BRANCH  19  22
ATOM     22  C   UNL     1      49.885   6.048  16.675  0.00  0.00    +0.000 A 
ATOM     23  C   UNL     1      48.843   5.276  17.162  0.00  0.00    +0.000 A 
ATOM     24  S   UNL     1      49.373   3.875  17.986  0.00  0.00    +0.000 S 
ATOM     25  C   UNL     1      51.009   4.280  17.744  0.00  0.00    +0.000 A 
ATOM     26  N   UNL     1      52.013   3.482  18.204  0.00  0.00    +0.000 NA
ATOM     27  C   UNL     1      53.202   3.920  17.957  0.00  0.00    +0.000 A 
ATOM     28  N   UNL     1      53.484   5.090  17.295  0.00  0.00    +0.000 N 
ATOM     29  C   UNL     1      52.508   5.932  16.825  0.00  0.00    +0.000 A 
ATOM     30  O   UNL     1      52.806   6.962  16.232  0.00  0.00    +0.000 OA
ATOM     31  C   UNL     1      51.150   5.467  17.054  0.00  0.00    +0.000 A 
ATOM     32  H   UNL     1      54.435   5.378  17.130  0.00  0.00    +0.000 HD
ENDBRANCH  19  22
ENDBRANCH   1  20
TORSDOF 6
ENDMDL
