MODEL 1
REMARK VINA RESULT:    -7.840      0.000      0.000
REMARK INTER + INTRA:         -11.258
REMARK INTER:                 -10.819
REMARK INTRA:                  -0.440
REMARK UNBOUND:                -0.440
REMARK  Name = 
REMARK  7 active torsions:
REMARK  status: ('A' for Active; 'I' for Inactive)
REMARK    1  A    between atoms: N_1  and  C_2
REMARK    2  A    between atoms: C_2  and  C_3
REMARK    3  A    between atoms: C_7  and  C_8
REMARK    4  A    between atoms: C_8  and  C_9
REMARK    5  A    between atoms: C_9  and  N_10
REMARK    6  A    between atoms: N_10  and  C_11
REMARK    7  A    between atoms: C_14  and  C_15
REMARK                            x       y       z     vdW  Elec       q    Type
REMARK                         _______ _______ _______ _____ _____    ______ ____
ROOT
ATOM      1  N   UNL     1      43.860   5.093   9.771  0.00  0.00    +0.000 N 
ATOM      2  H   UNL     1      43.690   5.823   9.082  0.00  0.00    +0.000 HD
ENDROOT
BRANCH   1   3
ATOM      3  C   UNL     1      44.628   4.069   9.171  0.00  0.00    +0.000 A 
ATOM      4  N   UNL     1      45.415   4.395   8.118  0.00  0.00    +0.000 NA
ATOM      5  C   UNL     1      46.175   3.433   7.547  0.00  0.00    +0.000 A 
ATOM      6  C   UNL     1      46.219   2.121   7.979  0.00  0.00    +0.000 A 
ATOM      7  C   UNL     1      45.423   1.784   9.077  0.00  0.00    +0.000 A 
ATOM      8  C   UNL     1      44.619   2.759   9.676  0.00  0.00    +0.000 A 
ATOM      9 CL   UNL     1      43.631   2.305  11.018  0.00  0.00    +0.000 Cl
BRANCH   6  10
ATOM     10  C   UNL     1      47.058   1.088   7.331  0.00  0.00    +0.000 C 
ATOM     11  N   UNL     1      46.830  -0.230   7.614  0.00  0.00    +0.000 N 
ATOM     12  O   UNL     1      47.954   1.402   6.554  0.00  0.00    +0.000 OA
ATOM     13  H   UNL     1      46.147  -0.600   8.257  0.00  0.00    +0.000 HD
ATOM     14  H   UNL     1      47.437  -0.902   7.160  0.00  0.00    +0.000 HD
ENDBRANCH   6  10
ENDBRANCH   1   3
BRANCH   1  15
ATOM     15  C   UNL     1      44.453   5.588  11.018  0.00  0.00    +0.000 C 
BRANCH  15  16
ATOM     16  C   UNL     1      45.707   6.428  10.764  0.00  0.00    +0.000 C 
BRANCH  16  21
ATOM     17  C   UNL     1      47.254   5.524  14.148  0.00  0.00    +0.000 A 
ATOM     18  C   UNL     1      48.223   6.530  14.269  0.00  0.00    +0.000 A 
ATOM     19  C   UNL     1      48.353   7.513  13.289  0.00  0.00    +0.000 A 
ATOM     20  C   UNL     1      47.523   7.500  12.168  0.00  0.00    +0.000 A 
ATOM     21  C   UNL     1      46.547   6.506  12.021  0.00  0.00    +0.000 A 
ATOM     22  C   UNL     1      46.420   5.524  13.019  0.00  0.00    +0.000 A 
BRANCH  17  23
ATOM     23  C   UNL     1      47.155   4.425  15.177  0.00  0.00    +0.000 C 
BRANCH  23  24
ATOM     24  N   UNL     1      47.498   3.119  14.625  0.00  0.00    +0.000 NA
ATOM     25  H   UNL     1      48.511   3.034  14.583  0.00  0.00    +0.000 HD
ATOM     26  H   UNL     1      47.164   3.076  13.663  0.00  0.00    +0.000 HD
ENDBRANCH  23  24
ENDBRANCH  17  23
ENDBRANCH  16  21
ENDBRANCH  15  16
ENDBRANCH   1  15
TORSDOF 7
ENDMDL
MODEL 2
REMARK VINA RESULT:    -7.638      2.859      6.592
REMARK INTER + INTRA:         -10.980
REMARK INTER:                 -10.130
REMARK INTRA:                  -0.850
REMARK UNBOUND:                -0.440
REMARK  Name = 
REMARK  7 active torsions:
REMARK  status: ('A' for Active; 'I' for Inactive)
REMARK    1  A    between atoms: N_1  and  C_2
REMARK    2  A    between atoms: C_2  and  C_3
REMARK    3  A    between atoms: C_7  and  C_8
REMARK    4  A    between atoms: C_8  and  C_9
REMARK    5  A    between atoms: C_9  and  N_10
REMARK    6  A    between atoms: N_10  and  C_11
REMARK    7  A    between atoms: C_14  and  C_15
REMARK                            x       y       z     vdW  Elec       q    Type
REMARK                         _______ _______ _______ _____ _____    ______ ____
ROOT
ATOM      1  N   UNL     1      43.915   3.465  12.869  0.00  0.00    +0.000 N 
ATOM      2  H   UNL     1      43.842   3.065  13.803  0.00  0.00    +0.000 HD
ENDROOT
BRANCH   1   3
ATOM      3  C   UNL     1      44.652   4.669  12.946  0.00  0.00    +0.000 A 
ATOM      4  N   UNL     1      45.852   4.645  13.571  0.00  0.00    +0.000 NA
ATOM      5  C   UNL     1      46.581   5.783  13.632  0.00  0.00    +0.000 A 
ATOM      6  C   UNL     1      46.188   6.986  13.078  0.00  0.00    +0.000 A 
ATOM      7  C   UNL     1      44.957   7.012  12.416  0.00  0.00    +0.000 A 
ATOM      8  C   UNL     1      44.181   5.851  12.350  0.00  0.00    +0.000 A 
ATOM      9 CL   UNL     1      42.656   5.921  11.543  0.00  0.00    +0.000 Cl
BRANCH   6  10
ATOM     10  C   UNL     1      47.005   8.218  13.164  0.00  0.00    +0.000 C 
ATOM     11  N   UNL     1      47.098   8.875  14.359  0.00  0.00    +0.000 N 
ATOM     12  O   UNL     1      47.591   8.653  12.178  0.00  0.00    +0.000 OA
ATOM     13  H   UNL     1      46.637   8.627  15.221  0.00  0.00    +0.000 HD
ATOM     14  H   UNL     1      47.656   9.720  14.368  0.00  0.00    +0.000 HD
ENDBRANCH   6  10
ENDBRANCH   1   3
BRANCH   1  15
ATOM     15  C   UNL     1      44.454   2.534  11.871  0.00  0.00    +0.000 C 
BRANCH  15  16
ATOM     16  C   UNL     1      43.809   2.730  10.496  0.00  0.00    +0.000 C 
BRANCH  16  21
ATOM     17  C   UNL     1      46.472   2.148   7.807  0.00  0.00    +0.000 A 
ATOM     18  C   UNL     1      46.713   3.464   7.390  0.00  0.00    +0.000 A 
ATOM     19  C   UNL     1      46.053   4.534   7.994  0.00  0.00    +0.000 A 
ATOM     20  C   UNL     1      45.134   4.302   9.017  0.00  0.00    +0.000 A 
ATOM     21  C   UNL     1      44.873   2.997   9.454  0.00  0.00    +0.000 A 
ATOM     22  C   UNL     1      45.550   1.928   8.843  0.00  0.00    +0.000 A 
BRANCH  17  23
ATOM     23  C   UNL     1      47.141   0.987   7.112  0.00  0.00    +0.000 C 
BRANCH  23  24
ATOM     24  N   UNL     1      46.826  -0.289   7.744  0.00  0.00    +0.000 NA
ATOM     25  H   UNL     1      47.679  -0.837   7.827  0.00  0.00    +0.000 HD
ATOM     26  H   UNL     1      46.206  -0.813   7.126  0.00  0.00    +0.000 HD
ENDBRANCH  23  24
ENDBRANCH  17  23
ENDBRANCH  16  21
ENDBRANCH  15  16
ENDBRANCH   1  15
TORSDOF 7
ENDMDL
MODEL 3
REMARK VINA RESULT:    -7.415      1.936      2.348
REMARK INTER + INTRA:         -10.673
REMARK INTER:                 -10.212
REMARK INTRA:                  -0.461
REMARK UNBOUND:                -0.440
REMARK  Name = 
REMARK  7 active torsions:
REMARK  status: ('A' for Active; 'I' for Inactive)
REMARK    1  A    between atoms: N_1  and  C_2
REMARK    2  A    between atoms: C_2  and  C_3
REMARK    3  A    between atoms: C_7  and  C_8
REMARK    4  A    between atoms: C_8  and  C_9
REMARK    5  A    between atoms: C_9  and  N_10
REMARK    6  A    between atoms: N_10  and  C_11
REMARK    7  A    between atoms: C_14  and  C_15
REMARK                            x       y       z     vdW  Elec       q    Type
REMARK                         _______ _______ _______ _____ _____    ______ ____
ROOT
ATOM      1  N   UNL     1      44.117   5.107   9.895  0.00  0.00    +0.000 N 
ATOM      2  H   UNL     1      43.868   5.894   9.299  0.00  0.00    +0.000 HD
ENDROOT
BRANCH   1   3
ATOM      3  C   UNL     1      44.906   4.202   9.148  0.00  0.00    +0.000 A 
ATOM      4  N   UNL     1      45.727   4.705   8.197  0.00  0.00    +0.000 NA
ATOM      5  C   UNL     1      46.507   3.855   7.490  0.00  0.00    +0.000 A 
ATOM      6  C   UNL     1      46.537   2.488   7.683  0.00  0.00    +0.000 A 
ATOM      7  C   UNL     1      45.704   1.965   8.677  0.00  0.00    +0.000 A 
ATOM      8  C   UNL     1      44.880   2.823   9.413  0.00  0.00    +0.000 A 
ATOM      9 CL   UNL     1      43.848   2.144  10.619  0.00  0.00    +0.000 Cl
BRANCH   6  10
ATOM     10  C   UNL     1      47.398   1.581   6.891  0.00  0.00    +0.000 C 
ATOM     11  N   UNL     1      48.433   2.106   6.168  0.00  0.00    +0.000 N 
ATOM     12  O   UNL     1      47.189   0.372   6.873  0.00  0.00    +0.000 OA
ATOM     13  H   UNL     1      48.677   3.080   6.084  0.00  0.00    +0.000 HD
ATOM     14  H   UNL     1      48.987   1.450   5.630  0.00  0.00    +0.000 HD
ENDBRANCH   6  10
ENDBRANCH   1   3
BRANCH   1  15
ATOM     15  C   UNL     1      44.752   5.502  11.157  0.00  0.00    +0.000 C 
BRANCH  15  16
ATOM     16  C   UNL     1      44.253   6.864  11.649  0.00  0.00    +0.000 C 
BRANCH  16  21
ATOM     17  C   UNL     1      47.838   8.169  11.980  0.00  0.00    +0.000 A 
ATOM     18  C   UNL     1      47.608   9.551  12.040  0.00  0.00    +0.000 A 
ATOM     19  C   UNL     1      46.308  10.057  12.011  0.00  0.00    +0.000 A 
ATOM     20  C   UNL     1      45.220   9.190  11.913  0.00  0.00    +0.000 A 
ATOM     21  C   UNL     1      45.421   7.806  11.852  0.00  0.00    +0.000 A 
ATOM     22  C   UNL     1      46.734   7.306  11.888  0.00  0.00    +0.000 A 
BRANCH  17  23
ATOM     23  C   UNL     1      49.244   7.626  11.949  0.00  0.00    +0.000 C 
BRANCH  23  24
ATOM     24  N   UNL     1      49.475   6.629  12.988  0.00  0.00    +0.000 NA
ATOM     25  H   UNL     1      50.430   6.717  13.326  0.00  0.00    +0.000 HD
ATOM     26  H   UNL     1      49.401   5.701  12.570  0.00  0.00    +0.000 HD
ENDBRANCH  23  24
ENDBRANCH  17  23
ENDBRANCH  16  21
ENDBRANCH  15  16
ENDBRANCH   1  15
TORSDOF 7
ENDMDL
MODEL 4
REMARK VINA RESULT:    -7.309      1.570      2.063
REMARK INTER + INTRA:         -10.526
REMARK INTER:                 -10.114
REMARK INTRA:                  -0.412
REMARK UNBOUND:                -0.440
REMARK  Name = 
REMARK  7 active torsions:
REMARK  status: ('A' for Active; 'I' for Inactive)
REMARK    1  A    between atoms: N_1  and  C_2
REMARK    2  A    between atoms: C_2  and  C_3
REMARK    3  A    between atoms: C_7  and  C_8
REMARK    4  A    between atoms: C_8  and  C_9
REMARK    5  A    between atoms: C_9  and  N_10
REMARK    6  A    between atoms: N_10  and  C_11
REMARK    7  A    between atoms: C_14  and  C_15
REMARK                            x       y       z     vdW  Elec       q    Type
REMARK                         _______ _______ _______ _____ _____    ______ ____
ROOT
ATOM      1  N   UNL     1      43.748   5.174   9.847  0.00  0.00    +0.000 N 
ATOM      2  H   UNL     1      43.590   5.914   9.166  0.00  0.00    +0.000 HD
ENDROOT
BRANCH   1   3
ATOM      3  C   UNL     1      44.542   4.169   9.249  0.00  0.00    +0.000 A 
ATOM      4  N   UNL     1      45.332   4.514   8.206  0.00  0.00    +0.000 NA
ATOM      5  C   UNL     1      46.117   3.570   7.639  0.00  0.00    +0.000 A 
ATOM      6  C   UNL     1      46.184   2.258   8.065  0.00  0.00    +0.000 A 
ATOM      7  C   UNL     1      45.384   1.900   9.155  0.00  0.00    +0.000 A 
ATOM      8  C   UNL     1      44.555   2.856   9.750  0.00  0.00    +0.000 A 
ATOM      9 CL   UNL     1      43.564   2.377  11.081  0.00  0.00    +0.000 Cl
BRANCH   6  10
ATOM     10  C   UNL     1      47.050   1.244   7.422  0.00  0.00    +0.000 C 
ATOM     11  N   UNL     1      48.047   1.655   6.582  0.00  0.00    +0.000 N 
ATOM     12  O   UNL     1      46.878   0.048   7.630  0.00  0.00    +0.000 OA
ATOM     13  H   UNL     1      48.259   2.604   6.316  0.00  0.00    +0.000 HD
ATOM     14  H   UNL     1      48.606   0.927   6.154  0.00  0.00    +0.000 HD
ENDBRANCH   6  10
ENDBRANCH   1   3
BRANCH   1  15
ATOM     15  C   UNL     1      44.301   5.652  11.118  0.00  0.00    +0.000 C 
BRANCH  15  16
ATOM     16  C   UNL     1      45.727   6.189  10.959  0.00  0.00    +0.000 C 
BRANCH  16  21
ATOM     17  C   UNL     1      47.832   7.062  14.035  0.00  0.00    +0.000 A 
ATOM     18  C   UNL     1      47.744   5.865  14.760  0.00  0.00    +0.000 A 
ATOM     19  C   UNL     1      47.044   4.773  14.246  0.00  0.00    +0.000 A 
ATOM     20  C   UNL     1      46.414   4.865  13.005  0.00  0.00    +0.000 A 
ATOM     21  C   UNL     1      46.486   6.048  12.260  0.00  0.00    +0.000 A 
ATOM     22  C   UNL     1      47.200   7.140  12.784  0.00  0.00    +0.000 A 
BRANCH  17  23
ATOM     23  C   UNL     1      48.536   8.262  14.618  0.00  0.00    +0.000 C 
BRANCH  23  24
ATOM     24  N   UNL     1      47.679   9.018  15.525  0.00  0.00    +0.000 NA
ATOM     25  H   UNL     1      47.993   8.865  16.481  0.00  0.00    +0.000 HD
ATOM     26  H   UNL     1      46.734   8.640  15.468  0.00  0.00    +0.000 HD
ENDBRANCH  23  24
ENDBRANCH  17  23
ENDBRANCH  16  21
ENDBRANCH  15  16
ENDBRANCH   1  15
TORSDOF 7
ENDMDL
MODEL 5
REMARK VINA RESULT:    -7.285      2.912      6.963
REMARK INTER + INTRA:         -10.493
REMARK INTER:                  -9.920
REMARK INTRA:                  -0.573
REMARK UNBOUND:                -0.440
REMARK  Name = 
REMARK  7 active torsions:
REMARK  status: ('A' for Active; 'I' for Inactive)
REMARK    1  A    between atoms: N_1  and  C_2
REMARK    2  A    between atoms: C_2  and  C_3
REMARK    3  A    between atoms: C_7  and  C_8
REMARK    4  A    between atoms: C_8  and  C_9
REMARK    5  A    between atoms: C_9  and  N_10
REMARK    6  A    between atoms: N_10  and  C_11
REMARK    7  A    between atoms: C_14  and  C_15
REMARK                            x       y       z     vdW  Elec       q    Type
REMARK                         _______ _______ _______ _____ _____    ______ ____
ROOT
ATOM      1  N   UNL     1      43.543   5.112  11.438  0.00  0.00    +0.000 N 
ATOM      2  H   UNL     1      42.815   4.907  12.120  0.00  0.00    +0.000 HD
ENDROOT
BRANCH   1   3
ATOM      3  C   UNL     1      44.694   5.564  12.123  0.00  0.00    +0.000 A 
ATOM      4  N   UNL     1      45.432   4.654  12.801  0.00  0.00    +0.000 NA
ATOM      5  C   UNL     1      46.550   5.065  13.441  0.00  0.00    +0.000 A 
ATOM      6  C   UNL     1      47.010   6.368  13.441  0.00  0.00    +0.000 A 
ATOM      7  C   UNL     1      46.261   7.308  12.728  0.00  0.00    +0.000 A 
ATOM      8  C   UNL     1      45.094   6.909  12.067  0.00  0.00    +0.000 A 
ATOM      9 CL   UNL     1      44.180   8.099  11.212  0.00  0.00    +0.000 Cl
BRANCH   6  10
ATOM     10  C   UNL     1      48.236   6.791  14.155  0.00  0.00    +0.000 C 
ATOM     11  N   UNL     1      48.123   7.368  15.389  0.00  0.00    +0.000 N 
ATOM     12  O   UNL     1      49.343   6.634  13.650  0.00  0.00    +0.000 OA
ATOM     13  H   UNL     1      47.269   7.573  15.884  0.00  0.00    +0.000 HD
ATOM     14  H   UNL     1      48.987   7.654  15.834  0.00  0.00    +0.000 HD
ENDBRANCH   6  10
ENDBRANCH   1   3
BRANCH   1  15
ATOM     15  C   UNL     1      43.827   3.998  10.527  0.00  0.00    +0.000 C 
BRANCH  15  16
ATOM     16  C   UNL     1      44.411   4.480   9.196  0.00  0.00    +0.000 C 
BRANCH  16  21
ATOM     17  C   UNL     1      46.630   2.577   6.723  0.00  0.00    +0.000 A 
ATOM     18  C   UNL     1      46.654   1.308   7.318  0.00  0.00    +0.000 A 
ATOM     19  C   UNL     1      45.932   1.055   8.484  0.00  0.00    +0.000 A 
ATOM     20  C   UNL     1      45.183   2.071   9.079  0.00  0.00    +0.000 A 
ATOM     21  C   UNL     1      45.142   3.349   8.506  0.00  0.00    +0.000 A 
ATOM     22  C   UNL     1      45.868   3.590   7.327  0.00  0.00    +0.000 A 
BRANCH  17  23
ATOM     23  C   UNL     1      47.460   2.867   5.497  0.00  0.00    +0.000 C 
BRANCH  23  24
ATOM     24  N   UNL     1      48.543   1.905   5.323  0.00  0.00    +0.000 NA
ATOM     25  H   UNL     1      48.964   2.042   4.408  0.00  0.00    +0.000 HD
ATOM     26  H   UNL     1      48.145   0.966   5.320  0.00  0.00    +0.000 HD
ENDBRANCH  23  24
ENDBRANCH  17  23
ENDBRANCH  16  21
ENDBRANCH  15  16
ENDBRANCH   1  15
TORSDOF 7
ENDMDL
MODEL 6
REMARK VINA RESULT:    -6.972      2.969      6.668
REMARK INTER + INTRA:         -10.060
REMARK INTER:                  -9.644
REMARK INTRA:                  -0.416
REMARK UNBOUND:                -0.440
REMARK  Name = 
REMARK  7 active torsions:
REMARK  status: ('A' for Active; 'I' for Inactive)
REMARK    1  A    between atoms: N_1  and  C_2
REMARK    2  A    between atoms: C_2  and  C_3
REMARK    3  A    between atoms: C_7  and  C_8
REMARK    4  A    between atoms: C_8  and  C_9
REMARK    5  A    between atoms: C_9  and  N_10
REMARK    6  A    between atoms: N_10  and  C_11
REMARK    7  A    between atoms: C_14  and  C_15
REMARK                            x       y       z     vdW  Elec       q    Type
REMARK                         _______ _______ _______ _____ _____    ______ ____
ROOT
ATOM      1  N   UNL     1      43.655   4.996  11.569  0.00  0.00    +0.000 N 
ATOM      2  H   UNL     1      43.252   4.668  12.445  0.00  0.00    +0.000 HD
ENDROOT
BRANCH   1   3
ATOM      3  C   UNL     1      44.893   5.621  11.843  0.00  0.00    +0.000 A 
ATOM      4  N   UNL     1      45.030   6.931  11.533  0.00  0.00    +0.000 NA
ATOM      5  C   UNL     1      46.200   7.550  11.812  0.00  0.00    +0.000 A 
ATOM      6  C   UNL     1      47.279   6.935  12.416  0.00  0.00    +0.000 A 
ATOM      7  C   UNL     1      47.136   5.586  12.755  0.00  0.00    +0.000 A 
ATOM      8  C   UNL     1      45.940   4.921  12.466  0.00  0.00    +0.000 A 
ATOM      9 CL   UNL     1      45.803   3.250  12.879  0.00  0.00    +0.000 Cl
BRANCH   6  10
ATOM     10  C   UNL     1      48.550   7.637  12.705  0.00  0.00    +0.000 C 
ATOM     11  N   UNL     1      49.734   6.991  12.484  0.00  0.00    +0.000 N 
ATOM     12  O   UNL     1      48.549   8.783  13.144  0.00  0.00    +0.000 OA
ATOM     13  H   UNL     1      49.854   6.045  12.157  0.00  0.00    +0.000 HD
ATOM     14  H   UNL     1      50.578   7.505  12.709  0.00  0.00    +0.000 HD
ENDBRANCH   6  10
ENDBRANCH   1   3
BRANCH   1  15
ATOM     15  C   UNL     1      43.762   3.953  10.544  0.00  0.00    +0.000 C 
BRANCH  15  16
ATOM     16  C   UNL     1      44.418   4.473   9.261  0.00  0.00    +0.000 C 
BRANCH  16  21
ATOM     17  C   UNL     1      46.610   2.597   6.744  0.00  0.00    +0.000 A 
ATOM     18  C   UNL     1      46.637   1.320   7.323  0.00  0.00    +0.000 A 
ATOM     19  C   UNL     1      45.926   1.055   8.493  0.00  0.00    +0.000 A 
ATOM     20  C   UNL     1      45.185   2.064   9.108  0.00  0.00    +0.000 A 
ATOM     21  C   UNL     1      45.140   3.349   8.551  0.00  0.00    +0.000 A 
ATOM     22  C   UNL     1      45.855   3.603   7.368  0.00  0.00    +0.000 A 
BRANCH  17  23
ATOM     23  C   UNL     1      47.429   2.900   5.514  0.00  0.00    +0.000 C 
BRANCH  23  24
ATOM     24  N   UNL     1      48.501   1.932   5.312  0.00  0.00    +0.000 NA
ATOM     25  H   UNL     1      48.854   1.635   6.219  0.00  0.00    +0.000 HD
ATOM     26  H   UNL     1      49.274   2.398   4.839  0.00  0.00    +0.000 HD
ENDBRANCH  23  24
ENDBRANCH  17  23
ENDBRANCH  16  21
ENDBRANCH  15  16
ENDBRANCH   1  15
TORSDOF 7
ENDMDL
MODEL 7
REMARK VINA RESULT:    -6.747      2.359      6.474
REMARK INTER + INTRA:          -9.750
REMARK INTER:                  -9.440
REMARK INTRA:                  -0.310
REMARK UNBOUND:                -0.440
REMARK  Name = 
REMARK  7 active torsions:
REMARK  status: ('A' for Active; 'I' for Inactive)
REMARK    1  A    between atoms: N_1  and  C_2
REMARK    2  A    between atoms: C_2  and  C_3
REMARK    3  A    between atoms: C_7  and  C_8
REMARK    4  A    between atoms: C_8  and  C_9
REMARK    5  A    between atoms: C_9  and  N_10
REMARK    6  A    between atoms: N_10  and  C_11
REMARK    7  A    between atoms: C_14  and  C_15
REMARK                            x       y       z     vdW  Elec       q    Type
REMARK                         _______ _______ _______ _____ _____    ______ ____
ROOT
ATOM      1  N   UNL     1      43.809   5.102  10.225  0.00  0.00    +0.000 N 
ATOM      2  H   UNL     1      42.931   4.814  10.653  0.00  0.00    +0.000 HD
ENDROOT
BRANCH   1   3
ATOM      3  C   UNL     1      44.785   5.240  11.238  0.00  0.00    +0.000 A 
ATOM      4  N   UNL     1      45.621   6.303  11.180  0.00  0.00    +0.000 NA
ATOM      5  C   UNL     1      46.544   6.463  12.155  0.00  0.00    +0.000 A 
ATOM      6  C   UNL     1      46.689   5.612  13.234  0.00  0.00    +0.000 A 
ATOM      7  C   UNL     1      45.817   4.523  13.308  0.00  0.00    +0.000 A 
ATOM      8  C   UNL     1      44.861   4.330  12.305  0.00  0.00    +0.000 A 
ATOM      9 CL   UNL     1      43.812   2.962  12.415  0.00  0.00    +0.000 Cl
BRANCH   6  10
ATOM     10  C   UNL     1      47.713   5.810  14.284  0.00  0.00    +0.000 C 
ATOM     11  N   UNL     1      47.473   5.341  15.546  0.00  0.00    +0.000 N 
ATOM     12  O   UNL     1      48.764   6.392  14.036  0.00  0.00    +0.000 OA
ATOM     13  H   UNL     1      46.638   4.879  15.869  0.00  0.00    +0.000 HD
ATOM     14  H   UNL     1      48.195   5.511  16.236  0.00  0.00    +0.000 HD
ENDBRANCH   6  10
ENDBRANCH   1   3
BRANCH   1  15
ATOM     15  C   UNL     1      44.246   4.227   9.132  0.00  0.00    +0.000 C 
BRANCH  15  16
ATOM     16  C   UNL     1      45.567   4.695   8.515  0.00  0.00    +0.000 C 
BRANCH  16  21
ATOM     17  C   UNL     1      46.659   1.161   7.524  0.00  0.00    +0.000 A 
ATOM     18  C   UNL     1      47.273   1.414   6.290  0.00  0.00    +0.000 A 
ATOM     19  C   UNL     1      47.369   2.716   5.797  0.00  0.00    +0.000 A 
ATOM     20  C   UNL     1      46.843   3.782   6.527  0.00  0.00    +0.000 A 
ATOM     21  C   UNL     1      46.224   3.558   7.763  0.00  0.00    +0.000 A 
ATOM     22  C   UNL     1      46.139   2.243   8.253  0.00  0.00    +0.000 A 
BRANCH  17  23
ATOM     23  C   UNL     1      46.500  -0.252   8.027  0.00  0.00    +0.000 C 
BRANCH  23  24
ATOM     24  N   UNL     1      46.636  -1.237   6.960  0.00  0.00    +0.000 NA
ATOM     25  H   UNL     1      47.457  -1.810   7.141  0.00  0.00    +0.000 HD
ATOM     26  H   UNL     1      46.815  -0.744   6.085  0.00  0.00    +0.000 HD
ENDBRANCH  23  24
ENDBRANCH  17  23
ENDBRANCH  16  21
ENDBRANCH  15  16
ENDBRANCH   1  15
TORSDOF 7
ENDMDL
MODEL 8
REMARK VINA RESULT:    -6.693      1.891      2.910
REMARK INTER + INTRA:          -9.676
REMARK INTER:                  -9.530
REMARK INTRA:                  -0.146
REMARK UNBOUND:                -0.440
REMARK  Name = 
REMARK  7 active torsions:
REMARK  status: ('A' for Active; 'I' for Inactive)
REMARK    1  A    between atoms: N_1  and  C_2
REMARK    2  A    between atoms: C_2  and  C_3
REMARK    3  A    between atoms: C_7  and  C_8
REMARK    4  A    between atoms: C_8  and  C_9
REMARK    5  A    between atoms: C_9  and  N_10
REMARK    6  A    between atoms: N_10  and  C_11
REMARK    7  A    between atoms: C_14  and  C_15
REMARK                            x       y       z     vdW  Elec       q    Type
REMARK                         _______ _______ _______ _____ _____    ______ ____
ROOT
ATOM      1  N   UNL     1      43.728   5.298  10.236  0.00  0.00    +0.000 N 
ATOM      2  H   UNL     1      43.723   6.155   9.686  0.00  0.00    +0.000 HD
ENDROOT
BRANCH   1   3
ATOM      3  C   UNL     1      44.463   4.313   9.539  0.00  0.00    +0.000 A 
ATOM      4  N   UNL     1      45.249   4.711   8.511  0.00  0.00    +0.000 NA
ATOM      5  C   UNL     1      45.979   3.785   7.848  0.00  0.00    +0.000 A 
ATOM      6  C   UNL     1      45.992   2.439   8.160  0.00  0.00    +0.000 A 
ATOM      7  C   UNL     1      45.196   2.025   9.232  0.00  0.00    +0.000 A 
ATOM      8  C   UNL     1      44.424   2.963   9.925  0.00  0.00    +0.000 A 
ATOM      9 CL   UNL     1      43.435   2.416  11.232  0.00  0.00    +0.000 Cl
BRANCH   6  10
ATOM     10  C   UNL     1      46.798   1.446   7.414  0.00  0.00    +0.000 C 
ATOM     11  N   UNL     1      46.666   0.119   7.714  0.00  0.00    +0.000 N 
ATOM     12  O   UNL     1      47.581   1.802   6.540  0.00  0.00    +0.000 OA
ATOM     13  H   UNL     1      46.080  -0.283   8.430  0.00  0.00    +0.000 HD
ATOM     14  H   UNL     1      47.247  -0.523   7.189  0.00  0.00    +0.000 HD
ENDBRANCH   6  10
ENDBRANCH   1   3
BRANCH   1  15
ATOM     15  C   UNL     1      44.197   5.485  11.614  0.00  0.00    +0.000 C 
BRANCH  15  16
ATOM     16  C   UNL     1      45.725   5.496  11.703  0.00  0.00    +0.000 C 
BRANCH  16  21
ATOM     17  C   UNL     1      45.765   9.318  11.931  0.00  0.00    +0.000 A 
ATOM     18  C   UNL     1      47.118   9.549  12.212  0.00  0.00    +0.000 A 
ATOM     19  C   UNL     1      48.019   8.487  12.290  0.00  0.00    +0.000 A 
ATOM     20  C   UNL     1      47.578   7.178  12.099  0.00  0.00    +0.000 A 
ATOM     21  C   UNL     1      46.231   6.919  11.817  0.00  0.00    +0.000 A 
ATOM     22  C   UNL     1      45.333   7.997  11.734  0.00  0.00    +0.000 A 
BRANCH  17  23
ATOM     23  C   UNL     1      44.780  10.461  11.908  0.00  0.00    +0.000 C 
BRANCH  23  24
ATOM     24  N   UNL     1      43.419  10.011  11.639  0.00  0.00    +0.000 NA
ATOM     25  H   UNL     1      43.452   9.209  11.015  0.00  0.00    +0.000 HD
ATOM     26  H   UNL     1      42.927  10.749  11.135  0.00  0.00    +0.000 HD
ENDBRANCH  23  24
ENDBRANCH  17  23
ENDBRANCH  16  21
ENDBRANCH  15  16
ENDBRANCH   1  15
TORSDOF 7
ENDMDL
MODEL 9
REMARK VINA RESULT:    -6.540      3.553      5.384
REMARK INTER + INTRA:          -9.464
REMARK INTER:                  -9.086
REMARK INTRA:                  -0.379
REMARK UNBOUND:                -0.440
REMARK  Name = 
REMARK  7 active torsions:
REMARK  status: ('A' for Active; 'I' for Inactive)
REMARK    1  A    between atoms: N_1  and  C_2
REMARK    2  A    between atoms: C_2  and  C_3
REMARK    3  A    between atoms: C_7  and  C_8
REMARK    4  A    between atoms: C_8  and  C_9
REMARK    5  A    between atoms: C_9  and  N_10
REMARK    6  A    between atoms: N_10  and  C_11
REMARK    7  A    between atoms: C_14  and  C_15
REMARK                            x       y       z     vdW  Elec       q    Type
REMARK                         _______ _______ _______ _____ _____    ______ ____
ROOT
ATOM      1  N   UNL     1      46.650   5.183  14.582  0.00  0.00    +0.000 N 
ATOM      2  H   UNL     1      47.320   5.930  14.411  0.00  0.00    +0.000 HD
ENDROOT
BRANCH   1   3
ATOM      3  C   UNL     1      46.096   4.779  13.346  0.00  0.00    +0.000 A 
ATOM      4  N   UNL     1      45.454   3.588  13.292  0.00  0.00    +0.000 NA
ATOM      5  C   UNL     1      44.896   3.198  12.123  0.00  0.00    +0.000 A 
ATOM      6  C   UNL     1      44.922   3.947  10.963  0.00  0.00    +0.000 A 
ATOM      7  C   UNL     1      45.567   5.186  11.018  0.00  0.00    +0.000 A 
ATOM      8  C   UNL     1      46.162   5.606  12.212  0.00  0.00    +0.000 A 
ATOM      9 CL   UNL     1      46.969   7.132  12.241  0.00  0.00    +0.000 Cl
BRANCH   6  10
ATOM     10  C   UNL     1      44.306   3.492   9.696  0.00  0.00    +0.000 C 
ATOM     11  N   UNL     1      44.029   4.410   8.722  0.00  0.00    +0.000 N 
ATOM     12  O   UNL     1      44.039   2.308   9.516  0.00  0.00    +0.000 OA
ATOM     13  H   UNL     1      44.176   5.406   8.772  0.00  0.00    +0.000 HD
ATOM     14  H   UNL     1      43.595   4.056   7.877  0.00  0.00    +0.000 HD
ENDBRANCH   6  10
ENDBRANCH   1   3
BRANCH   1  15
ATOM     15  C   UNL     1      47.201   4.061  15.349  0.00  0.00    +0.000 C 
BRANCH  15  16
ATOM     16  C   UNL     1      47.425   4.426  16.819  0.00  0.00    +0.000 C 
BRANCH  16  21
ATOM     17  C   UNL     1      50.764   2.663  17.456  0.00  0.00    +0.000 A 
ATOM     18  C   UNL     1      51.593   3.762  17.721  0.00  0.00    +0.000 A 
ATOM     19  C   UNL     1      51.075   5.058  17.732  0.00  0.00    +0.000 A 
ATOM     20  C   UNL     1      49.722   5.273  17.468  0.00  0.00    +0.000 A 
ATOM     21  C   UNL     1      48.872   4.194  17.200  0.00  0.00    +0.000 A 
ATOM     22  C   UNL     1      49.403   2.892  17.199  0.00  0.00    +0.000 A 
BRANCH  17  23
ATOM     23  C   UNL     1      51.337   1.270  17.384  0.00  0.00    +0.000 C 
BRANCH  23  24
ATOM     24  N   UNL     1      52.465   1.089  18.290  0.00  0.00    +0.000 NA
ATOM     25  H   UNL     1      52.319   0.242  18.835  0.00  0.00    +0.000 HD
ATOM     26  H   UNL     1      52.475   1.862  18.955  0.00  0.00    +0.000 HD
ENDBRANCH  23  24
ENDBRANCH  17  23
ENDBRANCH  16  21
ENDBRANCH  15  16
ENDBRANCH   1  15
TORSDOF 7
ENDMDL
