MODEL 1
REMARK VINA RESULT:    -8.001      0.000      0.000
REMARK INTER + INTRA:         -11.507
REMARK INTER:                 -10.808
REMARK INTRA:                  -0.699
REMARK UNBOUND:                -0.699
REMARK  Name = 
REMARK  7 active torsions:
REMARK  status: ('A' for Active; 'I' for Inactive)
REMARK    1  A    between atoms: C_1  and  C_2
REMARK    2  A    between atoms: C_5  and  O_6
REMARK    3  A    between atoms: O_6  and  C_7
REMARK    4  A    between atoms: C_9  and  O_10
REMARK    5  A    between atoms: O_10  and  C_11
REMARK    6  A    between atoms: C_11  and  C_12
REMARK    7  A    between atoms: C_12  and  C_15
REMARK                            x       y       z     vdW  Elec       q    Type
REMARK                         _______ _______ _______ _____ _____    ______ ____
ROOT
ATOM      1  C   UNL     1      47.476   4.973  14.571  0.00  0.00    +0.000 A 
ATOM      2  C   UNL     1      46.452   4.623  13.706  0.00  0.00    +0.000 A 
ATOM      3  C   UNL     1      46.154   5.491  12.656  0.00  0.00    +0.000 A 
ATOM      4  C   UNL     1      46.857   6.690  12.559  0.00  0.00    +0.000 A 
ATOM      5  C   UNL     1      47.845   6.956  13.489  0.00  0.00    +0.000 A 
ATOM      6  N   UNL     1      48.182   6.119  14.487  0.00  0.00    +0.000 NA
ENDROOT
BRANCH   1   7
ATOM      7  O   UNL     1      47.784   4.095  15.592  0.00  0.00    +0.000 OA
BRANCH   7  12
ATOM      8  C   UNL     1      49.774   2.557  17.318  0.00  0.00    +0.000 C 
ATOM      9  C   UNL     1      49.082   3.815  17.807  0.00  0.00    +0.000 C 
ATOM     10  N   UNL     1      47.803   3.503  18.499  0.00  0.00    +0.000 NA
ATOM     11  C   UNL     1      47.251   4.774  17.982  0.00  0.00    +0.000 C 
ATOM     12  C   UNL     1      48.270   4.708  16.819  0.00  0.00    +0.000 C 
ATOM     13  H   UNL     1      47.861   3.435  19.512  0.00  0.00    +0.000 HD
ENDBRANCH   7  12
ENDBRANCH   1   7
BRANCH   3  14
ATOM     14  O   UNL     1      45.176   5.077  11.785  0.00  0.00    +0.000 OA
BRANCH  14  15
ATOM     15  C   UNL     1      45.046   3.651  11.638  0.00  0.00    +0.000 C 
BRANCH  15  16
ATOM     16  C   UNL     1      44.254   3.249  10.389  0.00  0.00    +0.000 C 
ATOM     17  F   UNL     1      43.459   2.180  10.708  0.00  0.00    +0.000 F 
ATOM     18  F   UNL     1      43.367   4.265  10.134  0.00  0.00    +0.000 F 
BRANCH  16  19
ATOM     19  C   UNL     1      45.155   2.989   9.190  0.00  0.00    +0.000 A 
ATOM     20  C   UNL     1      45.540   4.051   8.370  0.00  0.00    +0.000 A 
ATOM     21  C   UNL     1      46.400   3.809   7.297  0.00  0.00    +0.000 A 
ATOM     22  C   UNL     1      46.857   2.519   7.071  0.00  0.00    +0.000 A 
ATOM     23 CL   UNL     1      47.915   2.181   5.764  0.00  0.00    +0.000 Cl
ATOM     24  C   UNL     1      46.440   1.515   7.929  0.00  0.00    +0.000 A 
ATOM     25  N   UNL     1      45.603   1.717   8.979  0.00  0.00    +0.000 NA
ENDBRANCH  16  19
ENDBRANCH  15  16
ENDBRANCH  14  15
ENDBRANCH   3  14
TORSDOF 6
ENDMDL
MODEL 2
REMARK VINA RESULT:    -7.270      1.683      2.166
REMARK INTER + INTRA:         -10.519
REMARK INTER:                  -9.800
REMARK INTRA:                  -0.720
REMARK UNBOUND:                -0.699
REMARK  Name = 
REMARK  7 active torsions:
REMARK  status: ('A' for Active; 'I' for Inactive)
REMARK    1  A    between atoms: C_1  and  C_2
REMARK    2  A    between atoms: C_5  and  O_6
REMARK    3  A    between atoms: O_6  and  C_7
REMARK    4  A    between atoms: C_9  and  O_10
REMARK    5  A    between atoms: O_10  and  C_11
REMARK    6  A    between atoms: C_11  and  C_12
REMARK    7  A    between atoms: C_12  and  C_15
REMARK                            x       y       z     vdW  Elec       q    Type
REMARK                         _______ _______ _______ _____ _____    ______ ____
ROOT
ATOM      1  C   UNL     1      47.532   6.608  13.582  0.00  0.00    +0.000 A 
ATOM      2  C   UNL     1      46.563   5.649  13.335  0.00  0.00    +0.000 A 
ATOM      3  C   UNL     1      45.430   6.029  12.616  0.00  0.00    +0.000 A 
ATOM      4  C   UNL     1      45.298   7.360  12.230  0.00  0.00    +0.000 A 
ATOM      5  C   UNL     1      46.312   8.245  12.547  0.00  0.00    +0.000 A 
ATOM      6  N   UNL     1      47.434   7.898  13.203  0.00  0.00    +0.000 NA
ENDROOT
BRANCH   1   7
ATOM      7  O   UNL     1      48.663   6.217  14.270  0.00  0.00    +0.000 OA
BRANCH   7  12
ATOM      8  C   UNL     1      51.209   7.345  15.515  0.00  0.00    +0.000 C 
ATOM      9  C   UNL     1      50.042   6.866  16.355  0.00  0.00    +0.000 C 
ATOM     10  N   UNL     1      50.170   5.424  16.700  0.00  0.00    +0.000 NA
ATOM     11  C   UNL     1      48.696   5.314  16.645  0.00  0.00    +0.000 C 
ATOM     12  C   UNL     1      48.671   6.532  15.691  0.00  0.00    +0.000 C 
ATOM     13  H   UNL     1      50.587   5.228  17.607  0.00  0.00    +0.000 HD
ENDBRANCH   7  12
ENDBRANCH   1   7
BRANCH   3  14
ATOM     14  O   UNL     1      44.525   5.033  12.339  0.00  0.00    +0.000 OA
BRANCH  14  15
ATOM     15  C   UNL     1      45.054   3.901  11.624  0.00  0.00    +0.000 C 
BRANCH  15  16
ATOM     16  C   UNL     1      44.288   3.599  10.331  0.00  0.00    +0.000 C 
ATOM     17  F   UNL     1      43.376   2.610  10.592  0.00  0.00    +0.000 F 
ATOM     18  F   UNL     1      43.519   4.703  10.057  0.00  0.00    +0.000 F 
BRANCH  16  19
ATOM     19  C   UNL     1      45.215   3.270   9.170  0.00  0.00    +0.000 A 
ATOM     20  C   UNL     1      45.564   1.942   8.917  0.00  0.00    +0.000 A 
ATOM     21  C   UNL     1      46.381   1.647   7.825  0.00  0.00    +0.000 A 
ATOM     22  C   UNL     1      46.825   2.679   7.011  0.00  0.00    +0.000 A 
ATOM     23 CL   UNL     1      47.830   2.357   5.658  0.00  0.00    +0.000 Cl
ATOM     24  C   UNL     1      46.433   3.971   7.316  0.00  0.00    +0.000 A 
ATOM     25  N   UNL     1      45.641   4.291   8.372  0.00  0.00    +0.000 NA
ENDBRANCH  16  19
ENDBRANCH  15  16
ENDBRANCH  14  15
ENDBRANCH   3  14
TORSDOF 6
ENDMDL
MODEL 3
REMARK VINA RESULT:    -7.039      1.950      4.111
REMARK INTER + INTRA:         -10.207
REMARK INTER:                  -9.224
REMARK INTRA:                  -0.983
REMARK UNBOUND:                -0.699
REMARK  Name = 
REMARK  7 active torsions:
REMARK  status: ('A' for Active; 'I' for Inactive)
REMARK    1  A    between atoms: C_1  and  C_2
REMARK    2  A    between atoms: C_5  and  O_6
REMARK    3  A    between atoms: O_6  and  C_7
REMARK    4  A    between atoms: C_9  and  O_10
REMARK    5  A    between atoms: O_10  and  C_11
REMARK    6  A    between atoms: C_11  and  C_12
REMARK    7  A    between atoms: C_12  and  C_15
REMARK                            x       y       z     vdW  Elec       q    Type
REMARK                         _______ _______ _______ _____ _____    ______ ____
ROOT
ATOM      1  C   UNL     1      47.775   6.431  13.038  0.00  0.00    +0.000 A 
ATOM      2  C   UNL     1      46.668   5.685  12.668  0.00  0.00    +0.000 A 
ATOM      3  C   UNL     1      46.158   4.767  13.586  0.00  0.00    +0.000 A 
ATOM      4  C   UNL     1      46.814   4.603  14.804  0.00  0.00    +0.000 A 
ATOM      5  C   UNL     1      47.927   5.381  15.066  0.00  0.00    +0.000 A 
ATOM      6  N   UNL     1      48.417   6.302  14.218  0.00  0.00    +0.000 NA
ENDROOT
BRANCH   1   7
ATOM      7  O   UNL     1      48.258   7.357  12.134  0.00  0.00    +0.000 OA
BRANCH   7  12
ATOM      8  C   UNL     1      46.329   9.720  12.103  0.00  0.00    +0.000 C 
ATOM      9  C   UNL     1      47.795   9.877  12.458  0.00  0.00    +0.000 C 
ATOM     10  N   UNL     1      48.622  10.167  11.257  0.00  0.00    +0.000 NA
ATOM     11  C   UNL     1      49.732   9.411  11.878  0.00  0.00    +0.000 C 
ATOM     12  C   UNL     1      48.689   8.623  12.707  0.00  0.00    +0.000 C 
ATOM     13  H   UNL     1      48.810  11.152  11.085  0.00  0.00    +0.000 HD
ENDBRANCH   7  12
ENDBRANCH   1   7
BRANCH   3  14
ATOM     14  O   UNL     1      45.023   4.094  13.204  0.00  0.00    +0.000 OA
BRANCH  14  15
ATOM     15  C   UNL     1      45.219   3.068  12.214  0.00  0.00    +0.000 C 
BRANCH  15  16
ATOM     16  C   UNL     1      44.278   3.208  11.013  0.00  0.00    +0.000 C 
ATOM     17  F   UNL     1      43.255   2.309  11.160  0.00  0.00    +0.000 F 
ATOM     18  F   UNL     1      43.668   4.434  11.125  0.00  0.00    +0.000 F 
BRANCH  16  19
ATOM     19  C   UNL     1      45.008   3.075   9.684  0.00  0.00    +0.000 A 
ATOM     20  C   UNL     1      45.326   4.219   8.950  0.00  0.00    +0.000 A 
ATOM     21  C   UNL     1      46.032   4.089   7.754  0.00  0.00    +0.000 A 
ATOM     22  C   UNL     1      46.407   2.825   7.321  0.00  0.00    +0.000 A 
ATOM     23 CL   UNL     1      47.277   2.624   5.856  0.00  0.00    +0.000 Cl
ATOM     24  C   UNL     1      46.065   1.735   8.103  0.00  0.00    +0.000 A 
ATOM     25  N   UNL     1      45.377   1.828   9.270  0.00  0.00    +0.000 NA
ENDBRANCH  16  19
ENDBRANCH  15  16
ENDBRANCH  14  15
ENDBRANCH   3  14
TORSDOF 6
ENDMDL
MODEL 4
REMARK VINA RESULT:    -6.993      3.980      7.866
REMARK INTER + INTRA:         -10.144
REMARK INTER:                  -9.380
REMARK INTRA:                  -0.764
REMARK UNBOUND:                -0.699
REMARK  Name = 
REMARK  7 active torsions:
REMARK  status: ('A' for Active; 'I' for Inactive)
REMARK    1  A    between atoms: C_1  and  C_2
REMARK    2  A    between atoms: C_5  and  O_6
REMARK    3  A    between atoms: O_6  and  C_7
REMARK    4  A    between atoms: C_9  and  O_10
REMARK    5  A    between atoms: O_10  and  C_11
REMARK    6  A    between atoms: C_11  and  C_12
REMARK    7  A    between atoms: C_12  and  C_15
REMARK                            x       y       z     vdW  Elec       q    Type
REMARK                         _______ _______ _______ _____ _____    ______ ____
ROOT
ATOM      1  C   UNL     1      46.087   5.858  12.456  0.00  0.00    +0.000 A 
ATOM      2  C   UNL     1      46.578   5.244  13.597  0.00  0.00    +0.000 A 
ATOM      3  C   UNL     1      47.730   5.770  14.182  0.00  0.00    +0.000 A 
ATOM      4  C   UNL     1      48.363   6.845  13.564  0.00  0.00    +0.000 A 
ATOM      5  C   UNL     1      47.805   7.370  12.414  0.00  0.00    +0.000 A 
ATOM      6  N   UNL     1      46.673   6.912  11.851  0.00  0.00    +0.000 NA
ENDROOT
BRANCH   1   7
ATOM      7  O   UNL     1      44.930   5.350  11.899  0.00  0.00    +0.000 OA
BRANCH   7  12
ATOM      8  C   UNL     1      44.387   3.964   9.237  0.00  0.00    +0.000 C 
ATOM      9  C   UNL     1      44.313   3.229  10.561  0.00  0.00    +0.000 C 
ATOM     10  N   UNL     1      42.944   3.281  11.141  0.00  0.00    +0.000 NA
ATOM     11  C   UNL     1      43.551   3.300  12.490  0.00  0.00    +0.000 C 
ATOM     12  C   UNL     1      44.836   3.898  11.870  0.00  0.00    +0.000 C 
ATOM     13  H   UNL     1      42.355   2.477  10.940  0.00  0.00    +0.000 HD
ENDBRANCH   7  12
ENDBRANCH   1   7
BRANCH   3  14
ATOM     14  O   UNL     1      48.147   5.171  15.346  0.00  0.00    +0.000 OA
BRANCH  14  15
ATOM     15  C   UNL     1      47.261   4.166  15.873  0.00  0.00    +0.000 C 
BRANCH  15  16
ATOM     16  C   UNL     1      47.597   3.768  17.315  0.00  0.00    +0.000 C 
ATOM     17  F   UNL     1      47.231   4.796  18.142  0.00  0.00    +0.000 F 
ATOM     18  F   UNL     1      46.749   2.743  17.654  0.00  0.00    +0.000 F 
BRANCH  16  19
ATOM     19  C   UNL     1      49.053   3.356  17.479  0.00  0.00    +0.000 A 
ATOM     20  C   UNL     1      49.486   2.127  16.978  0.00  0.00    +0.000 A 
ATOM     21  C   UNL     1      50.832   1.777  17.096  0.00  0.00    +0.000 A 
ATOM     22  C   UNL     1      51.712   2.660  17.706  0.00  0.00    +0.000 A 
ATOM     23 CL   UNL     1      53.373   2.266  17.870  0.00  0.00    +0.000 Cl
ATOM     24  C   UNL     1      51.215   3.864  18.173  0.00  0.00    +0.000 A 
ATOM     25  N   UNL     1      49.912   4.234  18.074  0.00  0.00    +0.000 NA
ENDBRANCH  16  19
ENDBRANCH  15  16
ENDBRANCH  14  15
ENDBRANCH   3  14
TORSDOF 6
ENDMDL
MODEL 5
REMARK VINA RESULT:    -6.576      2.956      3.586
REMARK INTER + INTRA:          -9.582
REMARK INTER:                  -9.064
REMARK INTRA:                  -0.518
REMARK UNBOUND:                -0.699
REMARK  Name = 
REMARK  7 active torsions:
REMARK  status: ('A' for Active; 'I' for Inactive)
REMARK    1  A    between atoms: C_1  and  C_2
REMARK    2  A    between atoms: C_5  and  O_6
REMARK    3  A    between atoms: O_6  and  C_7
REMARK    4  A    between atoms: C_9  and  O_10
REMARK    5  A    between atoms: O_10  and  C_11
REMARK    6  A    between atoms: C_11  and  C_12
REMARK    7  A    between atoms: C_12  and  C_15
REMARK                            x       y       z     vdW  Elec       q    Type
REMARK                         _______ _______ _______ _____ _____    ______ ____
ROOT
ATOM      1  C   UNL     1      48.359   7.168  13.366  0.00  0.00    +0.000 A 
ATOM      2  C   UNL     1      47.749   6.101  12.727  0.00  0.00    +0.000 A 
ATOM      3  C   UNL     1      46.433   6.259  12.294  0.00  0.00    +0.000 A 
ATOM      4  C   UNL     1      45.776   7.454  12.574  0.00  0.00    +0.000 A 
ATOM      5  C   UNL     1      46.466   8.450  13.240  0.00  0.00    +0.000 A 
ATOM      6  N   UNL     1      47.748   8.341  13.632  0.00  0.00    +0.000 NA
ENDROOT
BRANCH   1   7
ATOM      7  O   UNL     1      49.671   7.014  13.767  0.00  0.00    +0.000 OA
BRANCH   7  12
ATOM      8  C   UNL     1      51.326   8.126  11.458  0.00  0.00    +0.000 C 
ATOM      9  C   UNL     1      51.443   8.665  12.870  0.00  0.00    +0.000 C 
ATOM     10  N   UNL     1      52.486   7.943  13.648  0.00  0.00    +0.000 NA
ATOM     11  C   UNL     1      51.668   8.138  14.865  0.00  0.00    +0.000 C 
ATOM     12  C   UNL     1      50.413   8.250  13.966  0.00  0.00    +0.000 C 
ATOM     13  H   UNL     1      53.402   8.385  13.665  0.00  0.00    +0.000 HD
ENDBRANCH   7  12
ENDBRANCH   1   7
BRANCH   3  14
ATOM     14  O   UNL     1      45.888   5.200  11.609  0.00  0.00    +0.000 OA
BRANCH  14  15
ATOM     15  C   UNL     1      44.562   4.819  12.018  0.00  0.00    +0.000 C 
BRANCH  15  16
ATOM     16  C   UNL     1      43.703   4.305  10.857  0.00  0.00    +0.000 C 
ATOM     17  F   UNL     1      42.740   3.476  11.369  0.00  0.00    +0.000 F 
ATOM     18  F   UNL     1      43.000   5.380  10.374  0.00  0.00    +0.000 F 
BRANCH  16  19
ATOM     19  C   UNL     1      44.535   3.653   9.763  0.00  0.00    +0.000 A 
ATOM     20  C   UNL     1      45.157   4.449   8.798  0.00  0.00    +0.000 A 
ATOM     21  C   UNL     1      45.952   3.846   7.824  0.00  0.00    +0.000 A 
ATOM     22  C   UNL     1      46.112   2.468   7.836  0.00  0.00    +0.000 A 
ATOM     23 CL   UNL     1      47.083   1.689   6.655  0.00  0.00    +0.000 Cl
ATOM     24  C   UNL     1      45.473   1.741   8.826  0.00  0.00    +0.000 A 
ATOM     25  N   UNL     1      44.692   2.298   9.787  0.00  0.00    +0.000 NA
ENDBRANCH  16  19
ENDBRANCH  15  16
ENDBRANCH  14  15
ENDBRANCH   3  14
TORSDOF 6
ENDMDL
MODEL 6
REMARK VINA RESULT:    -6.320      4.398      8.359
REMARK INTER + INTRA:          -9.237
REMARK INTER:                  -8.371
REMARK INTRA:                  -0.865
REMARK UNBOUND:                -0.699
REMARK  Name = 
REMARK  7 active torsions:
REMARK  status: ('A' for Active; 'I' for Inactive)
REMARK    1  A    between atoms: C_1  and  C_2
REMARK    2  A    between atoms: C_5  and  O_6
REMARK    3  A    between atoms: O_6  and  C_7
REMARK    4  A    between atoms: C_9  and  O_10
REMARK    5  A    between atoms: O_10  and  C_11
REMARK    6  A    between atoms: C_11  and  C_12
REMARK    7  A    between atoms: C_12  and  C_15
REMARK                            x       y       z     vdW  Elec       q    Type
REMARK                         _______ _______ _______ _____ _____    ______ ____
ROOT
ATOM      1  C   UNL     1      46.448   5.192  12.543  0.00  0.00    +0.000 A 
ATOM      2  C   UNL     1      46.904   4.776  13.783  0.00  0.00    +0.000 A 
ATOM      3  C   UNL     1      47.714   5.647  14.512  0.00  0.00    +0.000 A 
ATOM      4  C   UNL     1      48.072   6.865  13.939  0.00  0.00    +0.000 A 
ATOM      5  C   UNL     1      47.582   7.176  12.685  0.00  0.00    +0.000 A 
ATOM      6  N   UNL     1      46.767   6.374  11.977  0.00  0.00    +0.000 NA
ENDROOT
BRANCH   1   7
ATOM      7  O   UNL     1      45.624   4.336  11.840  0.00  0.00    +0.000 OA
BRANCH   7  12
ATOM      8  C   UNL     1      42.975   4.995  13.199  0.00  0.00    +0.000 C 
ATOM      9  C   UNL     1      43.154   5.076  11.696  0.00  0.00    +0.000 C 
ATOM     10  N   UNL     1      42.823   3.785  11.034  0.00  0.00    +0.000 NA
ATOM     11  C   UNL     1      43.866   4.072  10.025  0.00  0.00    +0.000 C 
ATOM     12  C   UNL     1      44.576   4.977  11.061  0.00  0.00    +0.000 C 
ATOM     13  H   UNL     1      41.875   3.712  10.671  0.00  0.00    +0.000 HD
ENDBRANCH   7  12
ENDBRANCH   1   7
BRANCH   3  14
ATOM     14  O   UNL     1      48.092   5.221  15.763  0.00  0.00    +0.000 OA
BRANCH  14  15
ATOM     15  C   UNL     1      47.239   4.226  16.358  0.00  0.00    +0.000 C 
BRANCH  15  16
ATOM     16  C   UNL     1      48.020   3.117  17.072  0.00  0.00    +0.000 C 
ATOM     17  F   UNL     1      47.135   2.365  17.797  0.00  0.00    +0.000 F 
ATOM     18  F   UNL     1      48.474   2.261  16.100  0.00  0.00    +0.000 F 
BRANCH  16  19
ATOM     19  C   UNL     1      49.170   3.662  17.907  0.00  0.00    +0.000 A 
ATOM     20  C   UNL     1      50.488   3.411  17.520  0.00  0.00    +0.000 A 
ATOM     21  C   UNL     1      51.534   3.950  18.270  0.00  0.00    +0.000 A 
ATOM     22  C   UNL     1      51.243   4.728  19.381  0.00  0.00    +0.000 A 
ATOM     23 CL   UNL     1      52.501   5.409  20.328  0.00  0.00    +0.000 Cl
ATOM     24  C   UNL     1      49.913   4.942  19.702  0.00  0.00    +0.000 A 
ATOM     25  N   UNL     1      48.873   4.431  18.995  0.00  0.00    +0.000 NA
ENDBRANCH  16  19
ENDBRANCH  15  16
ENDBRANCH  14  15
ENDBRANCH   3  14
TORSDOF 6
ENDMDL
MODEL 7
REMARK VINA RESULT:    -6.182      3.719      4.720
REMARK INTER + INTRA:          -9.050
REMARK INTER:                  -8.153
REMARK INTRA:                  -0.896
REMARK UNBOUND:                -0.699
REMARK  Name = 
REMARK  7 active torsions:
REMARK  status: ('A' for Active; 'I' for Inactive)
REMARK    1  A    between atoms: C_1  and  C_2
REMARK    2  A    between atoms: C_5  and  O_6
REMARK    3  A    between atoms: O_6  and  C_7
REMARK    4  A    between atoms: C_9  and  O_10
REMARK    5  A    between atoms: O_10  and  C_11
REMARK    6  A    between atoms: C_11  and  C_12
REMARK    7  A    between atoms: C_12  and  C_15
REMARK                            x       y       z     vdW  Elec       q    Type
REMARK                         _______ _______ _______ _____ _____    ______ ____
ROOT
ATOM      1  C   UNL     1      49.577   5.983  16.919  0.00  0.00    +0.000 A 
ATOM      2  C   UNL     1      49.178   6.465  15.684  0.00  0.00    +0.000 A 
ATOM      3  C   UNL     1      48.622   7.743  15.625  0.00  0.00    +0.000 A 
ATOM      4  C   UNL     1      48.442   8.450  16.812  0.00  0.00    +0.000 A 
ATOM      5  C   UNL     1      48.854   7.868  17.997  0.00  0.00    +0.000 A 
ATOM      6  N   UNL     1      49.430   6.656  18.079  0.00  0.00    +0.000 NA
ENDROOT
BRANCH   1   7
ATOM      7  O   UNL     1      50.152   4.728  16.965  0.00  0.00    +0.000 OA
BRANCH   7  12
ATOM      8  C   UNL     1      51.324   1.934  17.309  0.00  0.00    +0.000 C 
ATOM      9  C   UNL     1      49.837   2.206  17.423  0.00  0.00    +0.000 C 
ATOM     10  N   UNL     1      49.152   2.070  16.110  0.00  0.00    +0.000 NA
ATOM     11  C   UNL     1      48.219   3.141  16.522  0.00  0.00    +0.000 C 
ATOM     12  C   UNL     1      49.303   3.671  17.491  0.00  0.00    +0.000 C 
ATOM     13  H   UNL     1      48.724   1.164  15.934  0.00  0.00    +0.000 HD
ENDBRANCH   7  12
ENDBRANCH   1   7
BRANCH   3  14
ATOM     14  O   UNL     1      48.298   8.207  14.373  0.00  0.00    +0.000 OA
BRANCH  14  15
ATOM     15  C   UNL     1      48.567   7.298  13.291  0.00  0.00    +0.000 C 
BRANCH  15  16
ATOM     16  C   UNL     1      47.570   7.434  12.134  0.00  0.00    +0.000 C 
ATOM     17  F   UNL     1      47.029   8.691  12.177  0.00  0.00    +0.000 F 
ATOM     18  F   UNL     1      48.303   7.422  10.973  0.00  0.00    +0.000 F 
BRANCH  16  19
ATOM     19  C   UNL     1      46.523   6.329  12.136  0.00  0.00    +0.000 A 
ATOM     20  C   UNL     1      45.902   5.960  10.942  0.00  0.00    +0.000 A 
ATOM     21  C   UNL     1      44.974   4.919  10.948  0.00  0.00    +0.000 A 
ATOM     22  C   UNL     1      44.692   4.268  12.140  0.00  0.00    +0.000 A 
ATOM     23 CL   UNL     1      43.557   2.981  12.188  0.00  0.00    +0.000 Cl
ATOM     24  C   UNL     1      45.351   4.680  13.285  0.00  0.00    +0.000 A 
ATOM     25  N   UNL     1      46.257   5.691  13.313  0.00  0.00    +0.000 NA
ENDBRANCH  16  19
ENDBRANCH  15  16
ENDBRANCH  14  15
ENDBRANCH   3  14
TORSDOF 6
ENDMDL
MODEL 8
REMARK VINA RESULT:    -5.801      4.443      8.101
REMARK INTER + INTRA:          -8.536
REMARK INTER:                  -7.793
REMARK INTRA:                  -0.743
REMARK UNBOUND:                -0.699
REMARK  Name = 
REMARK  7 active torsions:
REMARK  status: ('A' for Active; 'I' for Inactive)
REMARK    1  A    between atoms: C_1  and  C_2
REMARK    2  A    between atoms: C_5  and  O_6
REMARK    3  A    between atoms: O_6  and  C_7
REMARK    4  A    between atoms: C_9  and  O_10
REMARK    5  A    between atoms: O_10  and  C_11
REMARK    6  A    between atoms: C_11  and  C_12
REMARK    7  A    between atoms: C_12  and  C_15
REMARK                            x       y       z     vdW  Elec       q    Type
REMARK                         _______ _______ _______ _____ _____    ______ ____
ROOT
ATOM      1  C   UNL     1      46.378   6.333  12.242  0.00  0.00    +0.000 A 
ATOM      2  C   UNL     1      47.132   5.849  13.298  0.00  0.00    +0.000 A 
ATOM      3  C   UNL     1      46.871   4.558  13.756  0.00  0.00    +0.000 A 
ATOM      4  C   UNL     1      45.831   3.839  13.171  0.00  0.00    +0.000 A 
ATOM      5  C   UNL     1      45.122   4.421  12.137  0.00  0.00    +0.000 A 
ATOM      6  N   UNL     1      45.379   5.647  11.648  0.00  0.00    +0.000 NA
ENDROOT
BRANCH   1   7
ATOM      7  O   UNL     1      46.661   7.601  11.776  0.00  0.00    +0.000 OA
BRANCH   7  12
ATOM      8  C   UNL     1      44.233   9.319  11.100  0.00  0.00    +0.000 C 
ATOM      9  C   UNL     1      45.220   9.705  12.184  0.00  0.00    +0.000 C 
ATOM     10  N   UNL     1      46.324  10.546  11.646  0.00  0.00    +0.000 NA
ATOM     11  C   UNL     1      47.235   9.924  12.631  0.00  0.00    +0.000 C 
ATOM     12  C   UNL     1      46.301   8.690  12.671  0.00  0.00    +0.000 C 
ATOM     13  H   UNL     1      46.195  11.550  11.746  0.00  0.00    +0.000 HD
ENDBRANCH   7  12
ENDBRANCH   1   7
BRANCH   3  14
ATOM     14  O   UNL     1      47.683   4.095  14.762  0.00  0.00    +0.000 OA
BRANCH  14  15
ATOM     15  C   UNL     1      47.637   4.849  15.987  0.00  0.00    +0.000 C 
BRANCH  15  16
ATOM     16  C   UNL     1      47.799   3.974  17.235  0.00  0.00    +0.000 C 
ATOM     17  F   UNL     1      47.306   4.663  18.311  0.00  0.00    +0.000 F 
ATOM     18  F   UNL     1      46.940   2.913  17.092  0.00  0.00    +0.000 F 
BRANCH  16  19
ATOM     19  C   UNL     1      49.232   3.502  17.431  0.00  0.00    +0.000 A 
ATOM     20  C   UNL     1      49.583   2.194  17.091  0.00  0.00    +0.000 A 
ATOM     21  C   UNL     1      50.909   1.782  17.235  0.00  0.00    +0.000 A 
ATOM     22  C   UNL     1      51.851   2.684  17.708  0.00  0.00    +0.000 A 
ATOM     23 CL   UNL     1      53.491   2.217  17.898  0.00  0.00    +0.000 Cl
ATOM     24  C   UNL     1      51.435   3.967  18.018  0.00  0.00    +0.000 A 
ATOM     25  N   UNL     1      50.153   4.398  17.891  0.00  0.00    +0.000 NA
ENDBRANCH  16  19
ENDBRANCH  15  16
ENDBRANCH  14  15
ENDBRANCH   3  14
TORSDOF 6
ENDMDL
MODEL 9
REMARK VINA RESULT:    -5.748      3.613      4.649
REMARK INTER + INTRA:          -8.463
REMARK INTER:                  -7.425
REMARK INTRA:                  -1.038
REMARK UNBOUND:                -0.699
REMARK  Name = 
REMARK  7 active torsions:
REMARK  status: ('A' for Active; 'I' for Inactive)
REMARK    1  A    between atoms: C_1  and  C_2
REMARK    2  A    between atoms: C_5  and  O_6
REMARK    3  A    between atoms: O_6  and  C_7
REMARK    4  A    between atoms: C_9  and  O_10
REMARK    5  A    between atoms: O_10  and  C_11
REMARK    6  A    between atoms: C_11  and  C_12
REMARK    7  A    between atoms: C_12  and  C_15
REMARK                            x       y       z     vdW  Elec       q    Type
REMARK                         _______ _______ _______ _____ _____    ______ ____
ROOT
ATOM      1  C   UNL     1      49.753   6.278  16.214  0.00  0.00    +0.000 A 
ATOM      2  C   UNL     1      48.951   6.874  15.254  0.00  0.00    +0.000 A 
ATOM      3  C   UNL     1      49.327   8.127  14.769  0.00  0.00    +0.000 A 
ATOM      4  C   UNL     1      50.453   8.743  15.310  0.00  0.00    +0.000 A 
ATOM      5  C   UNL     1      51.172   8.073  16.282  0.00  0.00    +0.000 A 
ATOM      6  N   UNL     1      50.857   6.849  16.739  0.00  0.00    +0.000 NA
ENDROOT
BRANCH   1   7
ATOM      7  O   UNL     1      49.390   5.026  16.669  0.00  0.00    +0.000 OA
BRANCH   7  12
ATOM      8  C   UNL     1      47.715   5.633  19.144  0.00  0.00    +0.000 C 
ATOM      9  C   UNL     1      47.178   4.819  17.984  0.00  0.00    +0.000 C 
ATOM     10  N   UNL     1      47.440   3.366  18.166  0.00  0.00    +0.000 NA
ATOM     11  C   UNL     1      47.582   3.241  16.699  0.00  0.00    +0.000 C 
ATOM     12  C   UNL     1      47.964   4.740  16.639  0.00  0.00    +0.000 C 
ATOM     13  H   UNL     1      46.677   2.833  18.576  0.00  0.00    +0.000 HD
ENDBRANCH   7  12
ENDBRANCH   1   7
BRANCH   3  14
ATOM     14  O   UNL     1      48.540   8.653  13.773  0.00  0.00    +0.000 OA
BRANCH  14  15
ATOM     15  C   UNL     1      47.241   8.050  13.632  0.00  0.00    +0.000 C 
BRANCH  15  16
ATOM     16  C   UNL     1      46.907   7.682  12.182  0.00  0.00    +0.000 C 
ATOM     17  F   UNL     1      46.392   8.790  11.564  0.00  0.00    +0.000 F 
ATOM     18  F   UNL     1      48.102   7.463  11.541  0.00  0.00    +0.000 F 
BRANCH  16  19
ATOM     19  C   UNL     1      45.999   6.464  12.086  0.00  0.00    +0.000 A 
ATOM     20  C   UNL     1      45.624   5.976  10.833  0.00  0.00    +0.000 A 
ATOM     21  C   UNL     1      44.826   4.835  10.755  0.00  0.00    +0.000 A 
ATOM     22  C   UNL     1      44.424   4.206  11.925  0.00  0.00    +0.000 A 
ATOM     23 CL   UNL     1      43.443   2.800  11.871  0.00  0.00    +0.000 Cl
ATOM     24  C   UNL     1      44.839   4.740  13.133  0.00  0.00    +0.000 A 
ATOM     25  N   UNL     1      45.615   5.850  13.242  0.00  0.00    +0.000 NA
ENDBRANCH  16  19
ENDBRANCH  15  16
ENDBRANCH  14  15
ENDBRANCH   3  14
TORSDOF 6
ENDMDL
