MODEL 1
REMARK VINA RESULT:    -8.018      0.000      0.000
REMARK INTER + INTRA:         -10.004
REMARK INTER:                  -9.659
REMARK INTRA:                  -0.345
REMARK UNBOUND:                -0.345
REMARK  Name = 
REMARK  4 active torsions:
REMARK  status: ('A' for Active; 'I' for Inactive)
REMARK    1  A    between atoms: N_1  and  C_2
REMARK    2  A    between atoms: C_2  and  C_3
REMARK    3  A    between atoms: C_7  and  C_8
REMARK    4  A    between atoms: C_8  and  N_9
REMARK                            x       y       z     vdW  Elec       q    Type
REMARK                         _______ _______ _______ _____ _____    ______ ____
ROOT
ATOM      1  C   UNL     1      46.716   2.531   6.830  0.00  0.00    +0.000 A 
ATOM      2  C   UNL     1      46.707   1.243   7.352  0.00  0.00    +0.000 A 
ATOM      3  N   UNL     1      45.984   0.866   8.430  0.00  0.00    +0.000 NA
ATOM      4  C   UNL     1      45.218   1.813   9.014  0.00  0.00    +0.000 A 
ATOM      5  C   UNL     1      45.124   3.125   8.564  0.00  0.00    +0.000 A 
ATOM      6  C   UNL     1      45.902   3.482   7.455  0.00  0.00    +0.000 A 
ENDROOT
BRANCH   1   7
ATOM      7  C   UNL     1      47.546   2.876   5.626  0.00  0.00    +0.000 C 
BRANCH   7   8
ATOM      8  N   UNL     1      48.523   1.834   5.335  0.00  0.00    +0.000 NA
ATOM      9  H   UNL     1      48.764   1.349   6.198  0.00  0.00    +0.000 HD
ATOM     10  H   UNL     1      49.386   2.267   5.005  0.00  0.00    +0.000 HD
ENDBRANCH   7   8
ENDBRANCH   1   7
BRANCH   5  11
ATOM     11  C   UNL     1      44.177   4.095   9.203  0.00  0.00    +0.000 C 
BRANCH  11  12
ATOM     12  N   UNL     1      44.224   4.185  10.655  0.00  0.00    +0.000 N 
ATOM     13  C   UNL     1      43.576   3.404  11.571  0.00  0.00    +0.000 A 
ATOM     14  N   UNL     1      44.020   3.608  12.793  0.00  0.00    +0.000 NA
ATOM     15  C   UNL     1      44.997   4.558  12.666  0.00  0.00    +0.000 A 
ATOM     16  N   UNL     1      45.763   5.035  13.670  0.00  0.00    +0.000 NA
ATOM     17  C   UNL     1      46.669   5.959  13.288  0.00  0.00    +0.000 A 
ATOM     18  C   UNL     1      46.837   6.448  11.997  0.00  0.00    +0.000 A 
ATOM     19  C   UNL     1      46.040   5.953  10.968  0.00  0.00    +0.000 A 
ATOM     20  C   UNL     1      45.122   4.972  11.344  0.00  0.00    +0.000 A 
ENDBRANCH  11  12
ENDBRANCH   5  11
TORSDOF 4
ENDMDL
MODEL 2
REMARK VINA RESULT:    -7.473      1.488      2.061
REMARK INTER + INTRA:          -9.347
REMARK INTER:                  -8.998
REMARK INTRA:                  -0.348
REMARK UNBOUND:                -0.345
REMARK  Name = 
REMARK  4 active torsions:
REMARK  status: ('A' for Active; 'I' for Inactive)
REMARK    1  A    between atoms: N_1  and  C_2
REMARK    2  A    between atoms: C_2  and  C_3
REMARK    3  A    between atoms: C_7  and  C_8
REMARK    4  A    between atoms: C_8  and  N_9
REMARK                            x       y       z     vdW  Elec       q    Type
REMARK                         _______ _______ _______ _____ _____    ______ ____
ROOT
ATOM      1  C   UNL     1      46.583   1.995   7.574  0.00  0.00    +0.000 A 
ATOM      2  C   UNL     1      46.945   3.205   6.995  0.00  0.00    +0.000 A 
ATOM      3  N   UNL     1      46.447   4.405   7.368  0.00  0.00    +0.000 NA
ATOM      4  C   UNL     1      45.551   4.407   8.380  0.00  0.00    +0.000 A 
ATOM      5  C   UNL     1      45.135   3.264   9.053  0.00  0.00    +0.000 A 
ATOM      6  C   UNL     1      45.661   2.038   8.626  0.00  0.00    +0.000 A 
ENDROOT
BRANCH   1   7
ATOM      7  C   UNL     1      47.182   0.699   7.105  0.00  0.00    +0.000 C 
BRANCH   7   8
ATOM      8  N   UNL     1      46.685  -0.429   7.882  0.00  0.00    +0.000 NA
ATOM      9  H   UNL     1      46.117  -0.082   8.653  0.00  0.00    +0.000 HD
ATOM     10  H   UNL     1      47.474  -0.915   8.308  0.00  0.00    +0.000 HD
ENDBRANCH   7   8
ENDBRANCH   1   7
BRANCH   5  11
ATOM     11  C   UNL     1      44.214   3.354  10.232  0.00  0.00    +0.000 C 
BRANCH  11  12
ATOM     12  N   UNL     1      44.799   3.833  11.476  0.00  0.00    +0.000 N 
ATOM     13  C   UNL     1      45.450   3.109  12.436  0.00  0.00    +0.000 A 
ATOM     14  N   UNL     1      46.051   3.885  13.313  0.00  0.00    +0.000 NA
ATOM     15  C   UNL     1      45.783   5.163  12.905  0.00  0.00    +0.000 A 
ATOM     16  N   UNL     1      46.250   6.288  13.488  0.00  0.00    +0.000 NA
ATOM     17  C   UNL     1      45.854   7.431  12.890  0.00  0.00    +0.000 A 
ATOM     18  C   UNL     1      45.016   7.521  11.785  0.00  0.00    +0.000 A 
ATOM     19  C   UNL     1      44.536   6.357  11.191  0.00  0.00    +0.000 A 
ATOM     20  C   UNL     1      44.965   5.167  11.780  0.00  0.00    +0.000 A 
ENDBRANCH  11  12
ENDBRANCH   5  11
TORSDOF 4
ENDMDL
MODEL 3
REMARK VINA RESULT:    -7.267      1.737      6.125
REMARK INTER + INTRA:          -9.099
REMARK INTER:                  -8.694
REMARK INTRA:                  -0.405
REMARK UNBOUND:                -0.345
REMARK  Name = 
REMARK  4 active torsions:
REMARK  status: ('A' for Active; 'I' for Inactive)
REMARK    1  A    between atoms: N_1  and  C_2
REMARK    2  A    between atoms: C_2  and  C_3
REMARK    3  A    between atoms: C_7  and  C_8
REMARK    4  A    between atoms: C_8  and  N_9
REMARK                            x       y       z     vdW  Elec       q    Type
REMARK                         _______ _______ _______ _____ _____    ______ ____
ROOT
ATOM      1  C   UNL     1      45.213   4.440  13.227  0.00  0.00    +0.000 A 
ATOM      2  C   UNL     1      44.027   5.122  13.464  0.00  0.00    +0.000 A 
ATOM      3  N   UNL     1      42.958   5.099  12.636  0.00  0.00    +0.000 NA
ATOM      4  C   UNL     1      43.068   4.348  11.519  0.00  0.00    +0.000 A 
ATOM      5  C   UNL     1      44.193   3.599  11.190  0.00  0.00    +0.000 A 
ATOM      6  C   UNL     1      45.285   3.663  12.065  0.00  0.00    +0.000 A 
ENDROOT
BRANCH   1   7
ATOM      7  C   UNL     1      46.359   4.512  14.197  0.00  0.00    +0.000 C 
BRANCH   7   8
ATOM      8  N   UNL     1      47.255   3.372  14.050  0.00  0.00    +0.000 NA
ATOM      9  H   UNL     1      47.856   3.310  14.870  0.00  0.00    +0.000 HD
ATOM     10  H   UNL     1      47.875   3.535  13.257  0.00  0.00    +0.000 HD
ENDBRANCH   7   8
ENDBRANCH   1   7
BRANCH   5  11
ATOM     11  C   UNL     1      44.204   2.710   9.984  0.00  0.00    +0.000 C 
BRANCH  11  12
ATOM     12  N   UNL     1      45.025   3.148   8.865  0.00  0.00    +0.000 N 
ATOM     13  C   UNL     1      45.264   4.427   8.443  0.00  0.00    +0.000 A 
ATOM     14  N   UNL     1      46.230   4.477   7.550  0.00  0.00    +0.000 NA
ATOM     15  C   UNL     1      46.636   3.181   7.388  0.00  0.00    +0.000 A 
ATOM     16  N   UNL     1      47.651   2.769   6.597  0.00  0.00    +0.000 NA
ATOM     17  C   UNL     1      47.867   1.437   6.617  0.00  0.00    +0.000 A 
ATOM     18  C   UNL     1      47.132   0.505   7.341  0.00  0.00    +0.000 A 
ATOM     19  C   UNL     1      46.086   0.937   8.152  0.00  0.00    +0.000 A 
ATOM     20  C   UNL     1      45.873   2.316   8.166  0.00  0.00    +0.000 A 
ENDBRANCH  11  12
ENDBRANCH   5  11
TORSDOF 4
ENDMDL
MODEL 4
REMARK VINA RESULT:    -7.186      0.928      0.935
REMARK INTER + INTRA:          -9.001
REMARK INTER:                  -8.493
REMARK INTRA:                  -0.509
REMARK UNBOUND:                -0.345
REMARK  Name = 
REMARK  4 active torsions:
REMARK  status: ('A' for Active; 'I' for Inactive)
REMARK    1  A    between atoms: N_1  and  C_2
REMARK    2  A    between atoms: C_2  and  C_3
REMARK    3  A    between atoms: C_7  and  C_8
REMARK    4  A    between atoms: C_8  and  N_9
REMARK                            x       y       z     vdW  Elec       q    Type
REMARK                         _______ _______ _______ _____ _____    ______ ____
ROOT
ATOM      1  C   UNL     1      46.357   2.913   7.432  0.00  0.00    +0.000 A 
ATOM      2  C   UNL     1      46.141   1.575   7.736  0.00  0.00    +0.000 A 
ATOM      3  N   UNL     1      45.354   1.143   8.747  0.00  0.00    +0.000 NA
ATOM      4  C   UNL     1      44.738   2.089   9.489  0.00  0.00    +0.000 A 
ATOM      5  C   UNL     1      44.855   3.456   9.261  0.00  0.00    +0.000 A 
ATOM      6  C   UNL     1      45.693   3.864   8.216  0.00  0.00    +0.000 A 
ENDROOT
BRANCH   1   7
ATOM      7  C   UNL     1      47.246   3.317   6.290  0.00  0.00    +0.000 C 
BRANCH   7   8
ATOM      8  N   UNL     1      48.504   2.581   6.307  0.00  0.00    +0.000 NA
ATOM      9  H   UNL     1      48.567   2.005   5.470  0.00  0.00    +0.000 HD
ATOM     10  H   UNL     1      48.501   1.934   7.096  0.00  0.00    +0.000 HD
ENDBRANCH   7   8
ENDBRANCH   1   7
BRANCH   5  11
ATOM     11  C   UNL     1      44.062   4.443  10.063  0.00  0.00    +0.000 C 
BRANCH  11  12
ATOM     12  N   UNL     1      44.473   4.633  11.446  0.00  0.00    +0.000 N 
ATOM     13  C   UNL     1      44.047   3.955  12.554  0.00  0.00    +0.000 A 
ATOM     14  N   UNL     1      44.788   4.221  13.609  0.00  0.00    +0.000 NA
ATOM     15  C   UNL     1      45.735   5.104  13.168  0.00  0.00    +0.000 A 
ATOM     16  N   UNL     1      46.745   5.608  13.910  0.00  0.00    +0.000 NA
ATOM     17  C   UNL     1      47.559   6.453  13.243  0.00  0.00    +0.000 A 
ATOM     18  C   UNL     1      47.416   6.840  11.915  0.00  0.00    +0.000 A 
ATOM     19  C   UNL     1      46.371   6.317  11.157  0.00  0.00    +0.000 A 
ATOM     20  C   UNL     1      45.541   5.417  11.826  0.00  0.00    +0.000 A 
ENDBRANCH  11  12
ENDBRANCH   5  11
TORSDOF 4
ENDMDL
MODEL 5
REMARK VINA RESULT:    -6.809      1.302      6.003
REMARK INTER + INTRA:          -8.548
REMARK INTER:                  -8.143
REMARK INTRA:                  -0.404
REMARK UNBOUND:                -0.345
REMARK  Name = 
REMARK  4 active torsions:
REMARK  status: ('A' for Active; 'I' for Inactive)
REMARK    1  A    between atoms: N_1  and  C_2
REMARK    2  A    between atoms: C_2  and  C_3
REMARK    3  A    between atoms: C_7  and  C_8
REMARK    4  A    between atoms: C_8  and  N_9
REMARK                            x       y       z     vdW  Elec       q    Type
REMARK                         _______ _______ _______ _____ _____    ______ ____
ROOT
ATOM      1  C   UNL     1      45.372   5.387  12.441  0.00  0.00    +0.000 A 
ATOM      2  C   UNL     1      44.110   5.458  13.016  0.00  0.00    +0.000 A 
ATOM      3  N   UNL     1      42.958   5.210  12.354  0.00  0.00    +0.000 NA
ATOM      4  C   UNL     1      43.065   4.860  11.053  0.00  0.00    +0.000 A 
ATOM      5  C   UNL     1      44.273   4.728  10.379  0.00  0.00    +0.000 A 
ATOM      6  C   UNL     1      45.443   5.010  11.095  0.00  0.00    +0.000 A 
ENDROOT
BRANCH   1   7
ATOM      7  C   UNL     1      46.610   5.676  13.243  0.00  0.00    +0.000 C 
BRANCH   7   8
ATOM      8  N   UNL     1      46.691   7.084  13.609  0.00  0.00    +0.000 NA
ATOM      9  H   UNL     1      47.651   7.311  13.864  0.00  0.00    +0.000 HD
ATOM     10  H   UNL     1      46.131   7.244  14.448  0.00  0.00    +0.000 HD
ENDBRANCH   7   8
ENDBRANCH   1   7
BRANCH   5  11
ATOM     11  C   UNL     1      44.318   4.238   8.963  0.00  0.00    +0.000 C 
BRANCH  11  12
ATOM     12  N   UNL     1      45.111   3.042   8.717  0.00  0.00    +0.000 N 
ATOM     13  C   UNL     1      44.918   1.784   9.217  0.00  0.00    +0.000 A 
ATOM     14  N   UNL     1      45.675   0.894   8.612  0.00  0.00    +0.000 NA
ATOM     15  C   UNL     1      46.385   1.600   7.680  0.00  0.00    +0.000 A 
ATOM     16  N   UNL     1      47.253   1.073   6.790  0.00  0.00    +0.000 NA
ATOM     17  C   UNL     1      47.820   1.977   5.963  0.00  0.00    +0.000 A 
ATOM     18  C   UNL     1      47.599   3.350   5.985  0.00  0.00    +0.000 A 
ATOM     19  C   UNL     1      46.704   3.885   6.908  0.00  0.00    +0.000 A 
ATOM     20  C   UNL     1      46.086   2.957   7.747  0.00  0.00    +0.000 A 
ENDBRANCH  11  12
ENDBRANCH   5  11
TORSDOF 4
ENDMDL
MODEL 6
REMARK VINA RESULT:    -6.659      1.705      6.136
REMARK INTER + INTRA:          -8.366
REMARK INTER:                  -8.161
REMARK INTRA:                  -0.205
REMARK UNBOUND:                -0.345
REMARK  Name = 
REMARK  4 active torsions:
REMARK  status: ('A' for Active; 'I' for Inactive)
REMARK    1  A    between atoms: N_1  and  C_2
REMARK    2  A    between atoms: C_2  and  C_3
REMARK    3  A    between atoms: C_7  and  C_8
REMARK    4  A    between atoms: C_8  and  N_9
REMARK                            x       y       z     vdW  Elec       q    Type
REMARK                         _______ _______ _______ _____ _____    ______ ____
ROOT
ATOM      1  C   UNL     1      45.262   6.000  12.631  0.00  0.00    +0.000 A 
ATOM      2  C   UNL     1      45.789   5.141  13.587  0.00  0.00    +0.000 A 
ATOM      3  N   UNL     1      45.810   3.794  13.470  0.00  0.00    +0.000 NA
ATOM      4  C   UNL     1      45.290   3.272  12.338  0.00  0.00    +0.000 A 
ATOM      5  C   UNL     1      44.762   4.031  11.300  0.00  0.00    +0.000 A 
ATOM      6  C   UNL     1      44.743   5.422  11.466  0.00  0.00    +0.000 A 
ENDROOT
BRANCH   1   7
ATOM      7  C   UNL     1      45.275   7.489  12.832  0.00  0.00    +0.000 C 
BRANCH   7   8
ATOM      8  N   UNL     1      46.628   7.984  13.057  0.00  0.00    +0.000 NA
ATOM      9  H   UNL     1      47.057   7.457  13.815  0.00  0.00    +0.000 HD
ATOM     10  H   UNL     1      46.580   8.951  13.377  0.00  0.00    +0.000 HD
ENDBRANCH   7   8
ENDBRANCH   1   7
BRANCH   5  11
ATOM     11  C   UNL     1      44.295   3.387  10.031  0.00  0.00    +0.000 C 
BRANCH  11  12
ATOM     12  N   UNL     1      45.166   3.531   8.873  0.00  0.00    +0.000 N 
ATOM     13  C   UNL     1      45.641   4.684   8.312  0.00  0.00    +0.000 A 
ATOM     14  N   UNL     1      46.583   4.448   7.425  0.00  0.00    +0.000 NA
ATOM     15  C   UNL     1      46.728   3.087   7.410  0.00  0.00    +0.000 A 
ATOM     16  N   UNL     1      47.631   2.402   6.675  0.00  0.00    +0.000 NA
ATOM     17  C   UNL     1      47.586   1.064   6.845  0.00  0.00    +0.000 A 
ATOM     18  C   UNL     1      46.697   0.378   7.664  0.00  0.00    +0.000 A 
ATOM     19  C   UNL     1      45.768   1.092   8.417  0.00  0.00    +0.000 A 
ATOM     20  C   UNL     1      45.825   2.479   8.276  0.00  0.00    +0.000 A 
ENDBRANCH  11  12
ENDBRANCH   5  11
TORSDOF 4
ENDMDL
MODEL 7
REMARK VINA RESULT:    -6.320      2.070      5.895
REMARK INTER + INTRA:          -7.958
REMARK INTER:                  -7.613
REMARK INTRA:                  -0.345
REMARK UNBOUND:                -0.345
REMARK  Name = 
REMARK  4 active torsions:
REMARK  status: ('A' for Active; 'I' for Inactive)
REMARK    1  A    between atoms: N_1  and  C_2
REMARK    2  A    between atoms: C_2  and  C_3
REMARK    3  A    between atoms: C_7  and  C_8
REMARK    4  A    between atoms: C_8  and  N_9
REMARK                            x       y       z     vdW  Elec       q    Type
REMARK                         _______ _______ _______ _____ _____    ______ ____
ROOT
ATOM      1  C   UNL     1      47.032   7.155  12.802  0.00  0.00    +0.000 A 
ATOM      2  C   UNL     1      46.924   8.540  12.798  0.00  0.00    +0.000 A 
ATOM      3  N   UNL     1      45.883   9.220  12.269  0.00  0.00    +0.000 NA
ATOM      4  C   UNL     1      44.888   8.486  11.725  0.00  0.00    +0.000 A 
ATOM      5  C   UNL     1      44.871   7.096  11.696  0.00  0.00    +0.000 A 
ATOM      6  C   UNL     1      45.976   6.429  12.240  0.00  0.00    +0.000 A 
ENDROOT
BRANCH   1   7
ATOM      7  C   UNL     1      48.222   6.469  13.412  0.00  0.00    +0.000 C 
BRANCH   7   8
ATOM      8  N   UNL     1      47.816   5.393  14.307  0.00  0.00    +0.000 NA
ATOM      9  H   UNL     1      46.895   5.602  14.688  0.00  0.00    +0.000 HD
ATOM     10  H   UNL     1      48.452   5.365  15.104  0.00  0.00    +0.000 HD
ENDBRANCH   7   8
ENDBRANCH   1   7
BRANCH   5  11
ATOM     11  C   UNL     1      43.686   6.349  11.166  0.00  0.00    +0.000 C 
BRANCH  11  12
ATOM     12  N   UNL     1      43.830   4.905  11.048  0.00  0.00    +0.000 N 
ATOM     13  C   UNL     1      43.175   3.931  11.750  0.00  0.00    +0.000 A 
ATOM     14  N   UNL     1      43.373   2.737  11.235  0.00  0.00    +0.000 NA
ATOM     15  C   UNL     1      44.186   2.942  10.154  0.00  0.00    +0.000 A 
ATOM     16  N   UNL     1      44.604   1.989   9.294  0.00  0.00    +0.000 NA
ATOM     17  C   UNL     1      45.391   2.445   8.297  0.00  0.00    +0.000 A 
ATOM     18  C   UNL     1      45.801   3.762   8.124  0.00  0.00    +0.000 A 
ATOM     19  C   UNL     1      45.368   4.738   9.016  0.00  0.00    +0.000 A 
ATOM     20  C   UNL     1      44.526   4.285  10.033  0.00  0.00    +0.000 A 
ENDBRANCH  11  12
ENDBRANCH   5  11
TORSDOF 4
ENDMDL
MODEL 8
REMARK VINA RESULT:    -6.185      2.146      6.312
REMARK INTER + INTRA:          -7.796
REMARK INTER:                  -7.330
REMARK INTRA:                  -0.466
REMARK UNBOUND:                -0.345
REMARK  Name = 
REMARK  4 active torsions:
REMARK  status: ('A' for Active; 'I' for Inactive)
REMARK    1  A    between atoms: N_1  and  C_2
REMARK    2  A    between atoms: C_2  and  C_3
REMARK    3  A    between atoms: C_7  and  C_8
REMARK    4  A    between atoms: C_8  and  N_9
REMARK                            x       y       z     vdW  Elec       q    Type
REMARK                         _______ _______ _______ _____ _____    ______ ____
ROOT
ATOM      1  C   UNL     1      47.439   4.960  15.036  0.00  0.00    +0.000 A 
ATOM      2  C   UNL     1      48.202   6.073  14.709  0.00  0.00    +0.000 A 
ATOM      3  N   UNL     1      47.879   6.959  13.740  0.00  0.00    +0.000 NA
ATOM      4  C   UNL     1      46.729   6.735  13.068  0.00  0.00    +0.000 A 
ATOM      5  C   UNL     1      45.870   5.672  13.325  0.00  0.00    +0.000 A 
ATOM      6  C   UNL     1      46.249   4.767  14.325  0.00  0.00    +0.000 A 
ENDROOT
BRANCH   1   7
ATOM      7  C   UNL     1      47.864   4.019  16.128  0.00  0.00    +0.000 C 
BRANCH   7   8
ATOM      8  N   UNL     1      46.723   3.560  16.910  0.00  0.00    +0.000 NA
ATOM      9  H   UNL     1      45.974   4.248  16.848  0.00  0.00    +0.000 HD
ATOM     10  H   UNL     1      46.987   3.520  17.895  0.00  0.00    +0.000 HD
ENDBRANCH   7   8
ENDBRANCH   1   7
BRANCH   5  11
ATOM     11  C   UNL     1      44.562   5.545  12.606  0.00  0.00    +0.000 C 
BRANCH  11  12
ATOM     12  N   UNL     1      44.383   4.350  11.794  0.00  0.00    +0.000 N 
ATOM     13  C   UNL     1      43.608   3.255  12.063  0.00  0.00    +0.000 A 
ATOM     14  N   UNL     1      43.495   2.464  11.017  0.00  0.00    +0.000 NA
ATOM     15  C   UNL     1      44.221   3.071  10.029  0.00  0.00    +0.000 A 
ATOM     16  N   UNL     1      44.338   2.630   8.758  0.00  0.00    +0.000 NA
ATOM     17  C   UNL     1      45.101   3.412   7.965  0.00  0.00    +0.000 A 
ATOM     18  C   UNL     1      45.763   4.569   8.360  0.00  0.00    +0.000 A 
ATOM     19  C   UNL     1      45.639   5.016   9.673  0.00  0.00    +0.000 A 
ATOM     20  C   UNL     1      44.826   4.234  10.495  0.00  0.00    +0.000 A 
ENDBRANCH  11  12
ENDBRANCH   5  11
TORSDOF 4
ENDMDL
MODEL 9
REMARK VINA RESULT:    -5.902      1.697      2.493
REMARK INTER + INTRA:          -7.455
REMARK INTER:                  -7.046
REMARK INTRA:                  -0.409
REMARK UNBOUND:                -0.345
REMARK  Name = 
REMARK  4 active torsions:
REMARK  status: ('A' for Active; 'I' for Inactive)
REMARK    1  A    between atoms: N_1  and  C_2
REMARK    2  A    between atoms: C_2  and  C_3
REMARK    3  A    between atoms: C_7  and  C_8
REMARK    4  A    between atoms: C_8  and  N_9
REMARK                            x       y       z     vdW  Elec       q    Type
REMARK                         _______ _______ _______ _____ _____    ______ ____
ROOT
ATOM      1  C   UNL     1      45.700   3.382   8.082  0.00  0.00    +0.000 A 
ATOM      2  C   UNL     1      45.296   2.098   8.426  0.00  0.00    +0.000 A 
ATOM      3  N   UNL     1      44.530   1.804   9.501  0.00  0.00    +0.000 NA
ATOM      4  C   UNL     1      44.133   2.842  10.269  0.00  0.00    +0.000 A 
ATOM      5  C   UNL     1      44.450   4.170  10.009  0.00  0.00    +0.000 A 
ATOM      6  C   UNL     1      45.259   4.432   8.896  0.00  0.00    +0.000 A 
ENDROOT
BRANCH   1   7
ATOM      7  C   UNL     1      46.551   3.631   6.870  0.00  0.00    +0.000 C 
BRANCH   7   8
ATOM      8  N   UNL     1      47.021   2.383   6.283  0.00  0.00    +0.000 NA
ATOM      9  H   UNL     1      46.224   1.856   5.930  0.00  0.00    +0.000 HD
ATOM     10  H   UNL     1      47.439   1.807   7.014  0.00  0.00    +0.000 HD
ENDBRANCH   7   8
ENDBRANCH   1   7
BRANCH   5  11
ATOM     11  C   UNL     1      43.890   5.277  10.850  0.00  0.00    +0.000 C 
BRANCH  11  12
ATOM     12  N   UNL     1      44.853   6.208  11.420  0.00  0.00    +0.000 N 
ATOM     13  C   UNL     1      44.874   7.572  11.312  0.00  0.00    +0.000 A 
ATOM     14  N   UNL     1      45.744   8.116  12.137  0.00  0.00    +0.000 NA
ATOM     15  C   UNL     1      46.306   7.066  12.809  0.00  0.00    +0.000 A 
ATOM     16  N   UNL     1      47.221   7.167  13.798  0.00  0.00    +0.000 NA
ATOM     17  C   UNL     1      47.614   5.984  14.315  0.00  0.00    +0.000 A 
ATOM     18  C   UNL     1      47.181   4.730  13.898  0.00  0.00    +0.000 A 
ATOM     19  C   UNL     1      46.241   4.635  12.876  0.00  0.00    +0.000 A 
ATOM     20  C   UNL     1      45.801   5.852  12.355  0.00  0.00    +0.000 A 
ENDBRANCH  11  12
ENDBRANCH   5  11
TORSDOF 4
ENDMDL
