MODEL 1
REMARK VINA RESULT:    -6.932      0.000      0.000
REMARK INTER + INTRA:          -9.548
REMARK INTER:                  -8.959
REMARK INTRA:                  -0.589
REMARK UNBOUND:                -0.589
REMARK  Name = 
REMARK  7 active torsions:
REMARK  status: ('A' for Active; 'I' for Inactive)
REMARK    1  A    between atoms: C_1  and  C_2
REMARK    2  A    between atoms: C_2  and  C_3
REMARK    3  A    between atoms: C_2  and  C_4
REMARK    4  A    between atoms: C_2  and  C_20
REMARK    5  A    between atoms: C_4  and  N_5
REMARK    6  A    between atoms: C_10  and  C_11
REMARK    7  A    between atoms: C_15  and  C_16
REMARK                            x       y       z     vdW  Elec       q    Type
REMARK                         _______ _______ _______ _____ _____    ______ ____
ROOT
ATOM      1  N   UNL     1      47.731   5.167  16.293  0.00  0.00    +0.000 N 
ATOM      2  C   UNL     1      47.768   5.637  14.989  0.00  0.00    +0.000 A 
ATOM      3  N   UNL     1      48.803   6.374  14.566  0.00  0.00    +0.000 NA
ATOM      4  C   UNL     1      48.724   6.876  13.325  0.00  0.00    +0.000 A 
ATOM      5  C   UNL     1      47.674   6.636  12.477  0.00  0.00    +0.000 A 
ATOM      6  C   UNL     1      46.656   5.850  12.977  0.00  0.00    +0.000 A 
ATOM      7  N   UNL     1      46.688   5.382  14.243  0.00  0.00    +0.000 NA
ATOM      8  H   UNL     1      47.039   5.742  16.767  0.00  0.00    +0.000 HD
ENDROOT
BRANCH   6   9
ATOM      9  C   UNL     1      45.443   5.522  12.199  0.00  0.00    +0.000 A 
ATOM     10  C   UNL     1      44.148   5.708  12.720  0.00  0.00    +0.000 A 
ATOM     11  C   UNL     1      43.012   5.326  12.002  0.00  0.00    +0.000 A 
ATOM     12  C   UNL     1      43.148   4.767  10.734  0.00  0.00    +0.000 A 
ATOM     13  C   UNL     1      44.416   4.604  10.175  0.00  0.00    +0.000 A 
ATOM     14  C   UNL     1      45.551   4.982  10.903  0.00  0.00    +0.000 A 
BRANCH  13  15
ATOM     15  C   UNL     1      44.556   4.038   8.869  0.00  0.00    +0.000 C 
ATOM     16  N   UNL     1      44.680   3.580   7.806  0.00  0.00    +0.000 NA
ENDBRANCH  13  15
ENDBRANCH   6   9
BRANCH   1  17
ATOM     17  C   UNL     1      49.016   5.121  16.982  0.00  0.00    +0.000 C 
BRANCH  17  19
ATOM     18  C   UNL     1      48.806   4.379  19.396  0.00  0.00    +0.000 C 
ATOM     19  C   UNL     1      49.094   3.899  17.952  0.00  0.00    +0.000 C 
ATOM     20  C   UNL     1      47.955   2.922  17.575  0.00  0.00    +0.000 C 
BRANCH  19  21
ATOM     21  C   UNL     1      50.462   3.196  17.824  0.00  0.00    +0.000 A 
ATOM     22  C   UNL     1      50.585   1.876  17.366  0.00  0.00    +0.000 A 
ATOM     23  C   UNL     1      51.832   1.270  17.338  0.00  0.00    +0.000 A 
ATOM     24  N   UNL     1      52.968   1.873  17.731  0.00  0.00    +0.000 NA
ATOM     25  C   UNL     1      52.850   3.145  18.160  0.00  0.00    +0.000 A 
ATOM     26  C   UNL     1      51.647   3.838  18.216  0.00  0.00    +0.000 A 
ENDBRANCH  19  21
ENDBRANCH  17  19
ENDBRANCH   1  17
TORSDOF 5
ENDMDL
MODEL 2
REMARK VINA RESULT:    -6.892      2.245      8.756
REMARK INTER + INTRA:          -9.495
REMARK INTER:                  -8.912
REMARK INTRA:                  -0.583
REMARK UNBOUND:                -0.589
REMARK  Name = 
REMARK  7 active torsions:
REMARK  status: ('A' for Active; 'I' for Inactive)
REMARK    1  A    between atoms: C_1  and  C_2
REMARK    2  A    between atoms: C_2  and  C_3
REMARK    3  A    between atoms: C_2  and  C_4
REMARK    4  A    between atoms: C_2  and  C_20
REMARK    5  A    between atoms: C_4  and  N_5
REMARK    6  A    between atoms: C_10  and  C_11
REMARK    7  A    between atoms: C_15  and  C_16
REMARK                            x       y       z     vdW  Elec       q    Type
REMARK                         _______ _______ _______ _____ _____    ______ ____
ROOT
ATOM      1  N   UNL     1      46.394   5.015  14.449  0.00  0.00    +0.000 N 
ATOM      2  C   UNL     1      47.184   4.348  15.374  0.00  0.00    +0.000 A 
ATOM      3  N   UNL     1      47.613   3.106  15.123  0.00  0.00    +0.000 NA
ATOM      4  C   UNL     1      48.289   2.487  16.103  0.00  0.00    +0.000 A 
ATOM      5  C   UNL     1      48.588   3.076  17.304  0.00  0.00    +0.000 A 
ATOM      6  C   UNL     1      48.129   4.365  17.479  0.00  0.00    +0.000 A 
ATOM      7  N   UNL     1      47.398   4.986  16.528  0.00  0.00    +0.000 NA
ATOM      8  H   UNL     1      45.456   5.008  14.841  0.00  0.00    +0.000 HD
ENDROOT
BRANCH   6   9
ATOM      9  C   UNL     1      48.344   5.128  18.727  0.00  0.00    +0.000 A 
ATOM     10  C   UNL     1      48.993   4.567  19.843  0.00  0.00    +0.000 A 
ATOM     11  C   UNL     1      49.126   5.275  21.041  0.00  0.00    +0.000 A 
ATOM     12  C   UNL     1      48.629   6.571  21.139  0.00  0.00    +0.000 A 
ATOM     13  C   UNL     1      48.013   7.169  20.039  0.00  0.00    +0.000 A 
ATOM     14  C   UNL     1      47.877   6.452  18.844  0.00  0.00    +0.000 A 
BRANCH  13  15
ATOM     15  C   UNL     1      47.510   8.504  20.137  0.00  0.00    +0.000 C 
ATOM     16  N   UNL     1      47.104   9.594  20.206  0.00  0.00    +0.000 NA
ENDBRANCH  13  15
ENDBRANCH   6   9
BRANCH   1  17
ATOM     17  C   UNL     1      46.455   4.503  13.084  0.00  0.00    +0.000 C 
BRANCH  17  19
ATOM     18  C   UNL     1      44.264   5.764  12.902  0.00  0.00    +0.000 C 
ATOM     19  C   UNL     1      45.533   5.328  12.129  0.00  0.00    +0.000 C 
ATOM     20  C   UNL     1      46.287   6.624  11.748  0.00  0.00    +0.000 C 
BRANCH  19  21
ATOM     21  C   UNL     1      45.203   4.512  10.862  0.00  0.00    +0.000 A 
ATOM     22  C   UNL     1      44.637   3.230  10.924  0.00  0.00    +0.000 A 
ATOM     23  C   UNL     1      44.427   2.512   9.755  0.00  0.00    +0.000 A 
ATOM     24  N   UNL     1      44.737   2.969   8.529  0.00  0.00    +0.000 NA
ATOM     25  C   UNL     1      45.270   4.205   8.470  0.00  0.00    +0.000 A 
ATOM     26  C   UNL     1      45.510   5.002   9.583  0.00  0.00    +0.000 A 
ENDBRANCH  19  21
ENDBRANCH  17  19
ENDBRANCH   1  17
TORSDOF 5
ENDMDL
MODEL 3
REMARK VINA RESULT:    -6.650      2.281      8.595
REMARK INTER + INTRA:          -9.183
REMARK INTER:                  -8.591
REMARK INTRA:                  -0.592
REMARK UNBOUND:                -0.589
REMARK  Name = 
REMARK  7 active torsions:
REMARK  status: ('A' for Active; 'I' for Inactive)
REMARK    1  A    between atoms: C_1  and  C_2
REMARK    2  A    between atoms: C_2  and  C_3
REMARK    3  A    between atoms: C_2  and  C_4
REMARK    4  A    between atoms: C_2  and  C_20
REMARK    5  A    between atoms: C_4  and  N_5
REMARK    6  A    between atoms: C_10  and  C_11
REMARK    7  A    between atoms: C_15  and  C_16
REMARK                            x       y       z     vdW  Elec       q    Type
REMARK                         _______ _______ _______ _____ _____    ______ ____
ROOT
ATOM      1  N   UNL     1      46.114   4.587  12.933  0.00  0.00    +0.000 N 
ATOM      2  C   UNL     1      46.990   5.380  13.659  0.00  0.00    +0.000 A 
ATOM      3  N   UNL     1      47.535   6.468  13.101  0.00  0.00    +0.000 NA
ATOM      4  C   UNL     1      48.448   7.131  13.828  0.00  0.00    +0.000 A 
ATOM      5  C   UNL     1      48.804   6.774  15.103  0.00  0.00    +0.000 A 
ATOM      6  C   UNL     1      48.182   5.654  15.616  0.00  0.00    +0.000 A 
ATOM      7  N   UNL     1      47.303   4.939  14.881  0.00  0.00    +0.000 NA
ATOM      8  H   UNL     1      46.640   3.750  12.698  0.00  0.00    +0.000 HD
ENDROOT
BRANCH   6   9
ATOM      9  C   UNL     1      48.475   5.124  16.964  0.00  0.00    +0.000 A 
ATOM     10  C   UNL     1      48.278   3.769  17.294  0.00  0.00    +0.000 A 
ATOM     11  C   UNL     1      48.491   3.296  18.592  0.00  0.00    +0.000 A 
ATOM     12  C   UNL     1      48.927   4.169  19.585  0.00  0.00    +0.000 A 
ATOM     13  C   UNL     1      49.167   5.510  19.282  0.00  0.00    +0.000 A 
ATOM     14  C   UNL     1      48.945   5.979  17.981  0.00  0.00    +0.000 A 
BRANCH  13  15
ATOM     15  C   UNL     1      49.623   6.404  20.300  0.00  0.00    +0.000 C 
ATOM     16  N   UNL     1      49.999   7.123  21.135  0.00  0.00    +0.000 NA
ENDBRANCH  13  15
ENDBRANCH   6   9
BRANCH   1  17
ATOM     17  C   UNL     1      45.498   5.226  11.776  0.00  0.00    +0.000 C 
BRANCH  17  19
ATOM     18  C   UNL     1      43.998   3.215  12.131  0.00  0.00    +0.000 C 
ATOM     19  C   UNL     1      44.442   4.289  11.107  0.00  0.00    +0.000 C 
ATOM     20  C   UNL     1      43.190   5.140  10.786  0.00  0.00    +0.000 C 
BRANCH  19  21
ATOM     21  C   UNL     1      45.012   3.673   9.812  0.00  0.00    +0.000 A 
ATOM     22  C   UNL     1      45.099   2.286   9.619  0.00  0.00    +0.000 A 
ATOM     23  C   UNL     1      45.687   1.787   8.466  0.00  0.00    +0.000 A 
ATOM     24  N   UNL     1      46.195   2.559   7.488  0.00  0.00    +0.000 NA
ATOM     25  C   UNL     1      46.099   3.890   7.670  0.00  0.00    +0.000 A 
ATOM     26  C   UNL     1      45.522   4.483   8.786  0.00  0.00    +0.000 A 
ENDBRANCH  19  21
ENDBRANCH  17  19
ENDBRANCH   1  17
TORSDOF 5
ENDMDL
MODEL 4
REMARK VINA RESULT:    -6.597      0.841      1.311
REMARK INTER + INTRA:          -9.114
REMARK INTER:                  -8.484
REMARK INTRA:                  -0.630
REMARK UNBOUND:                -0.589
REMARK  Name = 
REMARK  7 active torsions:
REMARK  status: ('A' for Active; 'I' for Inactive)
REMARK    1  A    between atoms: C_1  and  C_2
REMARK    2  A    between atoms: C_2  and  C_3
REMARK    3  A    between atoms: C_2  and  C_4
REMARK    4  A    between atoms: C_2  and  C_20
REMARK    5  A    between atoms: C_4  and  N_5
REMARK    6  A    between atoms: C_10  and  C_11
REMARK    7  A    between atoms: C_15  and  C_16
REMARK                            x       y       z     vdW  Elec       q    Type
REMARK                         _______ _______ _______ _____ _____    ______ ____
ROOT
ATOM      1  N   UNL     1      48.280   6.027  16.102  0.00  0.00    +0.000 N 
ATOM      2  C   UNL     1      48.223   6.284  14.741  0.00  0.00    +0.000 A 
ATOM      3  N   UNL     1      49.226   6.930  14.133  0.00  0.00    +0.000 NA
ATOM      4  C   UNL     1      49.058   7.231  12.837  0.00  0.00    +0.000 A 
ATOM      5  C   UNL     1      47.948   6.875  12.116  0.00  0.00    +0.000 A 
ATOM      6  C   UNL     1      46.967   6.193  12.806  0.00  0.00    +0.000 A 
ATOM      7  N   UNL     1      47.091   5.930  14.125  0.00  0.00    +0.000 NA
ATOM      8  H   UNL     1      47.627   6.679  16.528  0.00  0.00    +0.000 HD
ENDROOT
BRANCH   6   9
ATOM      9  C   UNL     1      45.699   5.763  12.180  0.00  0.00    +0.000 A 
ATOM     10  C   UNL     1      44.461   5.883  12.839  0.00  0.00    +0.000 A 
ATOM     11  C   UNL     1      43.280   5.407  12.265  0.00  0.00    +0.000 A 
ATOM     12  C   UNL     1      43.310   4.817  11.004  0.00  0.00    +0.000 A 
ATOM     13  C   UNL     1      44.516   4.715  10.309  0.00  0.00    +0.000 A 
ATOM     14  C   UNL     1      45.697   5.188  10.893  0.00  0.00    +0.000 A 
BRANCH  13  15
ATOM     15  C   UNL     1      44.546   4.116   9.011  0.00  0.00    +0.000 C 
ATOM     16  N   UNL     1      44.582   3.627   7.955  0.00  0.00    +0.000 NA
ENDBRANCH  13  15
ENDBRANCH   6   9
BRANCH   1  17
ATOM     17  C   UNL     1      49.612   6.072  16.696  0.00  0.00    +0.000 C 
BRANCH  17  19
ATOM     18  C   UNL     1      50.245   6.218  19.145  0.00  0.00    +0.000 C 
ATOM     19  C   UNL     1      49.655   5.295  18.051  0.00  0.00    +0.000 C 
ATOM     20  C   UNL     1      48.196   4.991  18.467  0.00  0.00    +0.000 C 
BRANCH  19  21
ATOM     21  C   UNL     1      50.447   3.981  17.893  0.00  0.00    +0.000 A 
ATOM     22  C   UNL     1      51.808   3.884  18.218  0.00  0.00    +0.000 A 
ATOM     23  C   UNL     1      52.489   2.697  17.989  0.00  0.00    +0.000 A 
ATOM     24  N   UNL     1      51.922   1.598  17.461  0.00  0.00    +0.000 NA
ATOM     25  C   UNL     1      50.612   1.688  17.159  0.00  0.00    +0.000 A 
ATOM     26  C   UNL     1      49.846   2.830  17.360  0.00  0.00    +0.000 A 
ENDBRANCH  19  21
ENDBRANCH  17  19
ENDBRANCH   1  17
TORSDOF 5
ENDMDL
MODEL 5
REMARK VINA RESULT:    -6.387      2.160      8.361
REMARK INTER + INTRA:          -8.843
REMARK INTER:                  -8.209
REMARK INTRA:                  -0.634
REMARK UNBOUND:                -0.589
REMARK  Name = 
REMARK  7 active torsions:
REMARK  status: ('A' for Active; 'I' for Inactive)
REMARK    1  A    between atoms: C_1  and  C_2
REMARK    2  A    between atoms: C_2  and  C_3
REMARK    3  A    between atoms: C_2  and  C_4
REMARK    4  A    between atoms: C_2  and  C_20
REMARK    5  A    between atoms: C_4  and  N_5
REMARK    6  A    between atoms: C_10  and  C_11
REMARK    7  A    between atoms: C_15  and  C_16
REMARK                            x       y       z     vdW  Elec       q    Type
REMARK                         _______ _______ _______ _____ _____    ______ ____
ROOT
ATOM      1  N   UNL     1      46.364   5.370  12.636  0.00  0.00    +0.000 N 
ATOM      2  C   UNL     1      47.357   6.292  12.931  0.00  0.00    +0.000 A 
ATOM      3  N   UNL     1      47.645   7.272  12.066  0.00  0.00    +0.000 NA
ATOM      4  C   UNL     1      48.682   8.067  12.372  0.00  0.00    +0.000 A 
ATOM      5  C   UNL     1      49.413   7.947  13.525  0.00  0.00    +0.000 A 
ATOM      6  C   UNL     1      49.042   6.926  14.376  0.00  0.00    +0.000 A 
ATOM      7  N   UNL     1      48.038   6.079  14.061  0.00  0.00    +0.000 NA
ATOM      8  H   UNL     1      46.855   4.513  12.397  0.00  0.00    +0.000 HD
ENDROOT
BRANCH   6   9
ATOM      9  C   UNL     1      49.745   6.647  15.645  0.00  0.00    +0.000 A 
ATOM     10  C   UNL     1      51.050   7.114  15.896  0.00  0.00    +0.000 A 
ATOM     11  C   UNL     1      51.730   6.783  17.070  0.00  0.00    +0.000 A 
ATOM     12  C   UNL     1      51.109   5.991  18.031  0.00  0.00    +0.000 A 
ATOM     13  C   UNL     1      49.803   5.542  17.830  0.00  0.00    +0.000 A 
ATOM     14  C   UNL     1      49.129   5.872  16.648  0.00  0.00    +0.000 A 
BRANCH  13  15
ATOM     15  C   UNL     1      49.162   4.735  18.822  0.00  0.00    +0.000 C 
ATOM     16  N   UNL     1      48.642   4.069  19.623  0.00  0.00    +0.000 NA
ENDBRANCH  13  15
ENDBRANCH   6   9
BRANCH   1  17
ATOM     17  C   UNL     1      45.400   5.785  11.624  0.00  0.00    +0.000 C 
BRANCH  17  19
ATOM     18  C   UNL     1      44.283   3.675  12.474  0.00  0.00    +0.000 C 
ATOM     19  C   UNL     1      44.430   4.617  11.253  0.00  0.00    +0.000 C 
ATOM     20  C   UNL     1      43.032   5.227  10.995  0.00  0.00    +0.000 C 
BRANCH  19  21
ATOM     21  C   UNL     1      44.931   3.881   9.993  0.00  0.00    +0.000 A 
ATOM     22  C   UNL     1      44.887   2.484   9.876  0.00  0.00    +0.000 A 
ATOM     23  C   UNL     1      45.417   1.870   8.750  0.00  0.00    +0.000 A 
ATOM     24  N   UNL     1      45.987   2.537   7.731  0.00  0.00    +0.000 NA
ATOM     25  C   UNL     1      46.018   3.879   7.840  0.00  0.00    +0.000 A 
ATOM     26  C   UNL     1      45.507   4.584   8.923  0.00  0.00    +0.000 A 
ENDBRANCH  19  21
ENDBRANCH  17  19
ENDBRANCH   1  17
TORSDOF 5
ENDMDL
MODEL 6
REMARK VINA RESULT:    -6.368      5.205      8.002
REMARK INTER + INTRA:          -8.819
REMARK INTER:                  -8.541
REMARK INTRA:                  -0.278
REMARK UNBOUND:                -0.589
REMARK  Name = 
REMARK  7 active torsions:
REMARK  status: ('A' for Active; 'I' for Inactive)
REMARK    1  A    between atoms: C_1  and  C_2
REMARK    2  A    between atoms: C_2  and  C_3
REMARK    3  A    between atoms: C_2  and  C_4
REMARK    4  A    between atoms: C_2  and  C_20
REMARK    5  A    between atoms: C_4  and  N_5
REMARK    6  A    between atoms: C_10  and  C_11
REMARK    7  A    between atoms: C_15  and  C_16
REMARK                            x       y       z     vdW  Elec       q    Type
REMARK                         _______ _______ _______ _____ _____    ______ ____
ROOT
ATOM      1  N   UNL     1      46.175   5.145  11.704  0.00  0.00    +0.000 N 
ATOM      2  C   UNL     1      46.415   6.453  12.097  0.00  0.00    +0.000 A 
ATOM      3  N   UNL     1      45.453   7.165  12.695  0.00  0.00    +0.000 NA
ATOM      4  C   UNL     1      45.724   8.453  12.957  0.00  0.00    +0.000 A 
ATOM      5  C   UNL     1      46.930   9.043  12.685  0.00  0.00    +0.000 A 
ATOM      6  C   UNL     1      47.879   8.238  12.087  0.00  0.00    +0.000 A 
ATOM      7  N   UNL     1      47.608   6.956  11.762  0.00  0.00    +0.000 NA
ATOM      8  H   UNL     1      46.084   5.180  10.692  0.00  0.00    +0.000 HD
ENDROOT
BRANCH   6   9
ATOM      9  C   UNL     1      49.219   8.730  11.705  0.00  0.00    +0.000 A 
ATOM     10  C   UNL     1      49.548  10.099  11.728  0.00  0.00    +0.000 A 
ATOM     11  C   UNL     1      50.795  10.557  11.296  0.00  0.00    +0.000 A 
ATOM     12  C   UNL     1      51.751   9.649  10.850  0.00  0.00    +0.000 A 
ATOM     13  C   UNL     1      51.469   8.282  10.848  0.00  0.00    +0.000 A 
ATOM     14  C   UNL     1      50.215   7.830  11.276  0.00  0.00    +0.000 A 
BRANCH  13  15
ATOM     15  C   UNL     1      52.453   7.348  10.397  0.00  0.00    +0.000 C 
ATOM     16  N   UNL     1      53.263   6.595  10.031  0.00  0.00    +0.000 NA
ENDBRANCH  13  15
ENDBRANCH   6   9
BRANCH   1  17
ATOM     17  C   UNL     1      45.054   4.486  12.364  0.00  0.00    +0.000 C 
BRANCH  17  19
ATOM     18  C   UNL     1      43.238   2.769  11.942  0.00  0.00    +0.000 C 
ATOM     19  C   UNL     1      44.016   3.956  11.322  0.00  0.00    +0.000 C 
ATOM     20  C   UNL     1      42.983   5.080  11.071  0.00  0.00    +0.000 C 
BRANCH  19  21
ATOM     21  C   UNL     1      44.722   3.578  10.003  0.00  0.00    +0.000 A 
ATOM     22  C   UNL     1      45.041   2.251   9.679  0.00  0.00    +0.000 A 
ATOM     23  C   UNL     1      45.740   1.976   8.513  0.00  0.00    +0.000 A 
ATOM     24  N   UNL     1      46.147   2.917   7.642  0.00  0.00    +0.000 NA
ATOM     25  C   UNL     1      45.830   4.190   7.949  0.00  0.00    +0.000 A 
ATOM     26  C   UNL     1      45.127   4.563   9.089  0.00  0.00    +0.000 A 
ENDBRANCH  19  21
ENDBRANCH  17  19
ENDBRANCH   1  17
TORSDOF 5
ENDMDL
MODEL 7
REMARK VINA RESULT:    -6.133      2.664      3.473
REMARK INTER + INTRA:          -8.515
REMARK INTER:                  -7.889
REMARK INTRA:                  -0.626
REMARK UNBOUND:                -0.589
REMARK  Name = 
REMARK  7 active torsions:
REMARK  status: ('A' for Active; 'I' for Inactive)
REMARK    1  A    between atoms: C_1  and  C_2
REMARK    2  A    between atoms: C_2  and  C_3
REMARK    3  A    between atoms: C_2  and  C_4
REMARK    4  A    between atoms: C_2  and  C_20
REMARK    5  A    between atoms: C_4  and  N_5
REMARK    6  A    between atoms: C_10  and  C_11
REMARK    7  A    between atoms: C_15  and  C_16
REMARK                            x       y       z     vdW  Elec       q    Type
REMARK                         _______ _______ _______ _____ _____    ______ ____
ROOT
ATOM      1  N   UNL     1      47.648   4.678  15.019  0.00  0.00    +0.000 N 
ATOM      2  C   UNL     1      46.738   4.878  13.991  0.00  0.00    +0.000 A 
ATOM      3  N   UNL     1      46.120   3.835  13.424  0.00  0.00    +0.000 NA
ATOM      4  C   UNL     1      45.330   4.095  12.372  0.00  0.00    +0.000 A 
ATOM      5  C   UNL     1      45.101   5.359  11.892  0.00  0.00    +0.000 A 
ATOM      6  C   UNL     1      45.757   6.384  12.542  0.00  0.00    +0.000 A 
ATOM      7  N   UNL     1      46.602   6.139  13.567  0.00  0.00    +0.000 NA
ATOM      8  H   UNL     1      48.562   4.834  14.604  0.00  0.00    +0.000 HD
ENDROOT
BRANCH   6   9
ATOM      9  C   UNL     1      45.638   7.798  12.131  0.00  0.00    +0.000 A 
ATOM     10  C   UNL     1      46.643   8.745  12.407  0.00  0.00    +0.000 A 
ATOM     11  C   UNL     1      46.485  10.093  12.076  0.00  0.00    +0.000 A 
ATOM     12  C   UNL     1      45.323  10.520  11.440  0.00  0.00    +0.000 A 
ATOM     13  C   UNL     1      44.323   9.600  11.119  0.00  0.00    +0.000 A 
ATOM     14  C   UNL     1      44.484   8.251  11.460  0.00  0.00    +0.000 A 
BRANCH  13  15
ATOM     15  C   UNL     1      43.133  10.037  10.459  0.00  0.00    +0.000 C 
ATOM     16  N   UNL     1      42.169  10.396   9.912  0.00  0.00    +0.000 NA
ENDBRANCH  13  15
ENDBRANCH   6   9
BRANCH   1  17
ATOM     17  C   UNL     1      47.538   3.402  15.716  0.00  0.00    +0.000 C 
BRANCH  17  19
ATOM     18  C   UNL     1      47.583   4.940  17.729  0.00  0.00    +0.000 C 
ATOM     19  C   UNL     1      47.973   3.534  17.211  0.00  0.00    +0.000 C 
ATOM     20  C   UNL     1      47.151   2.514  18.035  0.00  0.00    +0.000 C 
BRANCH  19  21
ATOM     21  C   UNL     1      49.482   3.246  17.361  0.00  0.00    +0.000 A 
ATOM     22  C   UNL     1      50.028   1.976  17.124  0.00  0.00    +0.000 A 
ATOM     23  C   UNL     1      51.380   1.756  17.343  0.00  0.00    +0.000 A 
ATOM     24  N   UNL     1      52.233   2.700  17.780  0.00  0.00    +0.000 NA
ATOM     25  C   UNL     1      51.709   3.922  17.996  0.00  0.00    +0.000 A 
ATOM     26  C   UNL     1      50.371   4.241  17.798  0.00  0.00    +0.000 A 
ENDBRANCH  19  21
ENDBRANCH  17  19
ENDBRANCH   1  17
TORSDOF 5
ENDMDL
MODEL 8
REMARK VINA RESULT:    -6.086      2.020      8.480
REMARK INTER + INTRA:          -8.454
REMARK INTER:                  -7.851
REMARK INTRA:                  -0.603
REMARK UNBOUND:                -0.589
REMARK  Name = 
REMARK  7 active torsions:
REMARK  status: ('A' for Active; 'I' for Inactive)
REMARK    1  A    between atoms: C_1  and  C_2
REMARK    2  A    between atoms: C_2  and  C_3
REMARK    3  A    between atoms: C_2  and  C_4
REMARK    4  A    between atoms: C_2  and  C_20
REMARK    5  A    between atoms: C_4  and  N_5
REMARK    6  A    between atoms: C_10  and  C_11
REMARK    7  A    between atoms: C_15  and  C_16
REMARK                            x       y       z     vdW  Elec       q    Type
REMARK                         _______ _______ _______ _____ _____    ______ ____
ROOT
ATOM      1  N   UNL     1      46.800   5.809  12.341  0.00  0.00    +0.000 N 
ATOM      2  C   UNL     1      47.296   6.686  13.293  0.00  0.00    +0.000 A 
ATOM      3  N   UNL     1      47.011   7.992  13.222  0.00  0.00    +0.000 NA
ATOM      4  C   UNL     1      47.605   8.794  14.118  0.00  0.00    +0.000 A 
ATOM      5  C   UNL     1      48.438   8.337  15.106  0.00  0.00    +0.000 A 
ATOM      6  C   UNL     1      48.667   6.977  15.127  0.00  0.00    +0.000 A 
ATOM      7  N   UNL     1      48.124   6.158  14.200  0.00  0.00    +0.000 NA
ATOM      8  H   UNL     1      47.593   5.573  11.752  0.00  0.00    +0.000 HD
ENDROOT
BRANCH   6   9
ATOM      9  C   UNL     1      49.561   6.331  16.112  0.00  0.00    +0.000 A 
ATOM     10  C   UNL     1      49.083   5.411  17.065  0.00  0.00    +0.000 A 
ATOM     11  C   UNL     1      49.925   4.863  18.035  0.00  0.00    +0.000 A 
ATOM     12  C   UNL     1      51.273   5.210  18.059  0.00  0.00    +0.000 A 
ATOM     13  C   UNL     1      51.786   6.091  17.106  0.00  0.00    +0.000 A 
ATOM     14  C   UNL     1      50.935   6.642  16.140  0.00  0.00    +0.000 A 
BRANCH  13  15
ATOM     15  C   UNL     1      53.172   6.440  17.125  0.00  0.00    +0.000 C 
ATOM     16  N   UNL     1      54.304   6.716  17.148  0.00  0.00    +0.000 NA
ENDBRANCH  13  15
ENDBRANCH   6   9
BRANCH   1  17
ATOM     17  C   UNL     1      45.643   6.284  11.590  0.00  0.00    +0.000 C 
BRANCH  17  19
ATOM     18  C   UNL     1      44.489   4.382  12.804  0.00  0.00    +0.000 C 
ATOM     19  C   UNL     1      44.549   5.174  11.474  0.00  0.00    +0.000 C 
ATOM     20  C   UNL     1      43.179   5.876  11.315  0.00  0.00    +0.000 C 
BRANCH  19  21
ATOM     21  C   UNL     1      44.827   4.268  10.257  0.00  0.00    +0.000 A 
ATOM     22  C   UNL     1      44.513   2.901  10.255  0.00  0.00    +0.000 A 
ATOM     23  C   UNL     1      44.851   2.118   9.160  0.00  0.00    +0.000 A 
ATOM     24  N   UNL     1      45.478   2.588   8.067  0.00  0.00    +0.000 NA
ATOM     25  C   UNL     1      45.769   3.904   8.066  0.00  0.00    +0.000 A 
ATOM     26  C   UNL     1      45.464   4.768   9.111  0.00  0.00    +0.000 A 
ENDBRANCH  19  21
ENDBRANCH  17  19
ENDBRANCH   1  17
TORSDOF 5
ENDMDL
MODEL 9
REMARK VINA RESULT:    -5.916      1.989      3.078
REMARK INTER + INTRA:          -8.234
REMARK INTER:                  -7.714
REMARK INTRA:                  -0.520
REMARK UNBOUND:                -0.589
REMARK  Name = 
REMARK  7 active torsions:
REMARK  status: ('A' for Active; 'I' for Inactive)
REMARK    1  A    between atoms: C_1  and  C_2
REMARK    2  A    between atoms: C_2  and  C_3
REMARK    3  A    between atoms: C_2  and  C_4
REMARK    4  A    between atoms: C_2  and  C_20
REMARK    5  A    between atoms: C_4  and  N_5
REMARK    6  A    between atoms: C_10  and  C_11
REMARK    7  A    between atoms: C_15  and  C_16
REMARK                            x       y       z     vdW  Elec       q    Type
REMARK                         _______ _______ _______ _____ _____    ______ ____
ROOT
ATOM      1  N   UNL     1      48.438   6.897  14.539  0.00  0.00    +0.000 N 
ATOM      2  C   UNL     1      47.470   7.340  13.650  0.00  0.00    +0.000 A 
ATOM      3  N   UNL     1      47.137   8.636  13.607  0.00  0.00    +0.000 NA
ATOM      4  C   UNL     1      46.125   8.976  12.794  0.00  0.00    +0.000 A 
ATOM      5  C   UNL     1      45.463   8.081  11.994  0.00  0.00    +0.000 A 
ATOM      6  C   UNL     1      45.878   6.768  12.079  0.00  0.00    +0.000 A 
ATOM      7  N   UNL     1      46.856   6.394  12.932  0.00  0.00    +0.000 NA
ATOM      8  H   UNL     1      47.928   6.410  15.271  0.00  0.00    +0.000 HD
ENDROOT
BRANCH   6   9
ATOM      9  C   UNL     1      45.250   5.679  11.303  0.00  0.00    +0.000 A 
ATOM     10  C   UNL     1      44.195   4.904  11.821  0.00  0.00    +0.000 A 
ATOM     11  C   UNL     1      43.658   3.831  11.105  0.00  0.00    +0.000 A 
ATOM     12  C   UNL     1      44.154   3.523   9.842  0.00  0.00    +0.000 A 
ATOM     13  C   UNL     1      45.175   4.294   9.284  0.00  0.00    +0.000 A 
ATOM     14  C   UNL     1      45.713   5.364  10.010  0.00  0.00    +0.000 A 
BRANCH  13  15
ATOM     15  C   UNL     1      45.679   3.983   7.983  0.00  0.00    +0.000 C 
ATOM     16  N   UNL     1      46.094   3.740   6.922  0.00  0.00    +0.000 NA
ENDBRANCH  13  15
ENDBRANCH   6   9
BRANCH   1  17
ATOM     17  C   UNL     1      49.343   7.921  15.046  0.00  0.00    +0.000 C 
BRANCH  17  19
ATOM     18  C   UNL     1      50.631   8.737  17.070  0.00  0.00    +0.000 C 
ATOM     19  C   UNL     1      49.429   7.879  16.606  0.00  0.00    +0.000 C 
ATOM     20  C   UNL     1      48.157   8.558  17.168  0.00  0.00    +0.000 C 
BRANCH  19  21
ATOM     21  C   UNL     1      49.516   6.420  17.101  0.00  0.00    +0.000 A 
ATOM     22  C   UNL     1      50.721   5.702  17.103  0.00  0.00    +0.000 A 
ATOM     23  C   UNL     1      50.728   4.370  17.492  0.00  0.00    +0.000 A 
ATOM     24  N   UNL     1      49.631   3.696  17.879  0.00  0.00    +0.000 NA
ATOM     25  C   UNL     1      48.476   4.390  17.887  0.00  0.00    +0.000 A 
ATOM     26  C   UNL     1      48.371   5.727  17.523  0.00  0.00    +0.000 A 
ENDBRANCH  19  21
ENDBRANCH  17  19
ENDBRANCH   1  17
TORSDOF 5
ENDMDL
