MODEL 1
REMARK VINA RESULT:    -7.933      0.000      0.000
REMARK INTER + INTRA:         -10.429
REMARK INTER:                  -9.789
REMARK INTRA:                  -0.640
REMARK UNBOUND:                -0.640
REMARK  Name = 
REMARK  4 active torsions:
REMARK  status: ('A' for Active; 'I' for Inactive)
REMARK    1  A    between atoms: C_2  and  C_4
REMARK    2  A    between atoms: C_7  and  O_8
REMARK    3  A    between atoms: O_8  and  C_9
REMARK    4  A    between atoms: C_9  and  C_10
REMARK                            x       y       z     vdW  Elec       q    Type
REMARK                         _______ _______ _______ _____ _____    ______ ____
ROOT
ATOM      1  C   UNL     1      46.328   2.288   7.811  0.00  0.00    +0.000 A 
ATOM      2  C   UNL     1      45.441   1.720   8.728  0.00  0.00    +0.000 A 
ATOM      3  C   UNL     1      44.517   2.541   9.378  0.00  0.00    +0.000 A 
ATOM      4  C   UNL     1      44.499   3.892   9.069  0.00  0.00    +0.000 A 
ATOM      5  N   UNL     1      45.358   4.471   8.204  0.00  0.00    +0.000 NA
ATOM      6  C   UNL     1      46.264   3.660   7.605  0.00  0.00    +0.000 A 
ENDROOT
BRANCH   1   8
ATOM      7  N   UNL     1      48.415   2.183   6.577  0.00  0.00    +0.000 N 
ATOM      8  C   UNL     1      47.329   1.508   7.057  0.00  0.00    +0.000 C 
ATOM      9  O   UNL     1      47.217   0.298   6.911  0.00  0.00    +0.000 OA
ATOM     10  H   UNL     1      49.150   1.612   6.174  0.00  0.00    +0.000 HD
ATOM     11  H   UNL     1      48.670   3.104   6.903  0.00  0.00    +0.000 HD
ENDBRANCH   1   8
BRANCH   4  12
ATOM     12  O   UNL     1      43.570   4.672   9.725  0.00  0.00    +0.000 OA
BRANCH  12  13
ATOM     13  C   UNL     1      43.535   4.385  11.126  0.00  0.00    +0.000 C 
BRANCH  13  14
ATOM     14  C   UNL     1      44.666   5.110  11.807  0.00  0.00    +0.000 A 
ATOM     15  C   UNL     1      44.729   6.512  11.783  0.00  0.00    +0.000 A 
ATOM     16  C   UNL     1      45.750   7.187  12.458  0.00  0.00    +0.000 A 
ATOM     17  C   UNL     1      46.719   6.470  13.160  0.00  0.00    +0.000 A 
ATOM     18  C   UNL     1      46.668   5.078  13.185  0.00  0.00    +0.000 A 
ATOM     19  C   UNL     1      45.647   4.411  12.513  0.00  0.00    +0.000 A 
ATOM     20  F   UNL     1      45.613   3.072  12.566  0.00  0.00    +0.000 F 
ENDBRANCH  13  14
ENDBRANCH  12  13
ENDBRANCH   4  12
TORSDOF 4
ENDMDL
MODEL 2
REMARK VINA RESULT:    -7.712      1.103      1.580
REMARK INTER + INTRA:         -10.156
REMARK INTER:                  -9.697
REMARK INTRA:                  -0.459
REMARK UNBOUND:                -0.640
REMARK  Name = 
REMARK  4 active torsions:
REMARK  status: ('A' for Active; 'I' for Inactive)
REMARK    1  A    between atoms: C_2  and  C_4
REMARK    2  A    between atoms: C_7  and  O_8
REMARK    3  A    between atoms: O_8  and  C_9
REMARK    4  A    between atoms: C_9  and  C_10
REMARK                            x       y       z     vdW  Elec       q    Type
REMARK                         _______ _______ _______ _____ _____    ______ ____
ROOT
ATOM      1  C   UNL     1      46.301   2.333   7.831  0.00  0.00    +0.000 A 
ATOM      2  C   UNL     1      45.382   1.772   8.720  0.00  0.00    +0.000 A 
ATOM      3  C   UNL     1      44.479   2.608   9.381  0.00  0.00    +0.000 A 
ATOM      4  C   UNL     1      44.515   3.967   9.110  0.00  0.00    +0.000 A 
ATOM      5  N   UNL     1      45.407   4.537   8.274  0.00  0.00    +0.000 NA
ATOM      6  C   UNL     1      46.290   3.711   7.664  0.00  0.00    +0.000 A 
ENDROOT
BRANCH   1   8
ATOM      7  N   UNL     1      48.395   2.188   6.611  0.00  0.00    +0.000 N 
ATOM      8  C   UNL     1      47.284   1.538   7.069  0.00  0.00    +0.000 C 
ATOM      9  O   UNL     1      47.135   0.336   6.895  0.00  0.00    +0.000 OA
ATOM     10  H   UNL     1      49.115   1.604   6.201  0.00  0.00    +0.000 HD
ATOM     11  H   UNL     1      48.675   3.094   6.958  0.00  0.00    +0.000 HD
ENDBRANCH   1   8
BRANCH   4  12
ATOM     12  O   UNL     1      43.605   4.761   9.776  0.00  0.00    +0.000 OA
BRANCH  12  13
ATOM     13  C   UNL     1      43.443   4.352  11.138  0.00  0.00    +0.000 C 
BRANCH  13  14
ATOM     14  C   UNL     1      44.574   4.913  11.960  0.00  0.00    +0.000 A 
ATOM     15  C   UNL     1      45.462   4.055  12.627  0.00  0.00    +0.000 A 
ATOM     16  C   UNL     1      46.541   4.574  13.348  0.00  0.00    +0.000 A 
ATOM     17  C   UNL     1      46.743   5.953  13.412  0.00  0.00    +0.000 A 
ATOM     18  C   UNL     1      45.864   6.812  12.757  0.00  0.00    +0.000 A 
ATOM     19  C   UNL     1      44.791   6.290  12.039  0.00  0.00    +0.000 A 
ATOM     20  F   UNL     1      43.969   7.138  11.406  0.00  0.00    +0.000 F 
ENDBRANCH  13  14
ENDBRANCH  12  13
ENDBRANCH   4  12
TORSDOF 4
ENDMDL
MODEL 3
REMARK VINA RESULT:    -7.274      2.831      5.885
REMARK INTER + INTRA:          -9.615
REMARK INTER:                  -9.202
REMARK INTRA:                  -0.413
REMARK UNBOUND:                -0.640
REMARK  Name = 
REMARK  4 active torsions:
REMARK  status: ('A' for Active; 'I' for Inactive)
REMARK    1  A    between atoms: C_2  and  C_4
REMARK    2  A    between atoms: C_7  and  O_8
REMARK    3  A    between atoms: O_8  and  C_9
REMARK    4  A    between atoms: C_9  and  C_10
REMARK                            x       y       z     vdW  Elec       q    Type
REMARK                         _______ _______ _______ _____ _____    ______ ____
ROOT
ATOM      1  C   UNL     1      46.224   4.694  13.143  0.00  0.00    +0.000 A 
ATOM      2  C   UNL     1      46.121   5.717  12.199  0.00  0.00    +0.000 A 
ATOM      3  C   UNL     1      45.474   5.462  10.988  0.00  0.00    +0.000 A 
ATOM      4  C   UNL     1      44.934   4.203  10.778  0.00  0.00    +0.000 A 
ATOM      5  N   UNL     1      45.039   3.190  11.662  0.00  0.00    +0.000 NA
ATOM      6  C   UNL     1      45.694   3.452  12.819  0.00  0.00    +0.000 A 
ENDROOT
BRANCH   1   8
ATOM      7  N   UNL     1      47.578   6.014  14.665  0.00  0.00    +0.000 N 
ATOM      8  C   UNL     1      46.871   4.863  14.459  0.00  0.00    +0.000 C 
ATOM      9  O   UNL     1      46.740   4.030  15.346  0.00  0.00    +0.000 OA
ATOM     10  H   UNL     1      47.907   6.169  15.611  0.00  0.00    +0.000 HD
ATOM     11  H   UNL     1      47.483   6.823  14.069  0.00  0.00    +0.000 HD
ENDBRANCH   1   8
BRANCH   4  12
ATOM     12  O   UNL     1      44.297   3.988   9.574  0.00  0.00    +0.000 OA
BRANCH  12  13
ATOM     13  C   UNL     1      44.470   2.643   9.117  0.00  0.00    +0.000 C 
BRANCH  13  14
ATOM     14  C   UNL     1      45.657   2.586   8.190  0.00  0.00    +0.000 A 
ATOM     15  C   UNL     1      46.183   3.762   7.636  0.00  0.00    +0.000 A 
ATOM     16  C   UNL     1      47.315   3.715   6.817  0.00  0.00    +0.000 A 
ATOM     17  C   UNL     1      47.931   2.493   6.542  0.00  0.00    +0.000 A 
ATOM     18  C   UNL     1      47.412   1.319   7.084  0.00  0.00    +0.000 A 
ATOM     19  C   UNL     1      46.285   1.372   7.901  0.00  0.00    +0.000 A 
ATOM     20  F   UNL     1      45.815   0.230   8.421  0.00  0.00    +0.000 F 
ENDBRANCH  13  14
ENDBRANCH  12  13
ENDBRANCH   4  12
TORSDOF 4
ENDMDL
MODEL 4
REMARK VINA RESULT:    -7.089      3.051      6.122
REMARK INTER + INTRA:          -9.387
REMARK INTER:                  -8.849
REMARK INTRA:                  -0.537
REMARK UNBOUND:                -0.640
REMARK  Name = 
REMARK  4 active torsions:
REMARK  status: ('A' for Active; 'I' for Inactive)
REMARK    1  A    between atoms: C_2  and  C_4
REMARK    2  A    between atoms: C_7  and  O_8
REMARK    3  A    between atoms: O_8  and  C_9
REMARK    4  A    between atoms: C_9  and  C_10
REMARK                            x       y       z     vdW  Elec       q    Type
REMARK                         _______ _______ _______ _____ _____    ______ ____
ROOT
ATOM      1  C   UNL     1      46.730   5.245  13.336  0.00  0.00    +0.000 A 
ATOM      2  C   UNL     1      46.148   5.874  12.233  0.00  0.00    +0.000 A 
ATOM      3  C   UNL     1      45.353   5.122  11.364  0.00  0.00    +0.000 A 
ATOM      4  C   UNL     1      45.153   3.780  11.643  0.00  0.00    +0.000 A 
ATOM      5  N   UNL     1      45.722   3.142  12.688  0.00  0.00    +0.000 NA
ATOM      6  C   UNL     1      46.510   3.885  13.503  0.00  0.00    +0.000 A 
ENDROOT
BRANCH   1   8
ATOM      7  N   UNL     1      47.612   7.314  14.250  0.00  0.00    +0.000 N 
ATOM      8  C   UNL     1      47.571   5.950  14.323  0.00  0.00    +0.000 C 
ATOM      9  O   UNL     1      48.168   5.343  15.202  0.00  0.00    +0.000 OA
ATOM     10  H   UNL     1      48.090   7.785  15.010  0.00  0.00    +0.000 HD
ATOM     11  H   UNL     1      46.937   7.850  13.724  0.00  0.00    +0.000 HD
ENDBRANCH   1   8
BRANCH   4  12
ATOM     12  O   UNL     1      44.358   3.070  10.768  0.00  0.00    +0.000 OA
BRANCH  12  13
ATOM     13  C   UNL     1      44.396   3.627   9.450  0.00  0.00    +0.000 C 
BRANCH  13  14
ATOM     14  C   UNL     1      45.437   2.902   8.638  0.00  0.00    +0.000 A 
ATOM     15  C   UNL     1      45.501   1.501   8.652  0.00  0.00    +0.000 A 
ATOM     16  C   UNL     1      46.433   0.825   7.860  0.00  0.00    +0.000 A 
ATOM     17  C   UNL     1      47.312   1.542   7.047  0.00  0.00    +0.000 A 
ATOM     18  C   UNL     1      47.259   2.934   7.030  0.00  0.00    +0.000 A 
ATOM     19  C   UNL     1      46.327   3.602   7.820  0.00  0.00    +0.000 A 
ATOM     20  F   UNL     1      46.288   4.941   7.774  0.00  0.00    +0.000 F 
ENDBRANCH  13  14
ENDBRANCH  12  13
ENDBRANCH   4  12
TORSDOF 4
ENDMDL
MODEL 5
REMARK VINA RESULT:    -6.851      2.855      6.285
REMARK INTER + INTRA:          -9.093
REMARK INTER:                  -8.611
REMARK INTRA:                  -0.482
REMARK UNBOUND:                -0.640
REMARK  Name = 
REMARK  4 active torsions:
REMARK  status: ('A' for Active; 'I' for Inactive)
REMARK    1  A    between atoms: C_2  and  C_4
REMARK    2  A    between atoms: C_7  and  O_8
REMARK    3  A    between atoms: O_8  and  C_9
REMARK    4  A    between atoms: C_9  and  C_10
REMARK                            x       y       z     vdW  Elec       q    Type
REMARK                         _______ _______ _______ _____ _____    ______ ____
ROOT
ATOM      1  C   UNL     1      46.020   6.435  12.488  0.00  0.00    +0.000 A 
ATOM      2  C   UNL     1      45.700   6.516  11.131  0.00  0.00    +0.000 A 
ATOM      3  C   UNL     1      45.252   5.370  10.470  0.00  0.00    +0.000 A 
ATOM      4  C   UNL     1      45.118   4.197  11.195  0.00  0.00    +0.000 A 
ATOM      5  N   UNL     1      45.441   4.085  12.500  0.00  0.00    +0.000 NA
ATOM      6  C   UNL     1      45.899   5.202  13.115  0.00  0.00    +0.000 A 
ENDROOT
BRANCH   1   8
ATOM      7  N   UNL     1      47.526   7.377  14.143  0.00  0.00    +0.000 N 
ATOM      8  C   UNL     1      46.485   7.588  13.284  0.00  0.00    +0.000 C 
ATOM      9  O   UNL     1      45.992   8.699  13.145  0.00  0.00    +0.000 OA
ATOM     10  H   UNL     1      47.912   8.203  14.585  0.00  0.00    +0.000 HD
ATOM     11  H   UNL     1      48.120   6.561  14.087  0.00  0.00    +0.000 HD
ENDBRANCH   1   8
BRANCH   4  12
ATOM     12  O   UNL     1      44.666   3.087  10.511  0.00  0.00    +0.000 OA
BRANCH  12  13
ATOM     13  C   UNL     1      44.517   3.353   9.113  0.00  0.00    +0.000 C 
BRANCH  13  14
ATOM     14  C   UNL     1      45.625   2.663   8.359  0.00  0.00    +0.000 A 
ATOM     15  C   UNL     1      45.747   1.266   8.395  0.00  0.00    +0.000 A 
ATOM     16  C   UNL     1      46.743   0.622   7.655  0.00  0.00    +0.000 A 
ATOM     17  C   UNL     1      47.627   1.367   6.875  0.00  0.00    +0.000 A 
ATOM     18  C   UNL     1      47.517   2.755   6.837  0.00  0.00    +0.000 A 
ATOM     19  C   UNL     1      46.522   3.391   7.574  0.00  0.00    +0.000 A 
ATOM     20  F   UNL     1      46.428   4.727   7.508  0.00  0.00    +0.000 F 
ENDBRANCH  13  14
ENDBRANCH  12  13
ENDBRANCH   4  12
TORSDOF 4
ENDMDL
MODEL 6
REMARK VINA RESULT:    -6.294      2.519      6.080
REMARK INTER + INTRA:          -8.406
REMARK INTER:                  -8.482
REMARK INTRA:                   0.076
REMARK UNBOUND:                -0.640
REMARK  Name = 
REMARK  4 active torsions:
REMARK  status: ('A' for Active; 'I' for Inactive)
REMARK    1  A    between atoms: C_2  and  C_4
REMARK    2  A    between atoms: C_7  and  O_8
REMARK    3  A    between atoms: O_8  and  C_9
REMARK    4  A    between atoms: C_9  and  C_10
REMARK                            x       y       z     vdW  Elec       q    Type
REMARK                         _______ _______ _______ _____ _____    ______ ____
ROOT
ATOM      1  C   UNL     1      45.223   6.368  11.797  0.00  0.00    +0.000 A 
ATOM      2  C   UNL     1      44.045   5.640  11.973  0.00  0.00    +0.000 A 
ATOM      3  C   UNL     1      43.688   4.684  11.020  0.00  0.00    +0.000 A 
ATOM      4  C   UNL     1      44.533   4.476   9.942  0.00  0.00    +0.000 A 
ATOM      5  N   UNL     1      45.665   5.180   9.735  0.00  0.00    +0.000 NA
ATOM      6  C   UNL     1      45.978   6.121  10.658  0.00  0.00    +0.000 A 
ENDROOT
BRANCH   1   8
ATOM      7  N   UNL     1      44.984   8.548  12.839  0.00  0.00    +0.000 N 
ATOM      8  C   UNL     1      45.700   7.387  12.752  0.00  0.00    +0.000 C 
ATOM      9  O   UNL     1      46.668   7.183  13.472  0.00  0.00    +0.000 OA
ATOM     10  H   UNL     1      45.251   9.179  13.586  0.00  0.00    +0.000 HD
ATOM     11  H   UNL     1      44.049   8.638  12.468  0.00  0.00    +0.000 HD
ENDBRANCH   1   8
BRANCH   4  12
ATOM     12  O   UNL     1      44.153   3.520   9.024  0.00  0.00    +0.000 OA
BRANCH  12  13
ATOM     13  C   UNL     1      44.987   2.359   9.092  0.00  0.00    +0.000 C 
BRANCH  13  14
ATOM     14  C   UNL     1      45.899   2.336   7.893  0.00  0.00    +0.000 A 
ATOM     15  C   UNL     1      46.061   3.481   7.100  0.00  0.00    +0.000 A 
ATOM     16  C   UNL     1      46.945   3.476   6.018  0.00  0.00    +0.000 A 
ATOM     17  C   UNL     1      47.674   2.325   5.715  0.00  0.00    +0.000 A 
ATOM     18  C   UNL     1      47.516   1.181   6.494  0.00  0.00    +0.000 A 
ATOM     19  C   UNL     1      46.635   1.193   7.572  0.00  0.00    +0.000 A 
ATOM     20  F   UNL     1      46.514   0.083   8.314  0.00  0.00    +0.000 F 
ENDBRANCH  13  14
ENDBRANCH  12  13
ENDBRANCH   4  12
TORSDOF 4
ENDMDL
MODEL 7
REMARK VINA RESULT:    -6.139      4.299      6.452
REMARK INTER + INTRA:          -8.215
REMARK INTER:                  -7.828
REMARK INTRA:                  -0.387
REMARK UNBOUND:                -0.640
REMARK  Name = 
REMARK  4 active torsions:
REMARK  status: ('A' for Active; 'I' for Inactive)
REMARK    1  A    between atoms: C_2  and  C_4
REMARK    2  A    between atoms: C_7  and  O_8
REMARK    3  A    between atoms: O_8  and  C_9
REMARK    4  A    between atoms: C_9  and  C_10
REMARK                            x       y       z     vdW  Elec       q    Type
REMARK                         _______ _______ _______ _____ _____    ______ ____
ROOT
ATOM      1  C   UNL     1      44.766   5.037  12.085  0.00  0.00    +0.000 A 
ATOM      2  C   UNL     1      45.617   5.813  12.874  0.00  0.00    +0.000 A 
ATOM      3  C   UNL     1      46.545   5.176  13.701  0.00  0.00    +0.000 A 
ATOM      4  C   UNL     1      46.601   3.792  13.691  0.00  0.00    +0.000 A 
ATOM      5  N   UNL     1      45.776   3.017  12.957  0.00  0.00    +0.000 NA
ATOM      6  C   UNL     1      44.866   3.655  12.182  0.00  0.00    +0.000 A 
ENDROOT
BRANCH   1   8
ATOM      7  N   UNL     1      43.414   6.915  11.353  0.00  0.00    +0.000 N 
ATOM      8  C   UNL     1      43.764   5.608  11.164  0.00  0.00    +0.000 C 
ATOM      9  O   UNL     1      43.301   4.954  10.239  0.00  0.00    +0.000 OA
ATOM     10  H   UNL     1      42.823   7.325  10.638  0.00  0.00    +0.000 HD
ATOM     11  H   UNL     1      43.961   7.547  11.920  0.00  0.00    +0.000 HD
ENDBRANCH   1   8
BRANCH   4  12
ATOM     12  O   UNL     1      47.533   3.197  14.516  0.00  0.00    +0.000 OA
BRANCH  12  13
ATOM     13  C   UNL     1      47.374   3.611  15.877  0.00  0.00    +0.000 C 
BRANCH  13  14
ATOM     14  C   UNL     1      48.690   3.463  16.595  0.00  0.00    +0.000 A 
ATOM     15  C   UNL     1      49.330   2.216  16.658  0.00  0.00    +0.000 A 
ATOM     16  C   UNL     1      50.576   2.089  17.279  0.00  0.00    +0.000 A 
ATOM     17  C   UNL     1      51.193   3.205  17.845  0.00  0.00    +0.000 A 
ATOM     18  C   UNL     1      50.563   4.446  17.792  0.00  0.00    +0.000 A 
ATOM     19  C   UNL     1      49.323   4.568  17.170  0.00  0.00    +0.000 A 
ATOM     20  F   UNL     1      48.746   5.776  17.120  0.00  0.00    +0.000 F 
ENDBRANCH  13  14
ENDBRANCH  12  13
ENDBRANCH   4  12
TORSDOF 4
ENDMDL
MODEL 8
REMARK VINA RESULT:    -5.974      3.832      6.468
REMARK INTER + INTRA:          -8.011
REMARK INTER:                  -7.557
REMARK INTRA:                  -0.454
REMARK UNBOUND:                -0.640
REMARK  Name = 
REMARK  4 active torsions:
REMARK  status: ('A' for Active; 'I' for Inactive)
REMARK    1  A    between atoms: C_2  and  C_4
REMARK    2  A    between atoms: C_7  and  O_8
REMARK    3  A    between atoms: O_8  and  C_9
REMARK    4  A    between atoms: C_9  and  C_10
REMARK                            x       y       z     vdW  Elec       q    Type
REMARK                         _______ _______ _______ _____ _____    ______ ____
ROOT
ATOM      1  C   UNL     1      47.678   5.255  15.247  0.00  0.00    +0.000 A 
ATOM      2  C   UNL     1      46.735   4.420  14.642  0.00  0.00    +0.000 A 
ATOM      3  C   UNL     1      46.299   4.714  13.348  0.00  0.00    +0.000 A 
ATOM      4  C   UNL     1      46.838   5.814  12.701  0.00  0.00    +0.000 A 
ATOM      5  N   UNL     1      47.732   6.649  13.269  0.00  0.00    +0.000 NA
ATOM      6  C   UNL     1      48.121   6.361  14.534  0.00  0.00    +0.000 A 
ENDROOT
BRANCH   1   8
ATOM      7  N   UNL     1      47.372   5.225  17.654  0.00  0.00    +0.000 N 
ATOM      8  C   UNL     1      48.218   5.024  16.601  0.00  0.00    +0.000 C 
ATOM      9  O   UNL     1      49.361   4.624  16.772  0.00  0.00    +0.000 OA
ATOM     10  H   UNL     1      47.720   4.942  18.564  0.00  0.00    +0.000 HD
ATOM     11  H   UNL     1      46.370   5.291  17.541  0.00  0.00    +0.000 HD
ENDBRANCH   1   8
BRANCH   4  12
ATOM     12  O   UNL     1      46.388   6.070  11.422  0.00  0.00    +0.000 OA
BRANCH  12  13
ATOM     13  C   UNL     1      45.065   5.565  11.216  0.00  0.00    +0.000 C 
BRANCH  13  14
ATOM     14  C   UNL     1      45.099   4.520  10.132  0.00  0.00    +0.000 A 
ATOM     15  C   UNL     1      45.705   4.796   8.897  0.00  0.00    +0.000 A 
ATOM     16  C   UNL     1      45.782   3.810   7.910  0.00  0.00    +0.000 A 
ATOM     17  C   UNL     1      45.253   2.540   8.144  0.00  0.00    +0.000 A 
ATOM     18  C   UNL     1      44.645   2.258   9.366  0.00  0.00    +0.000 A 
ATOM     19  C   UNL     1      44.573   3.244  10.347  0.00  0.00    +0.000 A 
ATOM     20  F   UNL     1      43.996   2.942  11.518  0.00  0.00    +0.000 F 
ENDBRANCH  13  14
ENDBRANCH  12  13
ENDBRANCH   4  12
TORSDOF 4
ENDMDL
MODEL 9
REMARK VINA RESULT:    -5.414      5.659      8.192
REMARK INTER + INTRA:          -7.320
REMARK INTER:                  -6.978
REMARK INTRA:                  -0.342
REMARK UNBOUND:                -0.640
REMARK  Name = 
REMARK  4 active torsions:
REMARK  status: ('A' for Active; 'I' for Inactive)
REMARK    1  A    between atoms: C_2  and  C_4
REMARK    2  A    between atoms: C_7  and  O_8
REMARK    3  A    between atoms: O_8  and  C_9
REMARK    4  A    between atoms: C_9  and  C_10
REMARK                            x       y       z     vdW  Elec       q    Type
REMARK                         _______ _______ _______ _____ _____    ______ ____
ROOT
ATOM      1  C   UNL     1      48.760   4.877  18.136  0.00  0.00    +0.000 A 
ATOM      2  C   UNL     1      47.946   3.742  18.132  0.00  0.00    +0.000 A 
ATOM      3  C   UNL     1      47.302   3.374  16.949  0.00  0.00    +0.000 A 
ATOM      4  C   UNL     1      47.514   4.138  15.812  0.00  0.00    +0.000 A 
ATOM      5  N   UNL     1      48.277   5.250  15.794  0.00  0.00    +0.000 NA
ATOM      6  C   UNL     1      48.871   5.605  16.959  0.00  0.00    +0.000 A 
ENDROOT
BRANCH   1   8
ATOM      7  N   UNL     1      49.914   4.393  20.217  0.00  0.00    +0.000 N 
ATOM      8  C   UNL     1      49.499   5.343  19.326  0.00  0.00    +0.000 C 
ATOM      9  O   UNL     1      49.772   6.525  19.485  0.00  0.00    +0.000 OA
ATOM     10  H   UNL     1      50.525   4.716  20.958  0.00  0.00    +0.000 HD
ATOM     11  H   UNL     1      49.942   3.410  19.988  0.00  0.00    +0.000 HD
ENDBRANCH   1   8
BRANCH   4  12
ATOM     12  O   UNL     1      46.867   3.741  14.661  0.00  0.00    +0.000 OA
BRANCH  12  13
ATOM     13  C   UNL     1      46.715   4.825  13.740  0.00  0.00    +0.000 C 
BRANCH  13  14
ATOM     14  C   UNL     1      45.444   4.630  12.955  0.00  0.00    +0.000 A 
ATOM     15  C   UNL     1      45.073   3.354  12.507  0.00  0.00    +0.000 A 
ATOM     16  C   UNL     1      43.869   3.164  11.823  0.00  0.00    +0.000 A 
ATOM     17  C   UNL     1      43.025   4.248  11.577  0.00  0.00    +0.000 A 
ATOM     18  C   UNL     1      43.387   5.520  12.013  0.00  0.00    +0.000 A 
ATOM     19  C   UNL     1      44.587   5.703  12.695  0.00  0.00    +0.000 A 
ATOM     20  F   UNL     1      44.905   6.935  13.117  0.00  0.00    +0.000 F 
ENDBRANCH  13  14
ENDBRANCH  12  13
ENDBRANCH   4  12
TORSDOF 4
ENDMDL
