MODEL 1
REMARK VINA RESULT:    -6.359      0.000      0.000
REMARK INTER + INTRA:          -8.268
REMARK INTER:                  -8.032
REMARK INTRA:                  -0.236
REMARK UNBOUND:                -0.236
REMARK  Name = 
REMARK  5 active torsions:
REMARK  status: ('A' for Active; 'I' for Inactive)
REMARK    1  A    between atoms: C_2  and  C_4
REMARK    2  A    between atoms: C_7  and  C_8
REMARK    3  A    between atoms: C_11  and  C_12
REMARK    4  A    between atoms: C_12  and  C_13
REMARK    5  A    between atoms: C_20  and  O_21
REMARK                            x       y       z     vdW  Elec       q    Type
REMARK                         _______ _______ _______ _____ _____    ______ ____
ROOT
ATOM      1  C   UNL     1      47.589   5.047  15.086  0.00  0.00    +0.000 A 
ATOM      2  N   UNL     1      48.612   5.880  14.809  0.00  0.00    +0.000 NA
ATOM      3  N   UNL     1      49.569   6.144  15.774  0.00  0.00    +0.000 NA
ATOM      4  C   UNL     1      49.480   5.579  17.001  0.00  0.00    +0.000 A 
ATOM      5  N   UNL     1      48.476   4.740  17.321  0.00  0.00    +0.000 NA
ATOM      6  C   UNL     1      47.571   4.497  16.358  0.00  0.00    +0.000 A 
ENDROOT
BRANCH   1  10
ATOM      7  C   UNL     1      44.775   4.180  12.031  0.00  0.00    +0.000 A 
ATOM      8  C   UNL     1      44.883   5.494  12.456  0.00  0.00    +0.000 A 
ATOM      9  C   UNL     1      45.813   5.789  13.451  0.00  0.00    +0.000 A 
ATOM     10  C   UNL     1      46.614   4.784  14.018  0.00  0.00    +0.000 A 
ATOM     11  C   UNL     1      46.424   3.498  13.501  0.00  0.00    +0.000 A 
ATOM     12  N   UNL     1      45.527   3.164  12.533  0.00  0.00    +0.000 NA
BRANCH   7  14
ATOM     13  N   UNL     1      43.761   4.665   9.883  0.00  0.00    +0.000 N 
ATOM     14  C   UNL     1      43.784   3.829  10.962  0.00  0.00    +0.000 C 
ATOM     15  O   UNL     1      43.038   2.860  11.049  0.00  0.00    +0.000 OA
ATOM     16  H   UNL     1      43.104   4.497   9.136  0.00  0.00    +0.000 HD
ATOM     17  H   UNL     1      44.385   5.462   9.856  0.00  0.00    +0.000 HD
ENDBRANCH   7  14
ENDBRANCH   1  10
BRANCH   4  18
ATOM     18  C   UNL     1      50.565   5.784  18.021  0.00  0.00    +0.000 C 
ATOM     19  C   UNL     1      50.219   6.038  19.488  0.00  0.00    +0.000 C 
ATOM     20  C   UNL     1      50.636   7.192  18.638  0.00  0.00    +0.000 C 
BRANCH  18  21
ATOM     21  C   UNL     1      51.830   5.046  17.708  0.00  0.00    +0.000 C 
ATOM     22  F   UNL     1      52.576   5.651  16.752  0.00  0.00    +0.000 F 
ATOM     23  F   UNL     1      52.612   4.931  18.811  0.00  0.00    +0.000 F 
ATOM     24  F   UNL     1      51.566   3.789  17.276  0.00  0.00    +0.000 F 
ENDBRANCH  18  21
ENDBRANCH   4  18
BRANCH   6  25
ATOM     25  O   UNL     1      46.646   3.591  16.763  0.00  0.00    +0.000 OA
ATOM     26  H   UNL     1      47.193   3.007  17.320  0.00  0.00    +0.000 HD
ENDBRANCH   6  25
TORSDOF 5
ENDMDL
MODEL 2
REMARK VINA RESULT:    -6.138      1.325      1.783
REMARK INTER + INTRA:          -7.988
REMARK INTER:                  -7.811
REMARK INTRA:                  -0.177
REMARK UNBOUND:                -0.236
REMARK  Name = 
REMARK  5 active torsions:
REMARK  status: ('A' for Active; 'I' for Inactive)
REMARK    1  A    between atoms: C_2  and  C_4
REMARK    2  A    between atoms: C_7  and  C_8
REMARK    3  A    between atoms: C_11  and  C_12
REMARK    4  A    between atoms: C_12  and  C_13
REMARK    5  A    between atoms: C_20  and  O_21
REMARK                            x       y       z     vdW  Elec       q    Type
REMARK                         _______ _______ _______ _____ _____    ______ ____
ROOT
ATOM      1  C   UNL     1      47.631   5.103  15.057  0.00  0.00    +0.000 A 
ATOM      2  N   UNL     1      48.652   5.935  14.771  0.00  0.00    +0.000 NA
ATOM      3  N   UNL     1      49.608   6.212  15.733  0.00  0.00    +0.000 NA
ATOM      4  C   UNL     1      49.520   5.661  16.966  0.00  0.00    +0.000 A 
ATOM      5  N   UNL     1      48.517   4.824  17.295  0.00  0.00    +0.000 NA
ATOM      6  C   UNL     1      47.613   4.568  16.334  0.00  0.00    +0.000 A 
ENDROOT
BRANCH   1  10
ATOM      7  C   UNL     1      44.817   4.195  12.013  0.00  0.00    +0.000 A 
ATOM      8  C   UNL     1      44.957   5.521  12.388  0.00  0.00    +0.000 A 
ATOM      9  C   UNL     1      45.888   5.829  13.379  0.00  0.00    +0.000 A 
ATOM     10  C   UNL     1      46.657   4.826  13.991  0.00  0.00    +0.000 A 
ATOM     11  C   UNL     1      46.435   3.526  13.522  0.00  0.00    +0.000 A 
ATOM     12  N   UNL     1      45.537   3.179  12.560  0.00  0.00    +0.000 NA
BRANCH   7  14
ATOM     13  N   UNL     1      43.792   4.659   9.866  0.00  0.00    +0.000 N 
ATOM     14  C   UNL     1      43.825   3.830  10.950  0.00  0.00    +0.000 C 
ATOM     15  O   UNL     1      43.086   2.856  11.045  0.00  0.00    +0.000 OA
ATOM     16  H   UNL     1      43.133   4.481   9.122  0.00  0.00    +0.000 HD
ATOM     17  H   UNL     1      44.410   5.460   9.831  0.00  0.00    +0.000 HD
ENDBRANCH   7  14
ENDBRANCH   1  10
BRANCH   4  18
ATOM     18  C   UNL     1      50.604   5.880  17.985  0.00  0.00    +0.000 C 
ATOM     19  C   UNL     1      52.058   6.060  17.550  0.00  0.00    +0.000 C 
ATOM     20  C   UNL     1      51.633   4.744  18.111  0.00  0.00    +0.000 C 
BRANCH  18  21
ATOM     21  C   UNL     1      50.135   6.597  19.213  0.00  0.00    +0.000 C 
ATOM     22  F   UNL     1      49.618   5.767  20.150  0.00  0.00    +0.000 F 
ATOM     23  F   UNL     1      51.155   7.275  19.799  0.00  0.00    +0.000 F 
ATOM     24  F   UNL     1      49.177   7.507  18.909  0.00  0.00    +0.000 F 
ENDBRANCH  18  21
ENDBRANCH   4  18
BRANCH   6  25
ATOM     25  O   UNL     1      46.690   3.664  16.750  0.00  0.00    +0.000 OA
ATOM     26  H   UNL     1      46.655   3.863  17.704  0.00  0.00    +0.000 HD
ENDBRANCH   6  25
TORSDOF 5
ENDMDL
MODEL 3
REMARK VINA RESULT:    -5.941      4.297      8.160
REMARK INTER + INTRA:          -7.739
REMARK INTER:                  -7.999
REMARK INTRA:                   0.259
REMARK UNBOUND:                -0.236
REMARK  Name = 
REMARK  5 active torsions:
REMARK  status: ('A' for Active; 'I' for Inactive)
REMARK    1  A    between atoms: C_2  and  C_4
REMARK    2  A    between atoms: C_7  and  C_8
REMARK    3  A    between atoms: C_11  and  C_12
REMARK    4  A    between atoms: C_12  and  C_13
REMARK    5  A    between atoms: C_20  and  O_21
REMARK                            x       y       z     vdW  Elec       q    Type
REMARK                         _______ _______ _______ _____ _____    ______ ____
ROOT
ATOM      1  C   UNL     1      46.897   4.778  14.418  0.00  0.00    +0.000 A 
ATOM      2  N   UNL     1      46.352   3.623  13.986  0.00  0.00    +0.000 NA
ATOM      3  N   UNL     1      45.452   3.634  12.934  0.00  0.00    +0.000 NA
ATOM      4  C   UNL     1      45.104   4.800  12.341  0.00  0.00    +0.000 A 
ATOM      5  N   UNL     1      45.623   5.978  12.741  0.00  0.00    +0.000 NA
ATOM      6  C   UNL     1      46.502   5.929  13.756  0.00  0.00    +0.000 A 
ENDROOT
BRANCH   1  10
ATOM      7  C   UNL     1      49.702   4.679  17.600  0.00  0.00    +0.000 A 
ATOM      8  C   UNL     1      48.841   3.604  17.465  0.00  0.00    +0.000 A 
ATOM      9  C   UNL     1      47.924   3.623  16.416  0.00  0.00    +0.000 A 
ATOM     10  C   UNL     1      47.864   4.705  15.522  0.00  0.00    +0.000 A 
ATOM     11  C   UNL     1      48.790   5.729  15.752  0.00  0.00    +0.000 A 
ATOM     12  N   UNL     1      49.700   5.753  16.764  0.00  0.00    +0.000 NA
BRANCH   7  14
ATOM     13  N   UNL     1      50.201   4.408  19.956  0.00  0.00    +0.000 N 
ATOM     14  C   UNL     1      50.701   4.690  18.718  0.00  0.00    +0.000 C 
ATOM     15  O   UNL     1      51.887   4.943  18.538  0.00  0.00    +0.000 OA
ATOM     16  H   UNL     1      50.816   4.419  20.756  0.00  0.00    +0.000 HD
ATOM     17  H   UNL     1      49.212   4.219  20.065  0.00  0.00    +0.000 HD
ENDBRANCH   7  14
ENDBRANCH   1  10
BRANCH   4  18
ATOM     18  C   UNL     1      44.202   4.812  11.138  0.00  0.00    +0.000 C 
ATOM     19  C   UNL     1      43.063   5.825  11.027  0.00  0.00    +0.000 C 
ATOM     20  C   UNL     1      42.739   4.417  11.404  0.00  0.00    +0.000 C 
BRANCH  18  21
ATOM     21  C   UNL     1      44.876   4.359   9.880  0.00  0.00    +0.000 C 
ATOM     22  F   UNL     1      45.317   3.080   9.943  0.00  0.00    +0.000 F 
ATOM     23  F   UNL     1      44.031   4.439   8.821  0.00  0.00    +0.000 F 
ATOM     24  F   UNL     1      45.946   5.140   9.593  0.00  0.00    +0.000 F 
ENDBRANCH  18  21
ENDBRANCH   4  18
BRANCH   6  25
ATOM     25  O   UNL     1      47.011   7.156  14.031  0.00  0.00    +0.000 OA
ATOM     26  H   UNL     1      47.525   6.966  14.837  0.00  0.00    +0.000 HD
ENDBRANCH   6  25
TORSDOF 5
ENDMDL
MODEL 4
REMARK VINA RESULT:    -5.906      2.110      2.644
REMARK INTER + INTRA:          -7.696
REMARK INTER:                  -7.862
REMARK INTRA:                   0.166
REMARK UNBOUND:                -0.236
REMARK  Name = 
REMARK  5 active torsions:
REMARK  status: ('A' for Active; 'I' for Inactive)
REMARK    1  A    between atoms: C_2  and  C_4
REMARK    2  A    between atoms: C_7  and  C_8
REMARK    3  A    between atoms: C_11  and  C_12
REMARK    4  A    between atoms: C_12  and  C_13
REMARK    5  A    between atoms: C_20  and  O_21
REMARK                            x       y       z     vdW  Elec       q    Type
REMARK                         _______ _______ _______ _____ _____    ______ ____
ROOT
ATOM      1  C   UNL     1      47.383   4.603  14.886  0.00  0.00    +0.000 A 
ATOM      2  N   UNL     1      47.555   3.438  15.541  0.00  0.00    +0.000 NA
ATOM      3  N   UNL     1      48.422   3.372  16.619  0.00  0.00    +0.000 NA
ATOM      4  C   UNL     1      49.108   4.469  17.016  0.00  0.00    +0.000 A 
ATOM      5  N   UNL     1      48.967   5.654  16.390  0.00  0.00    +0.000 NA
ATOM      6  C   UNL     1      48.110   5.685  15.356  0.00  0.00    +0.000 A 
ENDROOT
BRANCH   1  10
ATOM      7  C   UNL     1      44.658   4.768  11.637  0.00  0.00    +0.000 A 
ATOM      8  C   UNL     1      45.228   3.543  11.941  0.00  0.00    +0.000 A 
ATOM      9  C   UNL     1      46.115   3.478  13.014  0.00  0.00    +0.000 A 
ATOM     10  C   UNL     1      46.434   4.622  13.764  0.00  0.00    +0.000 A 
ATOM     11  C   UNL     1      45.789   5.800  13.371  0.00  0.00    +0.000 A 
ATOM     12  N   UNL     1      44.919   5.910  12.330  0.00  0.00    +0.000 NA
BRANCH   7  14
ATOM     13  N   UNL     1      44.182   4.463   9.281  0.00  0.00    +0.000 N 
ATOM     14  C   UNL     1      43.699   4.873  10.490  0.00  0.00    +0.000 C 
ATOM     15  O   UNL     1      42.559   5.305  10.622  0.00  0.00    +0.000 OA
ATOM     16  H   UNL     1      43.594   4.526   8.463  0.00  0.00    +0.000 HD
ATOM     17  H   UNL     1      45.134   4.125   9.211  0.00  0.00    +0.000 HD
ENDBRANCH   7  14
ENDBRANCH   1  10
BRANCH   4  18
ATOM     18  C   UNL     1      49.976   4.430  18.242  0.00  0.00    +0.000 C 
ATOM     19  C   UNL     1      51.374   5.049  18.228  0.00  0.00    +0.000 C 
ATOM     20  C   UNL     1      51.244   3.566  18.129  0.00  0.00    +0.000 C 
BRANCH  18  21
ATOM     21  C   UNL     1      49.203   4.450  19.524  0.00  0.00    +0.000 C 
ATOM     22  F   UNL     1      49.981   4.664  20.612  0.00  0.00    +0.000 F 
ATOM     23  F   UNL     1      48.261   5.427  19.509  0.00  0.00    +0.000 F 
ATOM     24  F   UNL     1      48.554   3.276  19.719  0.00  0.00    +0.000 F 
ENDBRANCH  18  21
ENDBRANCH   4  18
BRANCH   6  25
ATOM     25  O   UNL     1      47.994   6.937  14.845  0.00  0.00    +0.000 OA
ATOM     26  H   UNL     1      48.201   6.773  13.907  0.00  0.00    +0.000 HD
ENDBRANCH   6  25
TORSDOF 5
ENDMDL
MODEL 5
REMARK VINA RESULT:    -5.882      3.765      7.928
REMARK INTER + INTRA:          -7.666
REMARK INTER:                  -7.701
REMARK INTRA:                   0.035
REMARK UNBOUND:                -0.236
REMARK  Name = 
REMARK  5 active torsions:
REMARK  status: ('A' for Active; 'I' for Inactive)
REMARK    1  A    between atoms: C_2  and  C_4
REMARK    2  A    between atoms: C_7  and  C_8
REMARK    3  A    between atoms: C_11  and  C_12
REMARK    4  A    between atoms: C_12  and  C_13
REMARK    5  A    between atoms: C_20  and  O_21
REMARK                            x       y       z     vdW  Elec       q    Type
REMARK                         _______ _______ _______ _____ _____    ______ ____
ROOT
ATOM      1  C   UNL     1      48.348   5.133  16.081  0.00  0.00    +0.000 A 
ATOM      2  N   UNL     1      48.664   5.876  15.001  0.00  0.00    +0.000 NA
ATOM      3  N   UNL     1      47.864   5.829  13.872  0.00  0.00    +0.000 NA
ATOM      4  C   UNL     1      46.770   5.033  13.839  0.00  0.00    +0.000 A 
ATOM      5  N   UNL     1      46.417   4.274  14.894  0.00  0.00    +0.000 NA
ATOM      6  C   UNL     1      47.209   4.353  15.977  0.00  0.00    +0.000 A 
ENDROOT
BRANCH   1  10
ATOM      7  C   UNL     1      50.933   5.365  19.438  0.00  0.00    +0.000 A 
ATOM      8  C   UNL     1      50.024   6.393  19.251  0.00  0.00    +0.000 A 
ATOM      9  C   UNL     1      49.164   6.319  18.156  0.00  0.00    +0.000 A 
ATOM     10  C   UNL     1      49.219   5.239  17.260  0.00  0.00    +0.000 A 
ATOM     11  C   UNL     1      50.169   4.256  17.559  0.00  0.00    +0.000 A 
ATOM     12  N   UNL     1      51.029   4.288  18.613  0.00  0.00    +0.000 NA
BRANCH   7  14
ATOM     13  N   UNL     1      52.085   6.652  21.138  0.00  0.00    +0.000 N 
ATOM     14  C   UNL     1      51.872   5.413  20.606  0.00  0.00    +0.000 C 
ATOM     15  O   UNL     1      52.421   4.411  21.051  0.00  0.00    +0.000 OA
ATOM     16  H   UNL     1      52.722   6.758  21.914  0.00  0.00    +0.000 HD
ATOM     17  H   UNL     1      51.623   7.456  20.733  0.00  0.00    +0.000 HD
ENDBRANCH   7  14
ENDBRANCH   1  10
BRANCH   4  18
ATOM     18  C   UNL     1      45.845   5.048  12.654  0.00  0.00    +0.000 C 
ATOM     19  C   UNL     1      46.042   6.057  11.523  0.00  0.00    +0.000 C 
ATOM     20  C   UNL     1      44.959   6.300  12.522  0.00  0.00    +0.000 C 
BRANCH  18  21
ATOM     21  C   UNL     1      45.283   3.702  12.316  0.00  0.00    +0.000 C 
ATOM     22  F   UNL     1      44.053   3.490  12.843  0.00  0.00    +0.000 F 
ATOM     23  F   UNL     1      45.174   3.545  10.972  0.00  0.00    +0.000 F 
ATOM     24  F   UNL     1      46.090   2.711  12.766  0.00  0.00    +0.000 F 
ENDBRANCH  18  21
ENDBRANCH   4  18
BRANCH   6  25
ATOM     25  O   UNL     1      46.725   3.604  17.000  0.00  0.00    +0.000 OA
ATOM     26  H   UNL     1      46.849   2.705  16.645  0.00  0.00    +0.000 HD
ENDBRANCH   6  25
TORSDOF 5
ENDMDL
MODEL 6
REMARK VINA RESULT:    -5.838      2.684      3.154
REMARK INTER + INTRA:          -7.610
REMARK INTER:                  -7.260
REMARK INTRA:                  -0.350
REMARK UNBOUND:                -0.236
REMARK  Name = 
REMARK  5 active torsions:
REMARK  status: ('A' for Active; 'I' for Inactive)
REMARK    1  A    between atoms: C_2  and  C_4
REMARK    2  A    between atoms: C_7  and  C_8
REMARK    3  A    between atoms: C_11  and  C_12
REMARK    4  A    between atoms: C_12  and  C_13
REMARK    5  A    between atoms: C_20  and  O_21
REMARK                            x       y       z     vdW  Elec       q    Type
REMARK                         _______ _______ _______ _____ _____    ______ ____
ROOT
ATOM      1  C   UNL     1      47.677   6.888  13.672  0.00  0.00    +0.000 A 
ATOM      2  N   UNL     1      48.778   6.237  14.095  0.00  0.00    +0.000 NA
ATOM      3  N   UNL     1      49.649   6.854  14.977  0.00  0.00    +0.000 NA
ATOM      4  C   UNL     1      49.409   8.114  15.410  0.00  0.00    +0.000 A 
ATOM      5  N   UNL     1      48.321   8.801  15.012  0.00  0.00    +0.000 NA
ATOM      6  C   UNL     1      47.491   8.168  14.167  0.00  0.00    +0.000 A 
ENDROOT
BRANCH   1  10
ATOM      7  C   UNL     1      45.018   4.794  11.112  0.00  0.00    +0.000 A 
ATOM      8  C   UNL     1      45.716   5.865  10.581  0.00  0.00    +0.000 A 
ATOM      9  C   UNL     1      46.600   6.551  11.412  0.00  0.00    +0.000 A 
ATOM     10  C   UNL     1      46.775   6.177  12.754  0.00  0.00    +0.000 A 
ATOM     11  C   UNL     1      46.025   5.073  13.175  0.00  0.00    +0.000 A 
ATOM     12  N   UNL     1      45.149   4.375  12.400  0.00  0.00    +0.000 NA
BRANCH   7  14
ATOM     13  N   UNL     1      44.076   4.362   8.921  0.00  0.00    +0.000 N 
ATOM     14  C   UNL     1      44.060   4.033  10.245  0.00  0.00    +0.000 C 
ATOM     15  O   UNL     1      43.304   3.177  10.693  0.00  0.00    +0.000 OA
ATOM     16  H   UNL     1      43.441   3.903   8.285  0.00  0.00    +0.000 HD
ATOM     17  H   UNL     1      44.706   5.085   8.593  0.00  0.00    +0.000 HD
ENDBRANCH   7  14
ENDBRANCH   1  10
BRANCH   4  18
ATOM     18  C   UNL     1      50.297   8.755  16.440  0.00  0.00    +0.000 C 
ATOM     19  C   UNL     1      50.604  10.251  16.383  0.00  0.00    +0.000 C 
ATOM     20  C   UNL     1      51.642   9.287  15.915  0.00  0.00    +0.000 C 
BRANCH  18  21
ATOM     21  C   UNL     1      50.234   8.093  17.781  0.00  0.00    +0.000 C 
ATOM     22  F   UNL     1      50.549   8.926  18.802  0.00  0.00    +0.000 F 
ATOM     23  F   UNL     1      48.988   7.613  18.028  0.00  0.00    +0.000 F 
ATOM     24  F   UNL     1      51.084   7.039  17.845  0.00  0.00    +0.000 F 
ENDBRANCH  18  21
ENDBRANCH   4  18
BRANCH   6  25
ATOM     25  O   UNL     1      46.398   8.923  13.886  0.00  0.00    +0.000 OA
ATOM     26  H   UNL     1      46.368   9.501  14.670  0.00  0.00    +0.000 HD
ENDBRANCH   6  25
TORSDOF 5
ENDMDL
MODEL 7
REMARK VINA RESULT:    -5.523      3.423      3.935
REMARK INTER + INTRA:          -7.212
REMARK INTER:                  -7.099
REMARK INTRA:                  -0.112
REMARK UNBOUND:                -0.236
REMARK  Name = 
REMARK  5 active torsions:
REMARK  status: ('A' for Active; 'I' for Inactive)
REMARK    1  A    between atoms: C_2  and  C_4
REMARK    2  A    between atoms: C_7  and  C_8
REMARK    3  A    between atoms: C_11  and  C_12
REMARK    4  A    between atoms: C_12  and  C_13
REMARK    5  A    between atoms: C_20  and  O_21
REMARK                            x       y       z     vdW  Elec       q    Type
REMARK                         _______ _______ _______ _____ _____    ______ ____
ROOT
ATOM      1  C   UNL     1      47.475   6.728  13.423  0.00  0.00    +0.000 A 
ATOM      2  N   UNL     1      48.704   6.309  13.786  0.00  0.00    +0.000 NA
ATOM      3  N   UNL     1      49.557   7.170  14.454  0.00  0.00    +0.000 NA
ATOM      4  C   UNL     1      49.172   8.436  14.738  0.00  0.00    +0.000 A 
ATOM      5  N   UNL     1      47.953   8.896  14.393  0.00  0.00    +0.000 NA
ATOM      6  C   UNL     1      47.146   8.031  13.756  0.00  0.00    +0.000 A 
ENDROOT
BRANCH   1  10
ATOM      7  C   UNL     1      44.927   3.905  11.540  0.00  0.00    +0.000 A 
ATOM      8  C   UNL     1      45.252   5.051  10.835  0.00  0.00    +0.000 A 
ATOM      9  C   UNL     1      46.098   5.978  11.442  0.00  0.00    +0.000 A 
ATOM     10  C   UNL     1      46.601   5.766  12.736  0.00  0.00    +0.000 A 
ATOM     11  C   UNL     1      46.212   4.567  13.344  0.00  0.00    +0.000 A 
ATOM     12  N   UNL     1      45.388   3.635  12.791  0.00  0.00    +0.000 NA
BRANCH   7  14
ATOM     13  N   UNL     1      44.490   2.300   9.776  0.00  0.00    +0.000 N 
ATOM     14  C   UNL     1      44.020   2.887  10.916  0.00  0.00    +0.000 C 
ATOM     15  O   UNL     1      42.926   2.602  11.389  0.00  0.00    +0.000 OA
ATOM     16  H   UNL     1      43.920   1.621   9.294  0.00  0.00    +0.000 HD
ATOM     17  H   UNL     1      45.394   2.573   9.410  0.00  0.00    +0.000 HD
ENDBRANCH   7  14
ENDBRANCH   1  10
BRANCH   4  18
ATOM     18  C   UNL     1      50.055   9.345  15.546  0.00  0.00    +0.000 C 
ATOM     19  C   UNL     1      50.695   8.858  16.846  0.00  0.00    +0.000 C 
ATOM     20  C   UNL     1      49.502   9.753  16.923  0.00  0.00    +0.000 C 
BRANCH  18  21
ATOM     21  C   UNL     1      50.799  10.347  14.719  0.00  0.00    +0.000 C 
ATOM     22  F   UNL     1      51.031   9.926  13.453  0.00  0.00    +0.000 F 
ATOM     23  F   UNL     1      50.110  11.514  14.632  0.00  0.00    +0.000 F 
ATOM     24  F   UNL     1      52.002  10.638  15.273  0.00  0.00    +0.000 F 
ENDBRANCH  18  21
ENDBRANCH   4  18
BRANCH   6  25
ATOM     25  O   UNL     1      45.926   8.575  13.518  0.00  0.00    +0.000 OA
ATOM     26  H   UNL     1      46.157   9.518  13.438  0.00  0.00    +0.000 HD
ENDBRANCH   6  25
TORSDOF 5
ENDMDL
MODEL 8
REMARK VINA RESULT:    -5.456      4.632      8.253
REMARK INTER + INTRA:          -7.128
REMARK INTER:                  -6.885
REMARK INTRA:                  -0.242
REMARK UNBOUND:                -0.236
REMARK  Name = 
REMARK  5 active torsions:
REMARK  status: ('A' for Active; 'I' for Inactive)
REMARK    1  A    between atoms: C_2  and  C_4
REMARK    2  A    between atoms: C_7  and  C_8
REMARK    3  A    between atoms: C_11  and  C_12
REMARK    4  A    between atoms: C_12  and  C_13
REMARK    5  A    between atoms: C_20  and  O_21
REMARK                            x       y       z     vdW  Elec       q    Type
REMARK                         _______ _______ _______ _____ _____    ______ ____
ROOT
ATOM      1  C   UNL     1      47.438   6.088  13.831  0.00  0.00    +0.000 A 
ATOM      2  N   UNL     1      47.394   4.767  13.562  0.00  0.00    +0.000 NA
ATOM      3  N   UNL     1      46.357   4.251  12.803  0.00  0.00    +0.000 NA
ATOM      4  C   UNL     1      45.379   5.061  12.336  0.00  0.00    +0.000 A 
ATOM      5  N   UNL     1      45.382   6.386  12.581  0.00  0.00    +0.000 NA
ATOM      6  C   UNL     1      46.409   6.855  13.310  0.00  0.00    +0.000 A 
ENDROOT
BRANCH   1  10
ATOM      7  C   UNL     1      50.732   7.604  16.034  0.00  0.00    +0.000 A 
ATOM      8  C   UNL     1      49.798   6.840  16.713  0.00  0.00    +0.000 A 
ATOM      9  C   UNL     1      48.718   6.329  15.994  0.00  0.00    +0.000 A 
ATOM     10  C   UNL     1      48.572   6.586  14.621  0.00  0.00    +0.000 A 
ATOM     11  C   UNL     1      49.584   7.360  14.042  0.00  0.00    +0.000 A 
ATOM     12  N   UNL     1      50.653   7.881  14.704  0.00  0.00    +0.000 NA
BRANCH   7  14
ATOM     13  N   UNL     1      52.412   7.377  17.766  0.00  0.00    +0.000 N 
ATOM     14  C   UNL     1      51.905   8.169  16.777  0.00  0.00    +0.000 C 
ATOM     15  O   UNL     1      52.377   9.271  16.522  0.00  0.00    +0.000 OA
ATOM     16  H   UNL     1      53.189   7.706  18.319  0.00  0.00    +0.000 HD
ATOM     17  H   UNL     1      51.984   6.478  17.955  0.00  0.00    +0.000 HD
ENDBRANCH   7  14
ENDBRANCH   1  10
BRANCH   4  18
ATOM     18  C   UNL     1      44.303   4.525  11.433  0.00  0.00    +0.000 C 
ATOM     19  C   UNL     1      42.832   4.848  11.694  0.00  0.00    +0.000 C 
ATOM     20  C   UNL     1      43.350   3.501  12.074  0.00  0.00    +0.000 C 
BRANCH  18  21
ATOM     21  C   UNL     1      44.749   4.338  10.016  0.00  0.00    +0.000 C 
ATOM     22  F   UNL     1      45.723   5.203   9.646  0.00  0.00    +0.000 F 
ATOM     23  F   UNL     1      45.232   3.084   9.820  0.00  0.00    +0.000 F 
ATOM     24  F   UNL     1      43.715   4.503   9.154  0.00  0.00    +0.000 F 
ENDBRANCH  18  21
ENDBRANCH   4  18
BRANCH   6  25
ATOM     25  O   UNL     1      46.350   8.205  13.438  0.00  0.00    +0.000 OA
ATOM     26  H   UNL     1      45.515   8.307  13.931  0.00  0.00    +0.000 HD
ENDBRANCH   6  25
TORSDOF 5
ENDMDL
MODEL 9
REMARK VINA RESULT:    -5.449      2.110      2.643
REMARK INTER + INTRA:          -7.118
REMARK INTER:                  -7.016
REMARK INTRA:                  -0.102
REMARK UNBOUND:                -0.236
REMARK  Name = 
REMARK  5 active torsions:
REMARK  status: ('A' for Active; 'I' for Inactive)
REMARK    1  A    between atoms: C_2  and  C_4
REMARK    2  A    between atoms: C_7  and  C_8
REMARK    3  A    between atoms: C_11  and  C_12
REMARK    4  A    between atoms: C_12  and  C_13
REMARK    5  A    between atoms: C_20  and  O_21
REMARK                            x       y       z     vdW  Elec       q    Type
REMARK                         _______ _______ _______ _____ _____    ______ ____
ROOT
ATOM      1  C   UNL     1      47.956   5.929  14.103  0.00  0.00    +0.000 A 
ATOM      2  N   UNL     1      48.945   6.622  13.504  0.00  0.00    +0.000 NA
ATOM      3  N   UNL     1      49.980   7.143  14.262  0.00  0.00    +0.000 NA
ATOM      4  C   UNL     1      50.002   6.972  15.604  0.00  0.00    +0.000 A 
ATOM      5  N   UNL     1      49.034   6.288  16.244  0.00  0.00    +0.000 NA
ATOM      6  C   UNL     1      48.051   5.786  15.478  0.00  0.00    +0.000 A 
ENDROOT
BRANCH   1  10
ATOM      7  C   UNL     1      44.905   4.425  11.566  0.00  0.00    +0.000 A 
ATOM      8  C   UNL     1      45.487   3.548  12.466  0.00  0.00    +0.000 A 
ATOM      9  C   UNL     1      46.482   4.037  13.311  0.00  0.00    +0.000 A 
ATOM     10  C   UNL     1      46.894   5.379  13.249  0.00  0.00    +0.000 A 
ATOM     11  C   UNL     1      46.227   6.171  12.308  0.00  0.00    +0.000 A 
ATOM     12  N   UNL     1      45.253   5.736  11.463  0.00  0.00    +0.000 NA
BRANCH   7  14
ATOM     13  N   UNL     1      43.833   4.480   9.394  0.00  0.00    +0.000 N 
ATOM     14  C   UNL     1      43.832   3.931  10.643  0.00  0.00    +0.000 C 
ATOM     15  O   UNL     1      43.002   3.096  10.985  0.00  0.00    +0.000 OA
ATOM     16  H   UNL     1      43.124   4.207   8.729  0.00  0.00    +0.000 HD
ATOM     17  H   UNL     1      44.527   5.177   9.155  0.00  0.00    +0.000 HD
ENDBRANCH   7  14
ENDBRANCH   1  10
BRANCH   4  18
ATOM     18  C   UNL     1      51.169   7.452  16.421  0.00  0.00    +0.000 C 
ATOM     19  C   UNL     1      52.591   7.390  15.862  0.00  0.00    +0.000 C 
ATOM     20  C   UNL     1      52.164   6.363  16.858  0.00  0.00    +0.000 C 
BRANCH  18  21
ATOM     21  C   UNL     1      50.824   8.564  17.363  0.00  0.00    +0.000 C 
ATOM     22  F   UNL     1      51.885   9.347  17.673  0.00  0.00    +0.000 F 
ATOM     23  F   UNL     1      49.871   9.372  16.833  0.00  0.00    +0.000 F 
ATOM     24  F   UNL     1      50.329   8.078  18.528  0.00  0.00    +0.000 F 
ENDBRANCH  18  21
ENDBRANCH   4  18
BRANCH   6  25
ATOM     25  O   UNL     1      47.171   5.060  16.213  0.00  0.00    +0.000 OA
ATOM     26  H   UNL     1      47.768   4.412  16.629  0.00  0.00    +0.000 HD
ENDBRANCH   6  25
TORSDOF 5
ENDMDL
