MODEL 1
REMARK VINA RESULT:    -7.595      0.000      0.000
REMARK INTER + INTRA:         -12.690
REMARK INTER:                 -11.813
REMARK INTRA:                  -0.877
REMARK UNBOUND:                -0.877
REMARK  Name = 
REMARK  10 active torsions:
REMARK  status: ('A' for Active; 'I' for Inactive)
REMARK    1  A    between atoms: N_1  and  C_2
REMARK    2  A    between atoms: C_2  and  C_3
REMARK    3  A    between atoms: C_3  and  N_4
REMARK    4  A    between atoms: N_4  and  C_5
REMARK    5  A    between atoms: C_5  and  C_6
REMARK    6  A    between atoms: C_9  and  C_10
REMARK    7  A    between atoms: C_10  and  N_11
REMARK    8  A    between atoms: C_14  and  C_15
REMARK    9  A    between atoms: C_15  and  N_16
REMARK   10  A    between atoms: C_17  and  C_19
REMARK                            x       y       z     vdW  Elec       q    Type
REMARK                         _______ _______ _______ _____ _____    ______ ____
ROOT
ATOM      1  N   UNL     1      46.609   7.114  12.333  0.00  0.00    +0.000 NA
ATOM      2  C   UNL     1      46.557   8.287  13.224  0.00  0.00    +0.000 C 
ATOM      3  C   UNL     1      47.937   8.875  13.534  0.00  0.00    +0.000 C 
ATOM      4  C   UNL     1      48.927   7.831  14.066  0.00  0.00    +0.000 C 
ATOM      5  C   UNL     1      48.971   6.672  13.066  0.00  0.00    +0.000 C 
ATOM      6  C   UNL     1      47.581   6.101  12.773  0.00  0.00    +0.000 C 
ENDROOT
BRANCH   1   7
ATOM      7  C   UNL     1      45.266   6.482  12.250  0.00  0.00    +0.000 C 
BRANCH   7  11
ATOM      8  C   UNL     1      44.946   3.242   9.476  0.00  0.00    +0.000 A 
ATOM      9  C   UNL     1      44.542   3.059  10.799  0.00  0.00    +0.000 A 
ATOM     10  C   UNL     1      44.651   4.107  11.709  0.00  0.00    +0.000 A 
ATOM     11  C   UNL     1      45.162   5.325  11.274  0.00  0.00    +0.000 A 
ATOM     12  N   UNL     1      45.571   5.530   9.994  0.00  0.00    +0.000 NA
ATOM     13  C   UNL     1      45.457   4.490   9.133  0.00  0.00    +0.000 A 
BRANCH   8  14
ATOM     14  C   UNL     1      44.895   2.116   8.477  0.00  0.00    +0.000 C 
BRANCH  14  15
ATOM     15  N   UNL     1      46.092   1.272   8.540  0.00  0.00    +0.000 NA
ATOM     16  H   UNL     1      46.779   1.753   9.126  0.00  0.00    +0.000 HD
BRANCH  15  17
ATOM     17  C   UNL     1      46.724   1.119   7.220  0.00  0.00    +0.000 C 
BRANCH  17  18
ATOM     18  C   UNL     1      47.649   2.292   6.827  0.00  0.00    +0.000 C 
BRANCH  18  19
ATOM     19  N   UNL     1      48.606   1.905   5.785  0.00  0.00    +0.000 NA
ATOM     20  H   UNL     1      48.126   1.892   4.884  0.00  0.00    +0.000 HD
ATOM     21  H   UNL     1      48.909   0.946   5.953  0.00  0.00    +0.000 HD
ENDBRANCH  18  19
ENDBRANCH  17  18
ENDBRANCH  15  17
ENDBRANCH  14  15
ENDBRANCH   8  14
ENDBRANCH   7  11
ENDBRANCH   1   7
BRANCH   4  22
ATOM     22  C   UNL     1      48.592   7.326  15.483  0.00  0.00    +0.000 C 
BRANCH  22  23
ATOM     23  N   UNL     1      49.673   6.574  16.083  0.00  0.00    +0.000 N 
ATOM     24  C   UNL     1      49.476   5.610  17.039  0.00  0.00    +0.000 C 
ATOM     25  O   UNL     1      48.358   5.300  17.440  0.00  0.00    +0.000 OA
ATOM     26  H   UNL     1      50.618   6.887  15.881  0.00  0.00    +0.000 HD
BRANCH  24  27
ATOM     27  C   UNL     1      50.679   4.915  17.515  0.00  0.00    +0.000 A 
ATOM     28  C   UNL     1      51.722   5.645  18.069  0.00  0.00    +0.000 A 
ATOM     29  S   UNL     1      53.015   4.680  18.621  0.00  0.00    +0.000 S 
ATOM     30  C   UNL     1      52.256   3.257  18.081  0.00  0.00    +0.000 A 
ATOM     31  N   UNL     1      52.857   2.045  18.226  0.00  0.00    +0.000 NA
ATOM     32  C   UNL     1      52.188   1.058  17.731  0.00  0.00    +0.000 A 
ATOM     33  N   UNL     1      50.973   1.170  17.111  0.00  0.00    +0.000 N 
ATOM     34  C   UNL     1      50.303   2.364  16.987  0.00  0.00    +0.000 A 
ATOM     35  O   UNL     1      49.179   2.416  16.499  0.00  0.00    +0.000 OA
ATOM     36  C   UNL     1      51.022   3.512  17.504  0.00  0.00    +0.000 A 
ATOM     37  H   UNL     1      50.496   0.353  16.759  0.00  0.00    +0.000 HD
ENDBRANCH  24  27
ENDBRANCH  22  23
ENDBRANCH   4  22
TORSDOF 10
ENDMDL
MODEL 2
REMARK VINA RESULT:    -6.865      3.800      8.381
REMARK INTER + INTRA:         -11.554
REMARK INTER:                 -10.531
REMARK INTRA:                  -1.023
REMARK UNBOUND:                -0.877
REMARK  Name = 
REMARK  10 active torsions:
REMARK  status: ('A' for Active; 'I' for Inactive)
REMARK    1  A    between atoms: N_1  and  C_2
REMARK    2  A    between atoms: C_2  and  C_3
REMARK    3  A    between atoms: C_3  and  N_4
REMARK    4  A    between atoms: N_4  and  C_5
REMARK    5  A    between atoms: C_5  and  C_6
REMARK    6  A    between atoms: C_9  and  C_10
REMARK    7  A    between atoms: C_10  and  N_11
REMARK    8  A    between atoms: C_14  and  C_15
REMARK    9  A    between atoms: C_15  and  N_16
REMARK   10  A    between atoms: C_17  and  C_19
REMARK                            x       y       z     vdW  Elec       q    Type
REMARK                         _______ _______ _______ _____ _____    ______ ____
ROOT
ATOM      1  N   UNL     1      49.957   9.099  13.586  0.00  0.00    +0.000 NA
ATOM      2  C   UNL     1      49.583   7.750  13.128  0.00  0.00    +0.000 C 
ATOM      3  C   UNL     1      48.679   7.757  11.892  0.00  0.00    +0.000 C 
ATOM      4  C   UNL     1      47.434   8.637  12.066  0.00  0.00    +0.000 C 
ATOM      5  C   UNL     1      47.901  10.035  12.486  0.00  0.00    +0.000 C 
ATOM      6  C   UNL     1      48.803  10.000  13.723  0.00  0.00    +0.000 C 
ENDROOT
BRANCH   1   7
ATOM      7  C   UNL     1      50.653   9.014  14.897  0.00  0.00    +0.000 C 
BRANCH   7  11
ATOM      8  C   UNL     1      49.113   6.082  17.603  0.00  0.00    +0.000 A 
ATOM      9  C   UNL     1      50.323   5.848  16.949  0.00  0.00    +0.000 A 
ATOM     10  C   UNL     1      50.826   6.794  16.062  0.00  0.00    +0.000 A 
ATOM     11  C   UNL     1      50.106   7.964  15.846  0.00  0.00    +0.000 A 
ATOM     12  N   UNL     1      48.920   8.215  16.461  0.00  0.00    +0.000 NA
ATOM     13  C   UNL     1      48.454   7.273  17.316  0.00  0.00    +0.000 A 
BRANCH   8  14
ATOM     14  C   UNL     1      48.509   5.057  18.528  0.00  0.00    +0.000 C 
BRANCH  14  15
ATOM     15  N   UNL     1      47.248   4.522  18.007  0.00  0.00    +0.000 NA
ATOM     16  H   UNL     1      46.820   3.962  18.749  0.00  0.00    +0.000 HD
BRANCH  15  17
ATOM     17  C   UNL     1      47.467   3.599  16.882  0.00  0.00    +0.000 C 
BRANCH  17  18
ATOM     18  C   UNL     1      47.097   4.190  15.504  0.00  0.00    +0.000 C 
BRANCH  18  19
ATOM     19  N   UNL     1      47.353   3.239  14.417  0.00  0.00    +0.000 NA
ATOM     20  H   UNL     1      46.913   2.347  14.648  0.00  0.00    +0.000 HD
ATOM     21  H   UNL     1      48.355   3.052  14.370  0.00  0.00    +0.000 HD
ENDBRANCH  18  19
ENDBRANCH  17  18
ENDBRANCH  15  17
ENDBRANCH  14  15
ENDBRANCH   8  14
ENDBRANCH   7  11
ENDBRANCH   1   7
BRANCH   4  22
ATOM     22  C   UNL     1      46.411   8.071  13.070  0.00  0.00    +0.000 C 
BRANCH  22  23
ATOM     23  N   UNL     1      45.926   6.759  12.698  0.00  0.00    +0.000 N 
ATOM     24  C   UNL     1      44.853   6.565  11.865  0.00  0.00    +0.000 C 
ATOM     25  O   UNL     1      44.238   7.497  11.356  0.00  0.00    +0.000 OA
ATOM     26  H   UNL     1      46.316   5.966  13.198  0.00  0.00    +0.000 HD
BRANCH  24  27
ATOM     27  C   UNL     1      44.516   5.169  11.559  0.00  0.00    +0.000 A 
ATOM     28  C   UNL     1      43.808   4.413  12.484  0.00  0.00    +0.000 A 
ATOM     29  S   UNL     1      43.450   2.834  11.948  0.00  0.00    +0.000 S 
ATOM     30  C   UNL     1      44.285   3.082  10.487  0.00  0.00    +0.000 A 
ATOM     31  N   UNL     1      44.387   2.089   9.563  0.00  0.00    +0.000 NA
ATOM     32  C   UNL     1      45.086   2.402   8.523  0.00  0.00    +0.000 A 
ATOM     33  N   UNL     1      45.686   3.615   8.321  0.00  0.00    +0.000 N 
ATOM     34  C   UNL     1      45.568   4.665   9.200  0.00  0.00    +0.000 A 
ATOM     35  O   UNL     1      46.050   5.765   8.949  0.00  0.00    +0.000 OA
ATOM     36  C   UNL     1      44.813   4.360  10.400  0.00  0.00    +0.000 A 
ATOM     37  H   UNL     1      46.207   3.799   7.475  0.00  0.00    +0.000 HD
ENDBRANCH  24  27
ENDBRANCH  22  23
ENDBRANCH   4  22
TORSDOF 10
ENDMDL
MODEL 3
REMARK VINA RESULT:    -6.672      3.912      8.117
REMARK INTER + INTRA:         -11.254
REMARK INTER:                  -9.971
REMARK INTRA:                  -1.284
REMARK UNBOUND:                -0.877
REMARK  Name = 
REMARK  10 active torsions:
REMARK  status: ('A' for Active; 'I' for Inactive)
REMARK    1  A    between atoms: N_1  and  C_2
REMARK    2  A    between atoms: C_2  and  C_3
REMARK    3  A    between atoms: C_3  and  N_4
REMARK    4  A    between atoms: N_4  and  C_5
REMARK    5  A    between atoms: C_5  and  C_6
REMARK    6  A    between atoms: C_9  and  C_10
REMARK    7  A    between atoms: C_10  and  N_11
REMARK    8  A    between atoms: C_14  and  C_15
REMARK    9  A    between atoms: C_15  and  N_16
REMARK   10  A    between atoms: C_17  and  C_19
REMARK                            x       y       z     vdW  Elec       q    Type
REMARK                         _______ _______ _______ _____ _____    ______ ____
ROOT
ATOM      1  N   UNL     1      50.533  10.015  14.720  0.00  0.00    +0.000 NA
ATOM      2  C   UNL     1      51.466   9.153  13.973  0.00  0.00    +0.000 C 
ATOM      3  C   UNL     1      51.159   9.083  12.475  0.00  0.00    +0.000 C 
ATOM      4  C   UNL     1      49.703   8.696  12.179  0.00  0.00    +0.000 C 
ATOM      5  C   UNL     1      48.795   9.667  12.940  0.00  0.00    +0.000 C 
ATOM      6  C   UNL     1      49.122   9.718  14.436  0.00  0.00    +0.000 C 
ENDROOT
BRANCH   1   7
ATOM      7  C   UNL     1      50.767   9.866  16.181  0.00  0.00    +0.000 C 
BRANCH   7  11
ATOM      8  C   UNL     1      48.780   6.522  17.959  0.00  0.00    +0.000 A 
ATOM      9  C   UNL     1      48.276   7.808  18.158  0.00  0.00    +0.000 A 
ATOM     10  C   UNL     1      48.923   8.901  17.589  0.00  0.00    +0.000 A 
ATOM     11  C   UNL     1      50.064   8.685  16.825  0.00  0.00    +0.000 A 
ATOM     12  N   UNL     1      50.583   7.445  16.622  0.00  0.00    +0.000 NA
ATOM     13  C   UNL     1      49.935   6.401  17.192  0.00  0.00    +0.000 A 
BRANCH   8  14
ATOM     14  C   UNL     1      48.141   5.320  18.604  0.00  0.00    +0.000 C 
BRANCH  14  15
ATOM     15  N   UNL     1      46.887   4.944  17.944  0.00  0.00    +0.000 NA
ATOM     16  H   UNL     1      46.307   4.461  18.635  0.00  0.00    +0.000 HD
BRANCH  15  17
ATOM     17  C   UNL     1      47.109   3.976  16.858  0.00  0.00    +0.000 C 
BRANCH  17  18
ATOM     18  C   UNL     1      48.150   2.885  17.191  0.00  0.00    +0.000 C 
BRANCH  18  19
ATOM     19  N   UNL     1      48.799   2.364  15.983  0.00  0.00    +0.000 NA
ATOM     20  H   UNL     1      49.808   2.485  16.072  0.00  0.00    +0.000 HD
ATOM     21  H   UNL     1      48.519   2.936  15.185  0.00  0.00    +0.000 HD
ENDBRANCH  18  19
ENDBRANCH  17  18
ENDBRANCH  15  17
ENDBRANCH  14  15
ENDBRANCH   8  14
ENDBRANCH   7  11
ENDBRANCH   1   7
BRANCH   4  22
ATOM     22  C   UNL     1      49.368   7.233  12.530  0.00  0.00    +0.000 C 
BRANCH  22  23
ATOM     23  N   UNL     1      48.039   6.845  12.108  0.00  0.00    +0.000 N 
ATOM     24  C   UNL     1      47.095   6.347  12.970  0.00  0.00    +0.000 C 
ATOM     25  O   UNL     1      47.306   6.215  14.172  0.00  0.00    +0.000 OA
ATOM     26  H   UNL     1      47.865   6.810  11.109  0.00  0.00    +0.000 HD
BRANCH  24  27
ATOM     27  C   UNL     1      45.783   6.038  12.386  0.00  0.00    +0.000 A 
ATOM     28  C   UNL     1      45.008   7.061  11.857  0.00  0.00    +0.000 A 
ATOM     29  S   UNL     1      43.543   6.524  11.169  0.00  0.00    +0.000 S 
ATOM     30  C   UNL     1      43.863   4.913  11.611  0.00  0.00    +0.000 A 
ATOM     31  N   UNL     1      42.973   3.922  11.334  0.00  0.00    +0.000 NA
ATOM     32  C   UNL     1      43.324   2.757  11.767  0.00  0.00    +0.000 A 
ATOM     33  N   UNL     1      44.484   2.492  12.443  0.00  0.00    +0.000 N 
ATOM     34  C   UNL     1      45.437   3.449  12.700  0.00  0.00    +0.000 A 
ATOM     35  O   UNL     1      46.502   3.160  13.236  0.00  0.00    +0.000 OA
ATOM     36  C   UNL     1      45.081   4.783  12.258  0.00  0.00    +0.000 A 
ATOM     37  H   UNL     1      44.705   1.552  12.741  0.00  0.00    +0.000 HD
ENDBRANCH  24  27
ENDBRANCH  22  23
ENDBRANCH   4  22
TORSDOF 10
ENDMDL
MODEL 4
REMARK VINA RESULT:    -6.672      3.919      9.094
REMARK INTER + INTRA:         -11.254
REMARK INTER:                  -9.870
REMARK INTRA:                  -1.384
REMARK UNBOUND:                -0.877
REMARK  Name = 
REMARK  10 active torsions:
REMARK  status: ('A' for Active; 'I' for Inactive)
REMARK    1  A    between atoms: N_1  and  C_2
REMARK    2  A    between atoms: C_2  and  C_3
REMARK    3  A    between atoms: C_3  and  N_4
REMARK    4  A    between atoms: N_4  and  C_5
REMARK    5  A    between atoms: C_5  and  C_6
REMARK    6  A    between atoms: C_9  and  C_10
REMARK    7  A    between atoms: C_10  and  N_11
REMARK    8  A    between atoms: C_14  and  C_15
REMARK    9  A    between atoms: C_15  and  N_16
REMARK   10  A    between atoms: C_17  and  C_19
REMARK                            x       y       z     vdW  Elec       q    Type
REMARK                         _______ _______ _______ _____ _____    ______ ____
ROOT
ATOM      1  N   UNL     1      48.460   5.106  19.552  0.00  0.00    +0.000 NA
ATOM      2  C   UNL     1      47.227   5.183  18.749  0.00  0.00    +0.000 C 
ATOM      3  C   UNL     1      47.164   4.137  17.633  0.00  0.00    +0.000 C 
ATOM      4  C   UNL     1      48.403   4.150  16.729  0.00  0.00    +0.000 C 
ATOM      5  C   UNL     1      49.639   4.010  17.624  0.00  0.00    +0.000 C 
ATOM      6  C   UNL     1      49.679   5.067  18.731  0.00  0.00    +0.000 C 
ENDROOT
BRANCH   1   7
ATOM      7  C   UNL     1      48.540   6.274  20.469  0.00  0.00    +0.000 C 
BRANCH   7  11
ATOM      8  C   UNL     1      48.737  10.099  18.566  0.00  0.00    +0.000 A 
ATOM      9  C   UNL     1      47.495   9.500  18.783  0.00  0.00    +0.000 A 
ATOM     10  C   UNL     1      47.424   8.252  19.394  0.00  0.00    +0.000 A 
ATOM     11  C   UNL     1      48.603   7.625  19.782  0.00  0.00    +0.000 A 
ATOM     12  N   UNL     1      49.827   8.180  19.576  0.00  0.00    +0.000 NA
ATOM     13  C   UNL     1      49.864   9.393  18.975  0.00  0.00    +0.000 A 
BRANCH   8  14
ATOM     14  C   UNL     1      48.856  11.423  17.857  0.00  0.00    +0.000 C 
BRANCH  14  15
ATOM     15  N   UNL     1      48.356  11.357  16.481  0.00  0.00    +0.000 NA
ATOM     16  H   UNL     1      47.511  10.780  16.487  0.00  0.00    +0.000 HD
BRANCH  15  17
ATOM     17  C   UNL     1      49.303  10.673  15.586  0.00  0.00    +0.000 C 
BRANCH  17  18
ATOM     18  C   UNL     1      48.649   9.621  14.664  0.00  0.00    +0.000 C 
BRANCH  18  19
ATOM     19  N   UNL     1      47.489   8.986  15.300  0.00  0.00    +0.000 NA
ATOM     20  H   UNL     1      47.399   8.033  14.946  0.00  0.00    +0.000 HD
ATOM     21  H   UNL     1      46.642   9.473  15.005  0.00  0.00    +0.000 HD
ENDBRANCH  18  19
ENDBRANCH  17  18
ENDBRANCH  15  17
ENDBRANCH  14  15
ENDBRANCH   8  14
ENDBRANCH   7  11
ENDBRANCH   1   7
BRANCH   4  22
ATOM     22  C   UNL     1      48.506   5.402  15.837  0.00  0.00    +0.000 C 
BRANCH  22  23
ATOM     23  N   UNL     1      47.388   5.537  14.927  0.00  0.00    +0.000 N 
ATOM     24  C   UNL     1      47.530   5.915  13.616  0.00  0.00    +0.000 C 
ATOM     25  O   UNL     1      48.626   6.147  13.113  0.00  0.00    +0.000 OA
ATOM     26  H   UNL     1      46.458   5.487  15.331  0.00  0.00    +0.000 HD
BRANCH  24  27
ATOM     27  C   UNL     1      46.297   5.966  12.820  0.00  0.00    +0.000 A 
ATOM     28  C   UNL     1      45.835   7.186  12.344  0.00  0.00    +0.000 A 
ATOM     29  S   UNL     1      44.426   7.060  11.391  0.00  0.00    +0.000 S 
ATOM     30  C   UNL     1      44.346   5.378  11.635  0.00  0.00    +0.000 A 
ATOM     31  N   UNL     1      43.336   4.642  11.099  0.00  0.00    +0.000 NA
ATOM     32  C   UNL     1      43.376   3.387  11.402  0.00  0.00    +0.000 A 
ATOM     33  N   UNL     1      44.334   2.802  12.185  0.00  0.00    +0.000 N 
ATOM     34  C   UNL     1      45.401   3.495  12.705  0.00  0.00    +0.000 A 
ATOM     35  O   UNL     1      46.286   2.923  13.334  0.00  0.00    +0.000 OA
ATOM     36  C   UNL     1      45.392   4.915  12.416  0.00  0.00    +0.000 A 
ATOM     37  H   UNL     1      44.314   1.810  12.370  0.00  0.00    +0.000 HD
ENDBRANCH  24  27
ENDBRANCH  22  23
ENDBRANCH   4  22
TORSDOF 10
ENDMDL
MODEL 5
REMARK VINA RESULT:    -6.595      2.421      3.748
REMARK INTER + INTRA:         -11.135
REMARK INTER:                  -9.964
REMARK INTRA:                  -1.171
REMARK UNBOUND:                -0.877
REMARK  Name = 
REMARK  10 active torsions:
REMARK  status: ('A' for Active; 'I' for Inactive)
REMARK    1  A    between atoms: N_1  and  C_2
REMARK    2  A    between atoms: C_2  and  C_3
REMARK    3  A    between atoms: C_3  and  N_4
REMARK    4  A    between atoms: N_4  and  C_5
REMARK    5  A    between atoms: C_5  and  C_6
REMARK    6  A    between atoms: C_9  and  C_10
REMARK    7  A    between atoms: C_10  and  N_11
REMARK    8  A    between atoms: C_14  and  C_15
REMARK    9  A    between atoms: C_15  and  N_16
REMARK   10  A    between atoms: C_17  and  C_19
REMARK                            x       y       z     vdW  Elec       q    Type
REMARK                         _______ _______ _______ _____ _____    ______ ____
ROOT
ATOM      1  N   UNL     1      47.191   4.054  15.712  0.00  0.00    +0.000 NA
ATOM      2  C   UNL     1      48.470   3.321  15.711  0.00  0.00    +0.000 C 
ATOM      3  C   UNL     1      48.657   2.428  16.941  0.00  0.00    +0.000 C 
ATOM      4  C   UNL     1      48.462   3.181  18.264  0.00  0.00    +0.000 C 
ATOM      5  C   UNL     1      47.094   3.870  18.215  0.00  0.00    +0.000 C 
ATOM      6  C   UNL     1      46.932   4.756  16.977  0.00  0.00    +0.000 C 
ENDROOT
BRANCH   1   7
ATOM      7  C   UNL     1      47.177   5.046  14.604  0.00  0.00    +0.000 C 
BRANCH   7  11
ATOM      8  C   UNL     1      44.967   3.846  11.145  0.00  0.00    +0.000 A 
ATOM      9  C   UNL     1      45.350   5.180  11.289  0.00  0.00    +0.000 A 
ATOM     10  C   UNL     1      46.062   5.579  12.416  0.00  0.00    +0.000 A 
ATOM     11  C   UNL     1      46.382   4.630  13.381  0.00  0.00    +0.000 A 
ATOM     12  N   UNL     1      46.015   3.325  13.272  0.00  0.00    +0.000 NA
ATOM     13  C   UNL     1      45.318   2.968  12.166  0.00  0.00    +0.000 A 
BRANCH   8  14
ATOM     14  C   UNL     1      44.147   3.388   9.967  0.00  0.00    +0.000 C 
BRANCH  14  15
ATOM     15  N   UNL     1      44.625   2.111   9.429  0.00  0.00    +0.000 NA
ATOM     16  H   UNL     1      45.066   1.597  10.196  0.00  0.00    +0.000 HD
BRANCH  15  17
ATOM     17  C   UNL     1      45.675   2.302   8.416  0.00  0.00    +0.000 C 
BRANCH  17  18
ATOM     18  C   UNL     1      45.556   3.625   7.630  0.00  0.00    +0.000 C 
BRANCH  18  19
ATOM     19  N   UNL     1      46.849   4.054   7.085  0.00  0.00    +0.000 NA
ATOM     20  H   UNL     1      47.223   4.801   7.671  0.00  0.00    +0.000 HD
ATOM     21  H   UNL     1      46.699   4.470   6.166  0.00  0.00    +0.000 HD
ENDBRANCH  18  19
ENDBRANCH  17  18
ENDBRANCH  15  17
ENDBRANCH  14  15
ENDBRANCH   8  14
ENDBRANCH   7  11
ENDBRANCH   1   7
BRANCH   4  22
ATOM     22  C   UNL     1      49.581   4.196  18.569  0.00  0.00    +0.000 C 
BRANCH  22  23
ATOM     23  N   UNL     1      50.884   3.577  18.689  0.00  0.00    +0.000 N 
ATOM     24  C   UNL     1      51.966   3.957  17.936  0.00  0.00    +0.000 C 
ATOM     25  O   UNL     1      51.909   4.870  17.117  0.00  0.00    +0.000 OA
ATOM     26  H   UNL     1      50.943   2.735  19.253  0.00  0.00    +0.000 HD
BRANCH  24  27
ATOM     27  C   UNL     1      53.225   3.252  18.209  0.00  0.00    +0.000 A 
ATOM     28  C   UNL     1      54.356   3.976  18.563  0.00  0.00    +0.000 A 
ATOM     29  S   UNL     1      55.714   3.002  18.901  0.00  0.00    +0.000 S 
ATOM     30  C   UNL     1      54.857   1.581  18.524  0.00  0.00    +0.000 A 
ATOM     31  N   UNL     1      55.461   0.364  18.585  0.00  0.00    +0.000 NA
ATOM     32  C   UNL     1      54.706  -0.621  18.230  0.00  0.00    +0.000 A 
ATOM     33  N   UNL     1      53.403  -0.502  17.826  0.00  0.00    +0.000 N 
ATOM     34  C   UNL     1      52.735   0.700  17.799  0.00  0.00    +0.000 A 
ATOM     35  O   UNL     1      51.544   0.760  17.511  0.00  0.00    +0.000 OA
ATOM     36  C   UNL     1      53.545   1.845  18.164  0.00  0.00    +0.000 A 
ATOM     37  H   UNL     1      52.863  -1.317  17.576  0.00  0.00    +0.000 HD
ENDBRANCH  24  27
ENDBRANCH  22  23
ENDBRANCH   4  22
TORSDOF 10
ENDMDL
MODEL 6
REMARK VINA RESULT:    -6.587      4.335      5.333
REMARK INTER + INTRA:         -11.122
REMARK INTER:                 -10.317
REMARK INTRA:                  -0.805
REMARK UNBOUND:                -0.877
REMARK  Name = 
REMARK  10 active torsions:
REMARK  status: ('A' for Active; 'I' for Inactive)
REMARK    1  A    between atoms: N_1  and  C_2
REMARK    2  A    between atoms: C_2  and  C_3
REMARK    3  A    between atoms: C_3  and  N_4
REMARK    4  A    between atoms: N_4  and  C_5
REMARK    5  A    between atoms: C_5  and  C_6
REMARK    6  A    between atoms: C_9  and  C_10
REMARK    7  A    between atoms: C_10  and  N_11
REMARK    8  A    between atoms: C_14  and  C_15
REMARK    9  A    between atoms: C_15  and  N_16
REMARK   10  A    between atoms: C_17  and  C_19
REMARK                            x       y       z     vdW  Elec       q    Type
REMARK                         _______ _______ _______ _____ _____    ______ ____
ROOT
ATOM      1  N   UNL     1      45.154   6.528  13.125  0.00  0.00    +0.000 NA
ATOM      2  C   UNL     1      46.167   5.459  13.088  0.00  0.00    +0.000 C 
ATOM      3  C   UNL     1      47.441   5.804  13.865  0.00  0.00    +0.000 C 
ATOM      4  C   UNL     1      48.052   7.148  13.447  0.00  0.00    +0.000 C 
ATOM      5  C   UNL     1      46.962   8.217  13.563  0.00  0.00    +0.000 C 
ATOM      6  C   UNL     1      45.699   7.849  12.778  0.00  0.00    +0.000 C 
ENDROOT
BRANCH   1   7
ATOM      7  C   UNL     1      44.047   6.208  12.185  0.00  0.00    +0.000 C 
BRANCH   7  11
ATOM      8  C   UNL     1      45.116   3.556   9.005  0.00  0.00    +0.000 A 
ATOM      9  C   UNL     1      45.686   4.829   9.062  0.00  0.00    +0.000 A 
ATOM     10  C   UNL     1      45.336   5.700  10.090  0.00  0.00    +0.000 A 
ATOM     11  C   UNL     1      44.421   5.277  11.047  0.00  0.00    +0.000 A 
ATOM     12  N   UNL     1      43.843   4.047  11.012  0.00  0.00    +0.000 NA
ATOM     13  C   UNL     1      44.200   3.224   9.998  0.00  0.00    +0.000 A 
BRANCH   8  14
ATOM     14  C   UNL     1      45.428   2.607   7.877  0.00  0.00    +0.000 C 
BRANCH  14  15
ATOM     15  N   UNL     1      46.167   1.429   8.339  0.00  0.00    +0.000 NA
ATOM     16  H   UNL     1      46.715   1.709   9.157  0.00  0.00    +0.000 HD
BRANCH  15  17
ATOM     17  C   UNL     1      47.143   0.968   7.340  0.00  0.00    +0.000 C 
BRANCH  17  18
ATOM     18  C   UNL     1      48.080   2.079   6.818  0.00  0.00    +0.000 C 
BRANCH  18  19
ATOM     19  N   UNL     1      48.404   1.897   5.399  0.00  0.00    +0.000 NA
ATOM     20  H   UNL     1      48.911   1.019   5.286  0.00  0.00    +0.000 HD
ATOM     21  H   UNL     1      49.050   2.632   5.110  0.00  0.00    +0.000 HD
ENDBRANCH  18  19
ENDBRANCH  17  18
ENDBRANCH  15  17
ENDBRANCH  14  15
ENDBRANCH   8  14
ENDBRANCH   7  11
ENDBRANCH   1   7
BRANCH   4  22
ATOM     22  C   UNL     1      48.666   7.135  12.033  0.00  0.00    +0.000 C 
BRANCH  22  23
ATOM     23  N   UNL     1      50.107   7.275  12.044  0.00  0.00    +0.000 N 
ATOM     24  C   UNL     1      50.743   8.486  11.937  0.00  0.00    +0.000 C 
ATOM     25  O   UNL     1      50.130   9.545  11.844  0.00  0.00    +0.000 OA
ATOM     26  H   UNL     1      50.652   6.421  11.985  0.00  0.00    +0.000 HD
BRANCH  24  27
ATOM     27  C   UNL     1      52.209   8.455  12.006  0.00  0.00    +0.000 A 
ATOM     28  C   UNL     1      52.863   9.097  13.049  0.00  0.00    +0.000 A 
ATOM     29  S   UNL     1      54.559   8.915  13.009  0.00  0.00    +0.000 S 
ATOM     30  C   UNL     1      54.484   8.027  11.560  0.00  0.00    +0.000 A 
ATOM     31  N   UNL     1      55.617   7.578  10.957  0.00  0.00    +0.000 NA
ATOM     32  C   UNL     1      55.415   6.959   9.842  0.00  0.00    +0.000 A 
ATOM     33  N   UNL     1      54.186   6.741   9.281  0.00  0.00    +0.000 N 
ATOM     34  C   UNL     1      53.011   7.129   9.879  0.00  0.00    +0.000 A 
ATOM     35  O   UNL     1      51.922   6.845   9.389  0.00  0.00    +0.000 OA
ATOM     36  C   UNL     1      53.181   7.853  11.123  0.00  0.00    +0.000 A 
ATOM     37  H   UNL     1      54.098   6.234   8.412  0.00  0.00    +0.000 HD
ENDBRANCH  24  27
ENDBRANCH  22  23
ENDBRANCH   4  22
TORSDOF 10
ENDMDL
MODEL 7
REMARK VINA RESULT:    -6.485      3.953     10.168
REMARK INTER + INTRA:         -10.963
REMARK INTER:                  -9.981
REMARK INTRA:                  -0.981
REMARK UNBOUND:                -0.877
REMARK  Name = 
REMARK  10 active torsions:
REMARK  status: ('A' for Active; 'I' for Inactive)
REMARK    1  A    between atoms: N_1  and  C_2
REMARK    2  A    between atoms: C_2  and  C_3
REMARK    3  A    between atoms: C_3  and  N_4
REMARK    4  A    between atoms: N_4  and  C_5
REMARK    5  A    between atoms: C_5  and  C_6
REMARK    6  A    between atoms: C_9  and  C_10
REMARK    7  A    between atoms: C_10  and  N_11
REMARK    8  A    between atoms: C_14  and  C_15
REMARK    9  A    between atoms: C_15  and  N_16
REMARK   10  A    between atoms: C_17  and  C_19
REMARK                            x       y       z     vdW  Elec       q    Type
REMARK                         _______ _______ _______ _____ _____    ______ ____
ROOT
ATOM      1  N   UNL     1      50.520   4.641  18.080  0.00  0.00    +0.000 NA
ATOM      2  C   UNL     1      49.679   5.576  17.312  0.00  0.00    +0.000 C 
ATOM      3  C   UNL     1      48.220   5.600  17.774  0.00  0.00    +0.000 C 
ATOM      4  C   UNL     1      47.582   4.205  17.818  0.00  0.00    +0.000 C 
ATOM      5  C   UNL     1      48.477   3.305  18.677  0.00  0.00    +0.000 C 
ATOM      6  C   UNL     1      49.930   3.298  18.194  0.00  0.00    +0.000 C 
ENDROOT
BRANCH   1   7
ATOM      7  C   UNL     1      51.857   4.521  17.442  0.00  0.00    +0.000 C 
BRANCH   7  11
ATOM      8  C   UNL     1      54.570   1.898  19.455  0.00  0.00    +0.000 A 
ATOM      9  C   UNL     1      54.064   3.013  20.125  0.00  0.00    +0.000 A 
ATOM     10  C   UNL     1      53.187   3.875  19.473  0.00  0.00    +0.000 A 
ATOM     11  C   UNL     1      52.829   3.602  18.158  0.00  0.00    +0.000 A 
ATOM     12  N   UNL     1      53.312   2.529  17.477  0.00  0.00    +0.000 NA
ATOM     13  C   UNL     1      54.167   1.710  18.136  0.00  0.00    +0.000 A 
BRANCH   8  14
ATOM     14  C   UNL     1      55.564   0.973  20.109  0.00  0.00    +0.000 C 
BRANCH  14  15
ATOM     15  N   UNL     1      54.933  -0.260  20.589  0.00  0.00    +0.000 NA
ATOM     16  H   UNL     1      55.284  -0.438  21.534  0.00  0.00    +0.000 HD
BRANCH  15  17
ATOM     17  C   UNL     1      55.330  -1.427  19.785  0.00  0.00    +0.000 C 
BRANCH  17  18
ATOM     18  C   UNL     1      54.144  -2.293  19.309  0.00  0.00    +0.000 C 
BRANCH  18  19
ATOM     19  N   UNL     1      52.946  -1.486  19.057  0.00  0.00    +0.000 NA
ATOM     20  H   UNL     1      52.335  -1.993  18.416  0.00  0.00    +0.000 HD
ATOM     21  H   UNL     1      53.218  -0.633  18.568  0.00  0.00    +0.000 HD
ENDBRANCH  18  19
ENDBRANCH  17  18
ENDBRANCH  15  17
ENDBRANCH  14  15
ENDBRANCH   8  14
ENDBRANCH   7  11
ENDBRANCH   1   7
BRANCH   4  22
ATOM     22  C   UNL     1      47.350   3.586  16.426  0.00  0.00    +0.000 C 
BRANCH  22  23
ATOM     23  N   UNL     1      46.732   4.508  15.497  0.00  0.00    +0.000 N 
ATOM     24  C   UNL     1      46.828   4.376  14.134  0.00  0.00    +0.000 C 
ATOM     25  O   UNL     1      47.433   3.449  13.604  0.00  0.00    +0.000 OA
ATOM     26  H   UNL     1      46.338   5.358  15.886  0.00  0.00    +0.000 HD
BRANCH  24  27
ATOM     27  C   UNL     1      46.109   5.376  13.335  0.00  0.00    +0.000 A 
ATOM     28  C   UNL     1      46.706   6.600  13.064  0.00  0.00    +0.000 A 
ATOM     29  S   UNL     1      45.760   7.620  12.077  0.00  0.00    +0.000 S 
ATOM     30  C   UNL     1      44.490   6.488  12.031  0.00  0.00    +0.000 A 
ATOM     31  N   UNL     1      43.339   6.757  11.358  0.00  0.00    +0.000 NA
ATOM     32  C   UNL     1      42.445   5.829  11.445  0.00  0.00    +0.000 A 
ATOM     33  N   UNL     1      42.599   4.657  12.135  0.00  0.00    +0.000 N 
ATOM     34  C   UNL     1      43.762   4.319  12.786  0.00  0.00    +0.000 A 
ATOM     35  O   UNL     1      43.896   3.225  13.325  0.00  0.00    +0.000 OA
ATOM     36  C   UNL     1      44.792   5.338  12.742  0.00  0.00    +0.000 A 
ATOM     37  H   UNL     1      41.864   3.966  12.149  0.00  0.00    +0.000 HD
ENDBRANCH  24  27
ENDBRANCH  22  23
ENDBRANCH   4  22
TORSDOF 10
ENDMDL
MODEL 8
REMARK VINA RESULT:    -6.426      3.955      7.807
REMARK INTER + INTRA:         -10.871
REMARK INTER:                  -8.937
REMARK INTRA:                  -1.934
REMARK UNBOUND:                -0.877
REMARK  Name = 
REMARK  10 active torsions:
REMARK  status: ('A' for Active; 'I' for Inactive)
REMARK    1  A    between atoms: N_1  and  C_2
REMARK    2  A    between atoms: C_2  and  C_3
REMARK    3  A    between atoms: C_3  and  N_4
REMARK    4  A    between atoms: N_4  and  C_5
REMARK    5  A    between atoms: C_5  and  C_6
REMARK    6  A    between atoms: C_9  and  C_10
REMARK    7  A    between atoms: C_10  and  N_11
REMARK    8  A    between atoms: C_14  and  C_15
REMARK    9  A    between atoms: C_15  and  N_16
REMARK   10  A    between atoms: C_17  and  C_19
REMARK                            x       y       z     vdW  Elec       q    Type
REMARK                         _______ _______ _______ _____ _____    ______ ____
ROOT
ATOM      1  N   UNL     1      51.119   9.779  13.575  0.00  0.00    +0.000 NA
ATOM      2  C   UNL     1      50.411   8.584  13.083  0.00  0.00    +0.000 C 
ATOM      3  C   UNL     1      49.829   8.760  11.678  0.00  0.00    +0.000 C 
ATOM      4  C   UNL     1      48.946  10.008  11.547  0.00  0.00    +0.000 C 
ATOM      5  C   UNL     1      49.764  11.214  12.021  0.00  0.00    +0.000 C 
ATOM      6  C   UNL     1      50.334  11.014  13.428  0.00  0.00    +0.000 C 
ENDROOT
BRANCH   1   7
ATOM      7  C   UNL     1      51.469   9.605  15.010  0.00  0.00    +0.000 C 
BRANCH   7  11
ATOM      8  C   UNL     1      49.307   6.541  17.069  0.00  0.00    +0.000 A 
ATOM      9  C   UNL     1      50.570   6.261  16.546  0.00  0.00    +0.000 A 
ATOM     10  C   UNL     1      51.275   7.251  15.868  0.00  0.00    +0.000 A 
ATOM     11  C   UNL     1      50.702   8.510  15.728  0.00  0.00    +0.000 A 
ATOM     12  N   UNL     1      49.470   8.810  16.219  0.00  0.00    +0.000 NA
ATOM     13  C   UNL     1      48.806   7.824  16.870  0.00  0.00    +0.000 A 
BRANCH   8  14
ATOM     14  C   UNL     1      48.490   5.481  17.759  0.00  0.00    +0.000 C 
BRANCH  14  15
ATOM     15  N   UNL     1      47.400   4.988  16.912  0.00  0.00    +0.000 NA
ATOM     16  H   UNL     1      46.528   5.384  17.270  0.00  0.00    +0.000 HD
BRANCH  15  17
ATOM     17  C   UNL     1      47.248   3.527  17.010  0.00  0.00    +0.000 C 
BRANCH  17  18
ATOM     18  C   UNL     1      48.585   2.764  17.132  0.00  0.00    +0.000 C 
BRANCH  18  19
ATOM     19  N   UNL     1      48.959   2.116  15.870  0.00  0.00    +0.000 NA
ATOM     20  H   UNL     1      48.193   1.513  15.568  0.00  0.00    +0.000 HD
ATOM     21  H   UNL     1      49.751   1.495  16.039  0.00  0.00    +0.000 HD
ENDBRANCH  18  19
ENDBRANCH  17  18
ENDBRANCH  15  17
ENDBRANCH  14  15
ENDBRANCH   8  14
ENDBRANCH   7  11
ENDBRANCH   1   7
BRANCH   4  22
ATOM     22  C   UNL     1      47.613   9.907  12.314  0.00  0.00    +0.000 C 
BRANCH  22  23
ATOM     23  N   UNL     1      47.004   8.598  12.212  0.00  0.00    +0.000 N 
ATOM     24  C   UNL     1      45.671   8.372  12.447  0.00  0.00    +0.000 C 
ATOM     25  O   UNL     1      44.893   9.274  12.742  0.00  0.00    +0.000 OA
ATOM     26  H   UNL     1      47.629   7.807  12.103  0.00  0.00    +0.000 HD
BRANCH  24  27
ATOM     27  C   UNL     1      45.206   6.992  12.262  0.00  0.00    +0.000 A 
ATOM     28  C   UNL     1      44.027   6.750  11.571  0.00  0.00    +0.000 A 
ATOM     29  S   UNL     1      43.662   5.093  11.397  0.00  0.00    +0.000 S 
ATOM     30  C   UNL     1      45.034   4.641  12.297  0.00  0.00    +0.000 A 
ATOM     31  N   UNL     1      45.304   3.332  12.549  0.00  0.00    +0.000 NA
ATOM     32  C   UNL     1      46.351   3.138  13.280  0.00  0.00    +0.000 A 
ATOM     33  N   UNL     1      47.153   4.130  13.775  0.00  0.00    +0.000 N 
ATOM     34  C   UNL     1      46.951   5.462  13.504  0.00  0.00    +0.000 A 
ATOM     35  O   UNL     1      47.736   6.319  13.896  0.00  0.00    +0.000 OA
ATOM     36  C   UNL     1      45.772   5.739  12.707  0.00  0.00    +0.000 A 
ATOM     37  H   UNL     1      47.968   3.907  14.329  0.00  0.00    +0.000 HD
ENDBRANCH  24  27
ENDBRANCH  22  23
ENDBRANCH   4  22
TORSDOF 10
ENDMDL
MODEL 9
REMARK VINA RESULT:    -6.349      2.414      2.916
REMARK INTER + INTRA:         -10.753
REMARK INTER:                  -9.819
REMARK INTRA:                  -0.933
REMARK UNBOUND:                -0.877
REMARK  Name = 
REMARK  10 active torsions:
REMARK  status: ('A' for Active; 'I' for Inactive)
REMARK    1  A    between atoms: N_1  and  C_2
REMARK    2  A    between atoms: C_2  and  C_3
REMARK    3  A    between atoms: C_3  and  N_4
REMARK    4  A    between atoms: N_4  and  C_5
REMARK    5  A    between atoms: C_5  and  C_6
REMARK    6  A    between atoms: C_9  and  C_10
REMARK    7  A    between atoms: C_10  and  N_11
REMARK    8  A    between atoms: C_14  and  C_15
REMARK    9  A    between atoms: C_15  and  N_16
REMARK   10  A    between atoms: C_17  and  C_19
REMARK                            x       y       z     vdW  Elec       q    Type
REMARK                         _______ _______ _______ _____ _____    ______ ____
ROOT
ATOM      1  N   UNL     1      46.889   7.063  12.290  0.00  0.00    +0.000 NA
ATOM      2  C   UNL     1      47.037   8.526  12.202  0.00  0.00    +0.000 C 
ATOM      3  C   UNL     1      48.399   9.028  12.690  0.00  0.00    +0.000 C 
ATOM      4  C   UNL     1      48.754   8.528  14.096  0.00  0.00    +0.000 C 
ATOM      5  C   UNL     1      48.633   7.001  14.097  0.00  0.00    +0.000 C 
ATOM      6  C   UNL     1      47.263   6.524  13.606  0.00  0.00    +0.000 C 
ENDROOT
BRANCH   1   7
ATOM      7  C   UNL     1      45.482   6.679  12.000  0.00  0.00    +0.000 C 
BRANCH   7  11
ATOM      8  C   UNL     1      45.053   3.207   9.540  0.00  0.00    +0.000 A 
ATOM      9  C   UNL     1      45.545   4.388   8.984  0.00  0.00    +0.000 A 
ATOM     10  C   UNL     1      45.680   5.524   9.777  0.00  0.00    +0.000 A 
ATOM     11  C   UNL     1      45.320   5.454  11.119  0.00  0.00    +0.000 A 
ATOM     12  N   UNL     1      44.830   4.320  11.685  0.00  0.00    +0.000 NA
ATOM     13  C   UNL     1      44.706   3.232  10.887  0.00  0.00    +0.000 A 
BRANCH   8  14
ATOM     14  C   UNL     1      44.842   1.973   8.701  0.00  0.00    +0.000 C 
BRANCH  14  15
ATOM     15  N   UNL     1      46.099   1.268   8.433  0.00  0.00    +0.000 NA
ATOM     16  H   UNL     1      46.825   1.701   9.009  0.00  0.00    +0.000 HD
BRANCH  15  17
ATOM     17  C   UNL     1      46.536   1.439   7.039  0.00  0.00    +0.000 C 
BRANCH  17  18
ATOM     18  C   UNL     1      48.019   1.847   6.891  0.00  0.00    +0.000 C 
BRANCH  18  19
ATOM     19  N   UNL     1      48.406   1.994   5.484  0.00  0.00    +0.000 NA
ATOM     20  H   UNL     1      48.165   2.936   5.173  0.00  0.00    +0.000 HD
ATOM     21  H   UNL     1      47.841   1.361   4.918  0.00  0.00    +0.000 HD
ENDBRANCH  18  19
ENDBRANCH  17  18
ENDBRANCH  15  17
ENDBRANCH  14  15
ENDBRANCH   8  14
ENDBRANCH   7  11
ENDBRANCH   1   7
BRANCH   4  22
ATOM     22  C   UNL     1      47.891   9.151  15.211  0.00  0.00    +0.000 C 
BRANCH  22  23
ATOM     23  N   UNL     1      48.092   8.519  16.497  0.00  0.00    +0.000 N 
ATOM     24  C   UNL     1      49.209   8.726  17.267  0.00  0.00    +0.000 C 
ATOM     25  O   UNL     1      50.112   9.483  16.926  0.00  0.00    +0.000 OA
ATOM     26  H   UNL     1      47.439   7.787  16.757  0.00  0.00    +0.000 HD
BRANCH  24  27
ATOM     27  C   UNL     1      49.237   8.038  18.564  0.00  0.00    +0.000 A 
ATOM     28  C   UNL     1      49.545   8.751  19.715  0.00  0.00    +0.000 A 
ATOM     29  S   UNL     1      49.478   7.815  21.139  0.00  0.00    +0.000 S 
ATOM     30  C   UNL     1      49.099   6.408  20.261  0.00  0.00    +0.000 A 
ATOM     31  N   UNL     1      48.930   5.215  20.892  0.00  0.00    +0.000 NA
ATOM     32  C   UNL     1      48.691   4.225  20.099  0.00  0.00    +0.000 A 
ATOM     33  N   UNL     1      48.598   4.319  18.737  0.00  0.00    +0.000 N 
ATOM     34  C   UNL     1      48.709   5.510  18.060  0.00  0.00    +0.000 A 
ATOM     35  O   UNL     1      48.539   5.571  16.846  0.00  0.00    +0.000 OA
ATOM     36  C   UNL     1      49.004   6.653  18.901  0.00  0.00    +0.000 A 
ATOM     37  H   UNL     1      48.393   3.505  18.176  0.00  0.00    +0.000 HD
ENDBRANCH  24  27
ENDBRANCH  22  23
ENDBRANCH   4  22
TORSDOF 10
ENDMDL
