MODEL 1
REMARK VINA RESULT:    -8.535      0.000      0.000
REMARK INTER + INTRA:         -12.227
REMARK INTER:                 -11.279
REMARK INTRA:                  -0.948
REMARK UNBOUND:                -0.948
REMARK  Name = 
REMARK  7 active torsions:
REMARK  status: ('A' for Active; 'I' for Inactive)
REMARK    1  A    between atoms: C_1  and  C_2
REMARK    2  A    between atoms: C_6  and  O_7
REMARK    3  A    between atoms: O_7  and  C_8
REMARK    4  A    between atoms: C_10  and  C_11
REMARK    5  A    between atoms: C_11  and  C_14
REMARK    6  A    between atoms: C_14  and  N_15
REMARK    7  A    between atoms: C_20  and  N_21
REMARK                            x       y       z     vdW  Elec       q    Type
REMARK                         _______ _______ _______ _____ _____    ______ ____
ROOT
ATOM      1  C   UNL     1      47.100   5.432  13.566  0.00  0.00    +0.000 A 
ATOM      2  C   UNL     1      45.791   5.122  13.177  0.00  0.00    +0.000 A 
ATOM      3  C   UNL     1      45.052   5.937  12.294  0.00  0.00    +0.000 A 
ATOM      4  C   UNL     1      45.686   7.046  11.726  0.00  0.00    +0.000 A 
ATOM      5  C   UNL     1      47.013   7.340  12.060  0.00  0.00    +0.000 A 
ATOM      6  C   UNL     1      47.714   6.543  12.978  0.00  0.00    +0.000 A 
ATOM      7 CL   UNL     1      49.331   7.001  13.377  0.00  0.00    +0.000 Cl
ENDROOT
BRANCH   3   8
ATOM      8  C   UNL     1      43.599   5.543  12.057  0.00  0.00    +0.000 C 
ATOM      9  F   UNL     1      42.993   5.230  13.244  0.00  0.00    +0.000 F 
ATOM     10  F   UNL     1      42.898   6.627  11.584  0.00  0.00    +0.000 F 
BRANCH   8  11
ATOM     11  C   UNL     1      43.357   4.386  11.062  0.00  0.00    +0.000 C 
BRANCH  11  12
ATOM     12  N   UNL     1      43.775   4.727   9.699  0.00  0.00    +0.000 N 
ATOM     13  C   UNL     1      44.626   3.816   9.096  0.00  0.00    +0.000 A 
ATOM     14  N   UNL     1      44.558   2.522   9.438  0.00  0.00    +0.000 NA
ATOM     15  C   UNL     1      45.368   1.682   8.778  0.00  0.00    +0.000 A 
ATOM     16  C   UNL     1      46.251   2.084   7.815  0.00  0.00    +0.000 A 
ATOM     17  C   UNL     1      46.276   3.438   7.559  0.00  0.00    +0.000 A 
ATOM     18  N   UNL     1      45.475   4.307   8.185  0.00  0.00    +0.000 NA
ATOM     19  H   UNL     1      44.154   5.660   9.565  0.00  0.00    +0.000 HD
BRANCH  17  20
ATOM     20  N   UNL     1      47.123   3.946   6.575  0.00  0.00    +0.000 N 
ATOM     21  H   UNL     1      47.352   3.259   5.867  0.00  0.00    +0.000 HD
ATOM     22  H   UNL     1      47.954   4.308   7.040  0.00  0.00    +0.000 HD
ENDBRANCH  17  20
ENDBRANCH  11  12
ENDBRANCH   8  11
ENDBRANCH   3   8
BRANCH   1  23
ATOM     23  O   UNL     1      47.810   4.701  14.497  0.00  0.00    +0.000 OA
BRANCH  23  29
ATOM     24  C   UNL     1      48.275   2.551  16.437  0.00  0.00    +0.000 C 
ATOM     25  C   UNL     1      47.368   3.736  16.748  0.00  0.00    +0.000 C 
ATOM     26  C   UNL     1      47.645   4.314  18.134  0.00  0.00    +0.000 C 
ATOM     27  N   UNL     1      48.708   5.314  17.964  0.00  0.00    +0.000 NA
ATOM     28  C   UNL     1      48.635   5.777  16.570  0.00  0.00    +0.000 C 
ATOM     29  C   UNL     1      47.525   4.982  15.869  0.00  0.00    +0.000 C 
ATOM     30  H   UNL     1      49.615   4.871  18.110  0.00  0.00    +0.000 HD
ENDBRANCH  23  29
ENDBRANCH   1  23
TORSDOF 6
ENDMDL
MODEL 2
REMARK VINA RESULT:    -7.715      2.299      3.578
REMARK INTER + INTRA:         -11.143
REMARK INTER:                 -10.217
REMARK INTRA:                  -0.926
REMARK UNBOUND:                -0.948
REMARK  Name = 
REMARK  7 active torsions:
REMARK  status: ('A' for Active; 'I' for Inactive)
REMARK    1  A    between atoms: C_1  and  C_2
REMARK    2  A    between atoms: C_6  and  O_7
REMARK    3  A    between atoms: O_7  and  C_8
REMARK    4  A    between atoms: C_10  and  C_11
REMARK    5  A    between atoms: C_11  and  C_14
REMARK    6  A    between atoms: C_14  and  N_15
REMARK    7  A    between atoms: C_20  and  N_21
REMARK                            x       y       z     vdW  Elec       q    Type
REMARK                         _______ _______ _______ _____ _____    ______ ____
ROOT
ATOM      1  C   UNL     1      46.997   6.179  13.420  0.00  0.00    +0.000 A 
ATOM      2  C   UNL     1      46.147   6.251  12.310  0.00  0.00    +0.000 A 
ATOM      3  C   UNL     1      45.306   5.184  11.931  0.00  0.00    +0.000 A 
ATOM      4  C   UNL     1      45.263   4.050  12.748  0.00  0.00    +0.000 A 
ATOM      5  C   UNL     1      46.064   3.983  13.894  0.00  0.00    +0.000 A 
ATOM      6  C   UNL     1      46.930   5.036  14.225  0.00  0.00    +0.000 A 
ATOM      7 CL   UNL     1      47.923   4.855  15.627  0.00  0.00    +0.000 Cl
ENDROOT
BRANCH   3   8
ATOM      8  C   UNL     1      44.529   5.357  10.631  0.00  0.00    +0.000 C 
ATOM      9  F   UNL     1      43.377   6.060  10.858  0.00  0.00    +0.000 F 
ATOM     10  F   UNL     1      45.252   6.142   9.763  0.00  0.00    +0.000 F 
BRANCH   8  11
ATOM     11  C   UNL     1      44.172   4.061   9.869  0.00  0.00    +0.000 C 
BRANCH  11  12
ATOM     12  N   UNL     1      44.492   4.148   8.441  0.00  0.00    +0.000 N 
ATOM     13  C   UNL     1      45.417   3.223   7.985  0.00  0.00    +0.000 A 
ATOM     14  N   UNL     1      45.513   2.031   8.590  0.00  0.00    +0.000 NA
ATOM     15  C   UNL     1      46.386   1.159   8.066  0.00  0.00    +0.000 A 
ATOM     16  C   UNL     1      47.177   1.438   6.986  0.00  0.00    +0.000 A 
ATOM     17  C   UNL     1      47.036   2.702   6.456  0.00  0.00    +0.000 A 
ATOM     18  N   UNL     1      46.166   3.596   6.941  0.00  0.00    +0.000 NA
ATOM     19  H   UNL     1      44.756   5.065   8.095  0.00  0.00    +0.000 HD
BRANCH  17  20
ATOM     20  N   UNL     1      47.777   3.076   5.337  0.00  0.00    +0.000 N 
ATOM     21  H   UNL     1      47.840   4.081   5.231  0.00  0.00    +0.000 HD
ATOM     22  H   UNL     1      47.355   2.631   4.524  0.00  0.00    +0.000 HD
ENDBRANCH  17  20
ENDBRANCH  11  12
ENDBRANCH   8  11
ENDBRANCH   3   8
BRANCH   1  23
ATOM     23  O   UNL     1      47.893   7.173  13.759  0.00  0.00    +0.000 OA
BRANCH  23  29
ATOM     24  C   UNL     1      48.575   9.202  11.754  0.00  0.00    +0.000 C 
ATOM     25  C   UNL     1      49.318   7.874  11.843  0.00  0.00    +0.000 C 
ATOM     26  C   UNL     1      50.831   8.065  11.764  0.00  0.00    +0.000 C 
ATOM     27  N   UNL     1      51.295   8.290  13.140  0.00  0.00    +0.000 NA
ATOM     28  C   UNL     1      50.307   7.659  14.028  0.00  0.00    +0.000 C 
ATOM     29  C   UNL     1      49.185   7.088  13.152  0.00  0.00    +0.000 C 
ATOM     30  H   UNL     1      51.309   9.292  13.332  0.00  0.00    +0.000 HD
ENDBRANCH  23  29
ENDBRANCH   1  23
TORSDOF 6
ENDMDL
MODEL 3
REMARK VINA RESULT:    -7.590      2.590      4.090
REMARK INTER + INTRA:         -10.978
REMARK INTER:                 -10.246
REMARK INTRA:                  -0.732
REMARK UNBOUND:                -0.948
REMARK  Name = 
REMARK  7 active torsions:
REMARK  status: ('A' for Active; 'I' for Inactive)
REMARK    1  A    between atoms: C_1  and  C_2
REMARK    2  A    between atoms: C_6  and  O_7
REMARK    3  A    between atoms: O_7  and  C_8
REMARK    4  A    between atoms: C_10  and  C_11
REMARK    5  A    between atoms: C_11  and  C_14
REMARK    6  A    between atoms: C_14  and  N_15
REMARK    7  A    between atoms: C_20  and  N_21
REMARK                            x       y       z     vdW  Elec       q    Type
REMARK                         _______ _______ _______ _____ _____    ______ ____
ROOT
ATOM      1  C   UNL     1      46.771   6.755  12.279  0.00  0.00    +0.000 A 
ATOM      2  C   UNL     1      45.596   6.246  11.713  0.00  0.00    +0.000 A 
ATOM      3  C   UNL     1      44.982   5.065  12.180  0.00  0.00    +0.000 A 
ATOM      4  C   UNL     1      45.526   4.433  13.302  0.00  0.00    +0.000 A 
ATOM      5  C   UNL     1      46.668   4.959  13.917  0.00  0.00    +0.000 A 
ATOM      6  C   UNL     1      47.291   6.108  13.406  0.00  0.00    +0.000 A 
ATOM      7 CL   UNL     1      48.726   6.665  14.190  0.00  0.00    +0.000 Cl
ENDROOT
BRANCH   3   8
ATOM      8  C   UNL     1      43.779   4.564  11.389  0.00  0.00    +0.000 C 
ATOM      9  F   UNL     1      42.734   4.303  12.233  0.00  0.00    +0.000 F 
ATOM     10  F   UNL     1      43.321   5.564  10.565  0.00  0.00    +0.000 F 
BRANCH   8  11
ATOM     11  C   UNL     1      44.014   3.324  10.498  0.00  0.00    +0.000 C 
BRANCH  11  12
ATOM     12  N   UNL     1      44.126   3.670   9.078  0.00  0.00    +0.000 N 
ATOM     13  C   UNL     1      45.108   2.988   8.379  0.00  0.00    +0.000 A 
ATOM     14  N   UNL     1      45.456   1.753   8.764  0.00  0.00    +0.000 NA
ATOM     15  C   UNL     1      46.371   1.124   8.012  0.00  0.00    +0.000 A 
ATOM     16  C   UNL     1      46.963   1.685   6.915  0.00  0.00    +0.000 A 
ATOM     17  C   UNL     1      46.569   2.972   6.620  0.00  0.00    +0.000 A 
ATOM     18  N   UNL     1      45.649   3.629   7.336  0.00  0.00    +0.000 NA
ATOM     19  H   UNL     1      44.204   4.660   8.862  0.00  0.00    +0.000 HD
BRANCH  17  20
ATOM     20  N   UNL     1      47.093   3.623   5.504  0.00  0.00    +0.000 N 
ATOM     21  H   UNL     1      46.517   3.506   4.680  0.00  0.00    +0.000 HD
ATOM     22  H   UNL     1      48.040   3.277   5.362  0.00  0.00    +0.000 HD
ENDBRANCH  17  20
ENDBRANCH  11  12
ENDBRANCH   8  11
ENDBRANCH   3   8
BRANCH   1  23
ATOM     23  O   UNL     1      47.439   7.857  11.784  0.00  0.00    +0.000 OA
BRANCH  23  29
ATOM     24  C   UNL     1      49.272  10.061  11.162  0.00  0.00    +0.000 C 
ATOM     25  C   UNL     1      48.490  10.006  12.470  0.00  0.00    +0.000 C 
ATOM     26  C   UNL     1      47.846  11.351  12.801  0.00  0.00    +0.000 C 
ATOM     27  N   UNL     1      46.532  11.357  12.145  0.00  0.00    +0.000 NA
ATOM     28  C   UNL     1      46.131   9.951  11.986  0.00  0.00    +0.000 C 
ATOM     29  C   UNL     1      47.273   9.074  12.515  0.00  0.00    +0.000 C 
ATOM     30  H   UNL     1      46.619  11.775  11.218  0.00  0.00    +0.000 HD
ENDBRANCH  23  29
ENDBRANCH   1  23
TORSDOF 6
ENDMDL
MODEL 4
REMARK VINA RESULT:    -7.453      2.402      3.495
REMARK INTER + INTRA:         -10.797
REMARK INTER:                  -9.919
REMARK INTRA:                  -0.879
REMARK UNBOUND:                -0.948
REMARK  Name = 
REMARK  7 active torsions:
REMARK  status: ('A' for Active; 'I' for Inactive)
REMARK    1  A    between atoms: C_1  and  C_2
REMARK    2  A    between atoms: C_6  and  O_7
REMARK    3  A    between atoms: O_7  and  C_8
REMARK    4  A    between atoms: C_10  and  C_11
REMARK    5  A    between atoms: C_11  and  C_14
REMARK    6  A    between atoms: C_14  and  N_15
REMARK    7  A    between atoms: C_20  and  N_21
REMARK                            x       y       z     vdW  Elec       q    Type
REMARK                         _______ _______ _______ _____ _____    ______ ____
ROOT
ATOM      1  C   UNL     1      47.629   5.889  13.637  0.00  0.00    +0.000 A 
ATOM      2  C   UNL     1      46.940   6.119  12.440  0.00  0.00    +0.000 A 
ATOM      3  C   UNL     1      45.830   5.344  12.046  0.00  0.00    +0.000 A 
ATOM      4  C   UNL     1      45.355   4.368  12.928  0.00  0.00    +0.000 A 
ATOM      5  C   UNL     1      45.997   4.161  14.154  0.00  0.00    +0.000 A 
ATOM      6  C   UNL     1      47.130   4.911  14.505  0.00  0.00    +0.000 A 
ATOM      7 CL   UNL     1      47.896   4.561  16.013  0.00  0.00    +0.000 Cl
ENDROOT
BRANCH   3   8
ATOM      8  C   UNL     1      45.256   5.628  10.663  0.00  0.00    +0.000 C 
ATOM      9  F   UNL     1      44.324   6.627  10.733  0.00  0.00    +0.000 F 
ATOM     10  F   UNL     1      46.244   6.129   9.848  0.00  0.00    +0.000 F 
BRANCH   8  11
ATOM     11  C   UNL     1      44.633   4.425   9.920  0.00  0.00    +0.000 C 
BRANCH  11  12
ATOM     12  N   UNL     1      44.905   4.457   8.480  0.00  0.00    +0.000 N 
ATOM     13  C   UNL     1      45.682   3.416   8.001  0.00  0.00    +0.000 A 
ATOM     14  N   UNL     1      45.645   2.226   8.617  0.00  0.00    +0.000 NA
ATOM     15  C   UNL     1      46.375   1.243   8.072  0.00  0.00    +0.000 A 
ATOM     16  C   UNL     1      47.152   1.407   6.959  0.00  0.00    +0.000 A 
ATOM     17  C   UNL     1      47.157   2.675   6.418  0.00  0.00    +0.000 A 
ATOM     18  N   UNL     1      46.431   3.679   6.924  0.00  0.00    +0.000 NA
ATOM     19  H   UNL     1      45.272   5.330   8.111  0.00  0.00    +0.000 HD
BRANCH  17  20
ATOM     20  N   UNL     1      47.896   2.939   5.266  0.00  0.00    +0.000 N 
ATOM     21  H   UNL     1      48.541   3.710   5.388  0.00  0.00    +0.000 HD
ATOM     22  H   UNL     1      47.236   3.108   4.509  0.00  0.00    +0.000 HD
ENDBRANCH  17  20
ENDBRANCH  11  12
ENDBRANCH   8  11
ENDBRANCH   3   8
BRANCH   1  23
ATOM     23  O   UNL     1      48.772   6.573  14.001  0.00  0.00    +0.000 OA
BRANCH  23  29
ATOM     24  C   UNL     1      48.385   8.908  15.733  0.00  0.00    +0.000 C 
ATOM     25  C   UNL     1      48.323   9.012  14.213  0.00  0.00    +0.000 C 
ATOM     26  C   UNL     1      49.122  10.205  13.694  0.00  0.00    +0.000 C 
ATOM     27  N   UNL     1      50.498   9.730  13.494  0.00  0.00    +0.000 NA
ATOM     28  C   UNL     1      50.418   8.278  13.279  0.00  0.00    +0.000 C 
ATOM     29  C   UNL     1      48.946   7.863  13.411  0.00  0.00    +0.000 C 
ATOM     30  H   UNL     1      51.040   9.902  14.341  0.00  0.00    +0.000 HD
ENDBRANCH  23  29
ENDBRANCH   1  23
TORSDOF 6
ENDMDL
MODEL 5
REMARK VINA RESULT:    -7.110      3.145      7.196
REMARK INTER + INTRA:         -10.343
REMARK INTER:                  -9.185
REMARK INTRA:                  -1.158
REMARK UNBOUND:                -0.948
REMARK  Name = 
REMARK  7 active torsions:
REMARK  status: ('A' for Active; 'I' for Inactive)
REMARK    1  A    between atoms: C_1  and  C_2
REMARK    2  A    between atoms: C_6  and  O_7
REMARK    3  A    between atoms: O_7  and  C_8
REMARK    4  A    between atoms: C_10  and  C_11
REMARK    5  A    between atoms: C_11  and  C_14
REMARK    6  A    between atoms: C_14  and  N_15
REMARK    7  A    between atoms: C_20  and  N_21
REMARK                            x       y       z     vdW  Elec       q    Type
REMARK                         _______ _______ _______ _____ _____    ______ ____
ROOT
ATOM      1  C   UNL     1      45.647   6.931  11.435  0.00  0.00    +0.000 A 
ATOM      2  C   UNL     1      46.917   6.715  11.984  0.00  0.00    +0.000 A 
ATOM      3  C   UNL     1      47.620   7.719  12.682  0.00  0.00    +0.000 A 
ATOM      4  C   UNL     1      46.983   8.944  12.902  0.00  0.00    +0.000 A 
ATOM      5  C   UNL     1      45.691   9.160  12.410  0.00  0.00    +0.000 A 
ATOM      6  C   UNL     1      45.029   8.164  11.676  0.00  0.00    +0.000 A 
ATOM      7 CL   UNL     1      43.456   8.525  11.058  0.00  0.00    +0.000 Cl
ENDROOT
BRANCH   3   8
ATOM      8  C   UNL     1      49.041   7.380  13.115  0.00  0.00    +0.000 C 
ATOM      9  F   UNL     1      49.421   6.174  12.593  0.00  0.00    +0.000 F 
ATOM     10  F   UNL     1      49.918   8.288  12.570  0.00  0.00    +0.000 F 
BRANCH   8  11
ATOM     11  C   UNL     1      49.306   7.363  14.637  0.00  0.00    +0.000 C 
BRANCH  11  12
ATOM     12  N   UNL     1      48.202   6.759  15.389  0.00  0.00    +0.000 N 
ATOM     13  C   UNL     1      48.550   5.688  16.194  0.00  0.00    +0.000 A 
ATOM     14  N   UNL     1      49.785   5.624  16.712  0.00  0.00    +0.000 NA
ATOM     15  C   UNL     1      50.043   4.592  17.529  0.00  0.00    +0.000 A 
ATOM     16  C   UNL     1      49.130   3.619  17.826  0.00  0.00    +0.000 A 
ATOM     17  C   UNL     1      47.901   3.748  17.217  0.00  0.00    +0.000 A 
ATOM     18  N   UNL     1      47.600   4.770  16.407  0.00  0.00    +0.000 NA
ATOM     19  H   UNL     1      47.379   6.505  14.851  0.00  0.00    +0.000 HD
BRANCH  17  20
ATOM     20  N   UNL     1      46.893   2.822  17.477  0.00  0.00    +0.000 N 
ATOM     21  H   UNL     1      47.210   2.057  18.059  0.00  0.00    +0.000 HD
ATOM     22  H   UNL     1      46.533   2.498  16.581  0.00  0.00    +0.000 HD
ENDBRANCH  17  20
ENDBRANCH  11  12
ENDBRANCH   8  11
ENDBRANCH   3   8
BRANCH   1  23
ATOM     23  O   UNL     1      44.978   5.995  10.672  0.00  0.00    +0.000 OA
BRANCH  23  29
ATOM     24  C   UNL     1      42.429   5.256  11.920  0.00  0.00    +0.000 C 
ATOM     25  C   UNL     1      43.723   4.509  12.225  0.00  0.00    +0.000 C 
ATOM     26  C   UNL     1      43.527   2.996  12.190  0.00  0.00    +0.000 C 
ATOM     27  N   UNL     1      43.745   2.579  10.798  0.00  0.00    +0.000 NA
ATOM     28  C   UNL     1      44.615   3.594  10.184  0.00  0.00    +0.000 C 
ATOM     29  C   UNL     1      44.878   4.684  11.231  0.00  0.00    +0.000 C 
ATOM     30  H   UNL     1      42.853   2.576  10.303  0.00  0.00    +0.000 HD
ENDBRANCH  23  29
ENDBRANCH   1  23
TORSDOF 6
ENDMDL
MODEL 6
REMARK VINA RESULT:    -6.755      2.577      3.613
REMARK INTER + INTRA:          -9.875
REMARK INTER:                  -8.919
REMARK INTRA:                  -0.956
REMARK UNBOUND:                -0.948
REMARK  Name = 
REMARK  7 active torsions:
REMARK  status: ('A' for Active; 'I' for Inactive)
REMARK    1  A    between atoms: C_1  and  C_2
REMARK    2  A    between atoms: C_6  and  O_7
REMARK    3  A    between atoms: O_7  and  C_8
REMARK    4  A    between atoms: C_10  and  C_11
REMARK    5  A    between atoms: C_11  and  C_14
REMARK    6  A    between atoms: C_14  and  N_15
REMARK    7  A    between atoms: C_20  and  N_21
REMARK                            x       y       z     vdW  Elec       q    Type
REMARK                         _______ _______ _______ _____ _____    ______ ____
ROOT
ATOM      1  C   UNL     1      48.703   6.597  15.306  0.00  0.00    +0.000 A 
ATOM      2  C   UNL     1      48.099   6.751  14.053  0.00  0.00    +0.000 A 
ATOM      3  C   UNL     1      47.660   8.003  13.574  0.00  0.00    +0.000 A 
ATOM      4  C   UNL     1      47.920   9.138  14.349  0.00  0.00    +0.000 A 
ATOM      5  C   UNL     1      48.574   9.011  15.580  0.00  0.00    +0.000 A 
ATOM      6  C   UNL     1      48.958   7.749  16.059  0.00  0.00    +0.000 A 
ATOM      7 CL   UNL     1      49.714   7.669  17.611  0.00  0.00    +0.000 Cl
ENDROOT
BRANCH   3   8
ATOM      8  C   UNL     1      46.910   8.001  12.248  0.00  0.00    +0.000 C 
ATOM      9  F   UNL     1      47.006   9.227  11.648  0.00  0.00    +0.000 F 
ATOM     10  F   UNL     1      47.523   7.136  11.373  0.00  0.00    +0.000 F 
BRANCH   8  11
ATOM     11  C   UNL     1      45.420   7.597  12.305  0.00  0.00    +0.000 C 
BRANCH  11  12
ATOM     12  N   UNL     1      45.038   6.715  11.198  0.00  0.00    +0.000 N 
ATOM     13  C   UNL     1      44.566   5.468  11.571  0.00  0.00    +0.000 A 
ATOM     14  N   UNL     1      43.941   5.323  12.748  0.00  0.00    +0.000 NA
ATOM     15  C   UNL     1      43.457   4.103  13.026  0.00  0.00    +0.000 A 
ATOM     16  C   UNL     1      43.594   3.028  12.192  0.00  0.00    +0.000 A 
ATOM     17  C   UNL     1      44.284   3.266  11.023  0.00  0.00    +0.000 A 
ATOM     18  N   UNL     1      44.770   4.471  10.703  0.00  0.00    +0.000 NA
ATOM     19  H   UNL     1      45.728   6.593  10.463  0.00  0.00    +0.000 HD
BRANCH  17  20
ATOM     20  N   UNL     1      44.454   2.242  10.093  0.00  0.00    +0.000 N 
ATOM     21  H   UNL     1      43.583   1.780   9.862  0.00  0.00    +0.000 HD
ATOM     22  H   UNL     1      45.142   1.593  10.470  0.00  0.00    +0.000 HD
ENDBRANCH  17  20
ENDBRANCH  11  12
ENDBRANCH   8  11
ENDBRANCH   3   8
BRANCH   1  23
ATOM     23  O   UNL     1      49.058   5.372  15.835  0.00  0.00    +0.000 OA
BRANCH  23  29
ATOM     24  C   UNL     1      49.756   2.932  17.305  0.00  0.00    +0.000 C 
ATOM     25  C   UNL     1      48.397   3.111  16.637  0.00  0.00    +0.000 C 
ATOM     26  C   UNL     1      47.253   2.693  17.559  0.00  0.00    +0.000 C 
ATOM     27  N   UNL     1      46.898   3.880  18.347  0.00  0.00    +0.000 NA
ATOM     28  C   UNL     1      47.307   5.051  17.557  0.00  0.00    +0.000 C 
ATOM     29  C   UNL     1      47.982   4.542  16.277  0.00  0.00    +0.000 C 
ATOM     30  H   UNL     1      47.428   3.878  19.219  0.00  0.00    +0.000 HD
ENDBRANCH  23  29
ENDBRANCH   1  23
TORSDOF 6
ENDMDL
MODEL 7
REMARK VINA RESULT:    -6.732      3.439      7.987
REMARK INTER + INTRA:          -9.844
REMARK INTER:                  -9.151
REMARK INTRA:                  -0.693
REMARK UNBOUND:                -0.948
REMARK  Name = 
REMARK  7 active torsions:
REMARK  status: ('A' for Active; 'I' for Inactive)
REMARK    1  A    between atoms: C_1  and  C_2
REMARK    2  A    between atoms: C_6  and  O_7
REMARK    3  A    between atoms: O_7  and  C_8
REMARK    4  A    between atoms: C_10  and  C_11
REMARK    5  A    between atoms: C_11  and  C_14
REMARK    6  A    between atoms: C_14  and  N_15
REMARK    7  A    between atoms: C_20  and  N_21
REMARK                            x       y       z     vdW  Elec       q    Type
REMARK                         _______ _______ _______ _____ _____    ______ ____
ROOT
ATOM      1  C   UNL     1      46.698   5.479  13.356  0.00  0.00    +0.000 A 
ATOM      2  C   UNL     1      46.835   4.598  14.435  0.00  0.00    +0.000 A 
ATOM      3  C   UNL     1      47.736   4.835  15.494  0.00  0.00    +0.000 A 
ATOM      4  C   UNL     1      48.451   6.036  15.501  0.00  0.00    +0.000 A 
ATOM      5  C   UNL     1      48.285   6.956  14.459  0.00  0.00    +0.000 A 
ATOM      6  C   UNL     1      47.420   6.677  13.390  0.00  0.00    +0.000 A 
ATOM      7 CL   UNL     1      47.308   7.839  12.117  0.00  0.00    +0.000 Cl
ENDROOT
BRANCH   3   8
ATOM      8  C   UNL     1      47.869   3.731  16.537  0.00  0.00    +0.000 C 
ATOM      9  F   UNL     1      46.773   3.720  17.357  0.00  0.00    +0.000 F 
ATOM     10  F   UNL     1      47.850   2.505  15.914  0.00  0.00    +0.000 F 
BRANCH   8  11
ATOM     11  C   UNL     1      49.140   3.767  17.414  0.00  0.00    +0.000 C 
BRANCH  11  12
ATOM     12  N   UNL     1      49.674   2.427  17.677  0.00  0.00    +0.000 N 
ATOM     13  C   UNL     1      51.055   2.330  17.669  0.00  0.00    +0.000 A 
ATOM     14  N   UNL     1      51.795   3.392  18.017  0.00  0.00    +0.000 NA
ATOM     15  C   UNL     1      53.124   3.217  18.045  0.00  0.00    +0.000 A 
ATOM     16  C   UNL     1      53.738   2.040  17.718  0.00  0.00    +0.000 A 
ATOM     17  C   UNL     1      52.897   1.016  17.336  0.00  0.00    +0.000 A 
ATOM     18  N   UNL     1      51.566   1.146  17.309  0.00  0.00    +0.000 NA
ATOM     19  H   UNL     1      49.294   1.673  17.113  0.00  0.00    +0.000 HD
BRANCH  17  20
ATOM     20  N   UNL     1      53.423  -0.232  17.010  0.00  0.00    +0.000 N 
ATOM     21  H   UNL     1      54.422  -0.286  17.166  0.00  0.00    +0.000 HD
ATOM     22  H   UNL     1      53.176  -0.428  16.042  0.00  0.00    +0.000 HD
ENDBRANCH  17  20
ENDBRANCH  11  12
ENDBRANCH   8  11
ENDBRANCH   3   8
BRANCH   1  23
ATOM     23  O   UNL     1      45.891   5.225  12.265  0.00  0.00    +0.000 OA
BRANCH  23  29
ATOM     24  C   UNL     1      42.973   5.120  12.543  0.00  0.00    +0.000 C 
ATOM     25  C   UNL     1      43.852   3.900  12.797  0.00  0.00    +0.000 C 
ATOM     26  C   UNL     1      43.293   2.649  12.124  0.00  0.00    +0.000 C 
ATOM     27  N   UNL     1      43.845   2.624  10.763  0.00  0.00    +0.000 NA
ATOM     28  C   UNL     1      45.101   3.389  10.802  0.00  0.00    +0.000 C 
ATOM     29  C   UNL     1      45.274   3.936  12.224  0.00  0.00    +0.000 C 
ATOM     30  H   UNL     1      43.200   3.095  10.129  0.00  0.00    +0.000 HD
ENDBRANCH  23  29
ENDBRANCH   1  23
TORSDOF 6
ENDMDL
MODEL 8
REMARK VINA RESULT:    -6.678      2.285      3.070
REMARK INTER + INTRA:          -9.773
REMARK INTER:                  -8.867
REMARK INTRA:                  -0.906
REMARK UNBOUND:                -0.948
REMARK  Name = 
REMARK  7 active torsions:
REMARK  status: ('A' for Active; 'I' for Inactive)
REMARK    1  A    between atoms: C_1  and  C_2
REMARK    2  A    between atoms: C_6  and  O_7
REMARK    3  A    between atoms: O_7  and  C_8
REMARK    4  A    between atoms: C_10  and  C_11
REMARK    5  A    between atoms: C_11  and  C_14
REMARK    6  A    between atoms: C_14  and  N_15
REMARK    7  A    between atoms: C_20  and  N_21
REMARK                            x       y       z     vdW  Elec       q    Type
REMARK                         _______ _______ _______ _____ _____    ______ ____
ROOT
ATOM      1  C   UNL     1      48.261   5.965  15.001  0.00  0.00    +0.000 A 
ATOM      2  C   UNL     1      47.616   6.456  13.859  0.00  0.00    +0.000 A 
ATOM      3  C   UNL     1      46.587   5.745  13.207  0.00  0.00    +0.000 A 
ATOM      4  C   UNL     1      46.143   4.548  13.778  0.00  0.00    +0.000 A 
ATOM      5  C   UNL     1      46.737   4.069  14.952  0.00  0.00    +0.000 A 
ATOM      6  C   UNL     1      47.793   4.768  15.556  0.00  0.00    +0.000 A 
ATOM      7 CL   UNL     1      48.508   4.086  16.973  0.00  0.00    +0.000 Cl
ENDROOT
BRANCH   3   8
ATOM      8  C   UNL     1      46.063   6.342  11.907  0.00  0.00    +0.000 C 
ATOM      9  F   UNL     1      45.607   7.615  12.120  0.00  0.00    +0.000 F 
ATOM     10  F   UNL     1      47.100   6.488  11.016  0.00  0.00    +0.000 F 
BRANCH   8  11
ATOM     11  C   UNL     1      44.960   5.540  11.181  0.00  0.00    +0.000 C 
BRANCH  11  12
ATOM     12  N   UNL     1      45.084   5.616   9.722  0.00  0.00    +0.000 N 
ATOM     13  C   UNL     1      45.438   4.433   9.096  0.00  0.00    +0.000 A 
ATOM     14  N   UNL     1      45.085   3.262   9.647  0.00  0.00    +0.000 NA
ATOM     15  C   UNL     1      45.407   2.154   8.964  0.00  0.00    +0.000 A 
ATOM     16  C   UNL     1      46.082   2.169   7.775  0.00  0.00    +0.000 A 
ATOM     17  C   UNL     1      46.436   3.416   7.307  0.00  0.00    +0.000 A 
ATOM     18  N   UNL     1      46.121   4.546   7.952  0.00  0.00    +0.000 NA
ATOM     19  H   UNL     1      45.672   6.361   9.359  0.00  0.00    +0.000 HD
BRANCH  17  20
ATOM     20  N   UNL     1      47.103   3.541   6.090  0.00  0.00    +0.000 N 
ATOM     21  H   UNL     1      46.484   3.803   5.333  0.00  0.00    +0.000 HD
ATOM     22  H   UNL     1      47.579   2.659   5.907  0.00  0.00    +0.000 HD
ENDBRANCH  17  20
ENDBRANCH  11  12
ENDBRANCH   8  11
ENDBRANCH   3   8
BRANCH   1  23
ATOM     23  O   UNL     1      49.329   6.598  15.603  0.00  0.00    +0.000 OA
BRANCH  23  29
ATOM     24  C   UNL     1      50.662   6.764  18.211  0.00  0.00    +0.000 C 
ATOM     25  C   UNL     1      49.380   7.534  17.908  0.00  0.00    +0.000 C 
ATOM     26  C   UNL     1      49.467   8.985  18.376  0.00  0.00    +0.000 C 
ATOM     27  N   UNL     1      50.054   9.746  17.266  0.00  0.00    +0.000 NA
ATOM     28  C   UNL     1      49.755   9.000  16.035  0.00  0.00    +0.000 C 
ATOM     29  C   UNL     1      49.011   7.718  16.432  0.00  0.00    +0.000 C 
ATOM     30  H   UNL     1      51.068   9.785  17.382  0.00  0.00    +0.000 HD
ENDBRANCH  23  29
ENDBRANCH   1  23
TORSDOF 6
ENDMDL
MODEL 9
REMARK VINA RESULT:    -6.409      2.018      2.676
REMARK INTER + INTRA:          -9.418
REMARK INTER:                  -8.690
REMARK INTRA:                  -0.728
REMARK UNBOUND:                -0.948
REMARK  Name = 
REMARK  7 active torsions:
REMARK  status: ('A' for Active; 'I' for Inactive)
REMARK    1  A    between atoms: C_1  and  C_2
REMARK    2  A    between atoms: C_6  and  O_7
REMARK    3  A    between atoms: O_7  and  C_8
REMARK    4  A    between atoms: C_10  and  C_11
REMARK    5  A    between atoms: C_11  and  C_14
REMARK    6  A    between atoms: C_14  and  N_15
REMARK    7  A    between atoms: C_20  and  N_21
REMARK                            x       y       z     vdW  Elec       q    Type
REMARK                         _______ _______ _______ _____ _____    ______ ____
ROOT
ATOM      1  C   UNL     1      48.740   6.767  15.299  0.00  0.00    +0.000 A 
ATOM      2  C   UNL     1      47.610   6.848  14.476  0.00  0.00    +0.000 A 
ATOM      3  C   UNL     1      47.637   7.474  13.213  0.00  0.00    +0.000 A 
ATOM      4  C   UNL     1      48.861   7.954  12.736  0.00  0.00    +0.000 A 
ATOM      5  C   UNL     1      50.014   7.833  13.521  0.00  0.00    +0.000 A 
ATOM      6  C   UNL     1      49.954   7.249  14.796  0.00  0.00    +0.000 A 
ATOM      7 CL   UNL     1      51.409   7.182  15.724  0.00  0.00    +0.000 Cl
ENDROOT
BRANCH   3   8
ATOM      8  C   UNL     1      46.305   7.595  12.482  0.00  0.00    +0.000 C 
ATOM      9  F   UNL     1      45.391   8.241  13.269  0.00  0.00    +0.000 F 
ATOM     10  F   UNL     1      46.455   8.408  11.383  0.00  0.00    +0.000 F 
BRANCH   8  11
ATOM     11  C   UNL     1      45.677   6.276  11.980  0.00  0.00    +0.000 C 
BRANCH  11  12
ATOM     12  N   UNL     1      45.541   6.243  10.521  0.00  0.00    +0.000 N 
ATOM     13  C   UNL     1      45.299   4.993   9.978  0.00  0.00    +0.000 A 
ATOM     14  N   UNL     1      44.645   4.073  10.701  0.00  0.00    +0.000 NA
ATOM     15  C   UNL     1      44.392   2.902  10.099  0.00  0.00    +0.000 A 
ATOM     16  C   UNL     1      44.784   2.609   8.822  0.00  0.00    +0.000 A 
ATOM     17  C   UNL     1      45.484   3.602   8.172  0.00  0.00    +0.000 A 
ATOM     18  N   UNL     1      45.744   4.789   8.733  0.00  0.00    +0.000 NA
ATOM     19  H   UNL     1      46.284   6.687   9.990  0.00  0.00    +0.000 HD
BRANCH  17  20
ATOM     20  N   UNL     1      45.904   3.412   6.857  0.00  0.00    +0.000 N 
ATOM     21  H   UNL     1      46.853   3.731   6.703  0.00  0.00    +0.000 HD
ATOM     22  H   UNL     1      45.238   3.883   6.248  0.00  0.00    +0.000 HD
ENDBRANCH  17  20
ENDBRANCH  11  12
ENDBRANCH   8  11
ENDBRANCH   3   8
BRANCH   1  23
ATOM     23  O   UNL     1      48.716   6.241  16.574  0.00  0.00    +0.000 OA
BRANCH  23  29
ATOM     24  C   UNL     1      49.454   4.957  19.107  0.00  0.00    +0.000 C 
ATOM     25  C   UNL     1      49.330   4.168  17.808  0.00  0.00    +0.000 C 
ATOM     26  C   UNL     1      48.542   2.874  18.005  0.00  0.00    +0.000 C 
ATOM     27  N   UNL     1      47.127   3.213  17.804  0.00  0.00    +0.000 NA
ATOM     28  C   UNL     1      47.095   4.404  16.943  0.00  0.00    +0.000 C 
ATOM     29  C   UNL     1      48.544   4.825  16.667  0.00  0.00    +0.000 C 
ATOM     30  H   UNL     1      46.707   3.452  18.702  0.00  0.00    +0.000 HD
ENDBRANCH  23  29
ENDBRANCH   1  23
TORSDOF 6
ENDMDL
