MODEL 1
REMARK VINA RESULT:    -7.866      0.000      0.000
REMARK INTER + INTRA:         -11.324
REMARK INTER:                 -10.625
REMARK INTRA:                  -0.699
REMARK UNBOUND:                -0.699
REMARK  Name = 
REMARK  7 active torsions:
REMARK  status: ('A' for Active; 'I' for Inactive)
REMARK    1  A    between atoms: N_1  and  C_2
REMARK    2  A    between atoms: C_2  and  C_3
REMARK    3  A    between atoms: C_3  and  C_4
REMARK    4  A    between atoms: C_8  and  C_9
REMARK    5  A    between atoms: C_9  and  N_10
REMARK    6  A    between atoms: C_15  and  C_16
REMARK    7  A    between atoms: C_16  and  O_18
REMARK                            x       y       z     vdW  Elec       q    Type
REMARK                         _______ _______ _______ _____ _____    ______ ____
ROOT
ATOM      1  N   UNL     1      44.003   4.101  10.546  0.00  0.00    +0.000 N 
ATOM      2  N   UNL     1      43.487   2.927  10.986  0.00  0.00    +0.000 NA
ATOM      3  C   UNL     1      44.080   2.011  10.217  0.00  0.00    +0.000 A 
ATOM      4  C   UNL     1      44.974   2.578   9.288  0.00  0.00    +0.000 A 
ATOM      5  C   UNL     1      45.797   2.083   8.258  0.00  0.00    +0.000 A 
ATOM      6  C   UNL     1      46.552   2.985   7.491  0.00  0.00    +0.000 A 
ATOM      7  C   UNL     1      46.491   4.359   7.755  0.00  0.00    +0.000 A 
ATOM      8  C   UNL     1      45.688   4.864   8.790  0.00  0.00    +0.000 A 
ATOM      9  C   UNL     1      44.928   3.946   9.532  0.00  0.00    +0.000 A 
ENDROOT
BRANCH   6  10
ATOM     10  C   UNL     1      47.339   2.418   6.360  0.00  0.00    +0.000 C 
ATOM     11  O   UNL     1      48.114   1.487   6.502  0.00  0.00    +0.000 OA
BRANCH  10  12
ATOM     12  O   UNL     1      47.147   3.035   5.177  0.00  0.00    +0.000 OA
ATOM     13  H   UNL     1      46.269   3.432   5.046  0.00  0.00    +0.000 HD
ENDBRANCH  10  12
ENDBRANCH   6  10
BRANCH   1  14
ATOM     14  C   UNL     1      43.420   5.346  11.019  0.00  0.00    +0.000 C 
BRANCH  14  19
ATOM     15  C   UNL     1      46.350   6.438  12.984  0.00  0.00    +0.000 A 
ATOM     16  C   UNL     1      46.419   7.809  12.753  0.00  0.00    +0.000 A 
ATOM     17  C   UNL     1      45.427   8.411  11.988  0.00  0.00    +0.000 A 
ATOM     18  C   UNL     1      44.409   7.627  11.453  0.00  0.00    +0.000 A 
ATOM     19  C   UNL     1      44.419   6.253  11.686  0.00  0.00    +0.000 A 
ATOM     20  N   UNL     1      45.378   5.658  12.446  0.00  0.00    +0.000 NA
BRANCH  15  21
ATOM     21  C   UNL     1      47.366   5.764  13.870  0.00  0.00    +0.000 C 
BRANCH  21  22
ATOM     22  C   UNL     1      46.781   4.561  14.610  0.00  0.00    +0.000 C 
BRANCH  22  23
ATOM     23  N   UNL     1      47.187   3.306  13.969  0.00  0.00    +0.000 NA
ATOM     24  H   UNL     1      46.666   2.533  14.384  0.00  0.00    +0.000 HD
ATOM     25  H   UNL     1      48.170   3.123  14.176  0.00  0.00    +0.000 HD
ENDBRANCH  22  23
ENDBRANCH  21  22
ENDBRANCH  15  21
ENDBRANCH  14  19
ENDBRANCH   1  14
TORSDOF 7
ENDMDL
MODEL 2
REMARK VINA RESULT:    -7.334      1.515      2.967
REMARK INTER + INTRA:         -10.606
REMARK INTER:                  -9.942
REMARK INTRA:                  -0.664
REMARK UNBOUND:                -0.699
REMARK  Name = 
REMARK  7 active torsions:
REMARK  status: ('A' for Active; 'I' for Inactive)
REMARK    1  A    between atoms: N_1  and  C_2
REMARK    2  A    between atoms: C_2  and  C_3
REMARK    3  A    between atoms: C_3  and  C_4
REMARK    4  A    between atoms: C_8  and  C_9
REMARK    5  A    between atoms: C_9  and  N_10
REMARK    6  A    between atoms: C_15  and  C_16
REMARK    7  A    between atoms: C_16  and  O_18
REMARK                            x       y       z     vdW  Elec       q    Type
REMARK                         _______ _______ _______ _____ _____    ______ ____
ROOT
ATOM      1  N   UNL     1      44.055   4.323  10.515  0.00  0.00    +0.000 N 
ATOM      2  N   UNL     1      43.485   3.186  10.987  0.00  0.00    +0.000 NA
ATOM      3  C   UNL     1      44.030   2.224  10.239  0.00  0.00    +0.000 A 
ATOM      4  C   UNL     1      44.945   2.724   9.292  0.00  0.00    +0.000 A 
ATOM      5  C   UNL     1      45.739   2.165   8.272  0.00  0.00    +0.000 A 
ATOM      6  C   UNL     1      46.530   3.010   7.479  0.00  0.00    +0.000 A 
ATOM      7  C   UNL     1      46.537   4.392   7.708  0.00  0.00    +0.000 A 
ATOM      8  C   UNL     1      45.764   4.961   8.732  0.00  0.00    +0.000 A 
ATOM      9  C   UNL     1      44.965   4.099   9.501  0.00  0.00    +0.000 A 
ENDROOT
BRANCH   6  10
ATOM     10  C   UNL     1      47.284   2.378   6.359  0.00  0.00    +0.000 C 
ATOM     11  O   UNL     1      47.108   2.687   5.193  0.00  0.00    +0.000 OA
BRANCH  10  12
ATOM     12  O   UNL     1      48.152   1.419   6.737  0.00  0.00    +0.000 OA
ATOM     13  H   UNL     1      48.356   1.385   7.688  0.00  0.00    +0.000 HD
ENDBRANCH  10  12
ENDBRANCH   6  10
BRANCH   1  14
ATOM     14  C   UNL     1      43.533   5.606  10.958  0.00  0.00    +0.000 C 
BRANCH  14  19
ATOM     15  C   UNL     1      45.325   8.621  12.116  0.00  0.00    +0.000 A 
ATOM     16  C   UNL     1      46.276   8.128  13.003  0.00  0.00    +0.000 A 
ATOM     17  C   UNL     1      46.386   6.753  13.173  0.00  0.00    +0.000 A 
ATOM     18  C   UNL     1      45.528   5.909  12.474  0.00  0.00    +0.000 A 
ATOM     19  C   UNL     1      44.570   6.467  11.630  0.00  0.00    +0.000 A 
ATOM     20  N   UNL     1      44.465   7.812  11.447  0.00  0.00    +0.000 NA
BRANCH  15  21
ATOM     21  C   UNL     1      45.228  10.102  11.850  0.00  0.00    +0.000 C 
BRANCH  21  22
ATOM     22  C   UNL     1      43.940  10.475  11.116  0.00  0.00    +0.000 C 
BRANCH  22  23
ATOM     23  N   UNL     1      42.836  10.666  12.061  0.00  0.00    +0.000 NA
ATOM     24  H   UNL     1      41.962  10.755  11.543  0.00  0.00    +0.000 HD
ATOM     25  H   UNL     1      42.961  11.552  12.553  0.00  0.00    +0.000 HD
ENDBRANCH  22  23
ENDBRANCH  21  22
ENDBRANCH  15  21
ENDBRANCH  14  19
ENDBRANCH   1  14
TORSDOF 7
ENDMDL
MODEL 3
REMARK VINA RESULT:    -7.180      3.547      6.402
REMARK INTER + INTRA:         -10.398
REMARK INTER:                 -10.064
REMARK INTRA:                  -0.334
REMARK UNBOUND:                -0.699
REMARK  Name = 
REMARK  7 active torsions:
REMARK  status: ('A' for Active; 'I' for Inactive)
REMARK    1  A    between atoms: N_1  and  C_2
REMARK    2  A    between atoms: C_2  and  C_3
REMARK    3  A    between atoms: C_3  and  C_4
REMARK    4  A    between atoms: C_8  and  C_9
REMARK    5  A    between atoms: C_9  and  N_10
REMARK    6  A    between atoms: C_15  and  C_16
REMARK    7  A    between atoms: C_16  and  O_18
REMARK                            x       y       z     vdW  Elec       q    Type
REMARK                         _______ _______ _______ _____ _____    ______ ____
ROOT
ATOM      1  N   UNL     1      44.400   4.872  11.294  0.00  0.00    +0.000 N 
ATOM      2  N   UNL     1      43.870   4.090  12.267  0.00  0.00    +0.000 NA
ATOM      3  C   UNL     1      44.683   4.286  13.309  0.00  0.00    +0.000 A 
ATOM      4  C   UNL     1      45.728   5.185  13.022  0.00  0.00    +0.000 A 
ATOM      5  C   UNL     1      46.837   5.690  13.726  0.00  0.00    +0.000 A 
ATOM      6  C   UNL     1      47.714   6.576  13.080  0.00  0.00    +0.000 A 
ATOM      7  C   UNL     1      47.479   6.959  11.752  0.00  0.00    +0.000 A 
ATOM      8  C   UNL     1      46.368   6.475  11.044  0.00  0.00    +0.000 A 
ATOM      9  C   UNL     1      45.515   5.576  11.704  0.00  0.00    +0.000 A 
ENDROOT
BRANCH   6  10
ATOM     10  C   UNL     1      48.917   7.014  13.841  0.00  0.00    +0.000 C 
ATOM     11  O   UNL     1      48.856   7.419  14.990  0.00  0.00    +0.000 OA
BRANCH  10  12
ATOM     12  O   UNL     1      50.072   6.954  13.149  0.00  0.00    +0.000 OA
ATOM     13  H   UNL     1      50.022   6.518  12.280  0.00  0.00    +0.000 HD
ENDBRANCH  10  12
ENDBRANCH   6  10
BRANCH   1  14
ATOM     14  C   UNL     1      43.892   4.746   9.937  0.00  0.00    +0.000 C 
BRANCH  14  19
ATOM     15  C   UNL     1      46.114   3.223   7.411  0.00  0.00    +0.000 A 
ATOM     16  C   UNL     1      46.134   1.874   7.749  0.00  0.00    +0.000 A 
ATOM     17  C   UNL     1      45.334   1.433   8.797  0.00  0.00    +0.000 A 
ATOM     18  C   UNL     1      44.554   2.352   9.493  0.00  0.00    +0.000 A 
ATOM     19  C   UNL     1      44.609   3.697   9.131  0.00  0.00    +0.000 A 
ATOM     20  N   UNL     1      45.379   4.135   8.098  0.00  0.00    +0.000 NA
BRANCH  15  21
ATOM     21  C   UNL     1      46.911   3.724   6.234  0.00  0.00    +0.000 C 
BRANCH  21  22
ATOM     22  C   UNL     1      47.240   2.610   5.240  0.00  0.00    +0.000 C 
BRANCH  22  23
ATOM     23  N   UNL     1      48.516   1.971   5.574  0.00  0.00    +0.000 NA
ATOM     24  H   UNL     1      48.338   1.040   5.951  0.00  0.00    +0.000 HD
ATOM     25  H   UNL     1      48.971   2.494   6.324  0.00  0.00    +0.000 HD
ENDBRANCH  22  23
ENDBRANCH  21  22
ENDBRANCH  15  21
ENDBRANCH  14  19
ENDBRANCH   1  14
TORSDOF 7
ENDMDL
MODEL 4
REMARK VINA RESULT:    -6.925      3.849      6.937
REMARK INTER + INTRA:         -10.053
REMARK INTER:                  -9.482
REMARK INTRA:                  -0.571
REMARK UNBOUND:                -0.699
REMARK  Name = 
REMARK  7 active torsions:
REMARK  status: ('A' for Active; 'I' for Inactive)
REMARK    1  A    between atoms: N_1  and  C_2
REMARK    2  A    between atoms: C_2  and  C_3
REMARK    3  A    between atoms: C_3  and  C_4
REMARK    4  A    between atoms: C_8  and  C_9
REMARK    5  A    between atoms: C_9  and  N_10
REMARK    6  A    between atoms: C_15  and  C_16
REMARK    7  A    between atoms: C_16  and  O_18
REMARK                            x       y       z     vdW  Elec       q    Type
REMARK                         _______ _______ _______ _____ _____    ______ ____
ROOT
ATOM      1  N   UNL     1      45.953   6.006  11.312  0.00  0.00    +0.000 N 
ATOM      2  N   UNL     1      46.713   7.077  10.974  0.00  0.00    +0.000 NA
ATOM      3  C   UNL     1      47.547   7.213  12.009  0.00  0.00    +0.000 A 
ATOM      4  C   UNL     1      47.336   6.244  13.008  0.00  0.00    +0.000 A 
ATOM      5  C   UNL     1      47.893   5.970  14.272  0.00  0.00    +0.000 A 
ATOM      6  C   UNL     1      47.386   4.899  15.026  0.00  0.00    +0.000 A 
ATOM      7  C   UNL     1      46.346   4.109  14.520  0.00  0.00    +0.000 A 
ATOM      8  C   UNL     1      45.793   4.361  13.255  0.00  0.00    +0.000 A 
ATOM      9  C   UNL     1      46.302   5.448  12.526  0.00  0.00    +0.000 A 
ENDROOT
BRANCH   6  10
ATOM     10  C   UNL     1      47.952   4.705  16.391  0.00  0.00    +0.000 C 
ATOM     11  O   UNL     1      49.010   4.131  16.587  0.00  0.00    +0.000 OA
BRANCH  10  12
ATOM     12  O   UNL     1      47.186   5.188  17.390  0.00  0.00    +0.000 OA
ATOM     13  H   UNL     1      46.464   4.607  17.686  0.00  0.00    +0.000 HD
ENDBRANCH  10  12
ENDBRANCH   6  10
BRANCH   1  14
ATOM     14  C   UNL     1      44.783   5.694  10.507  0.00  0.00    +0.000 C 
BRANCH  14  19
ATOM     15  C   UNL     1      45.970   3.323   7.936  0.00  0.00    +0.000 A 
ATOM     16  C   UNL     1      45.447   2.099   8.338  0.00  0.00    +0.000 A 
ATOM     17  C   UNL     1      44.613   2.059   9.450  0.00  0.00    +0.000 A 
ATOM     18  C   UNL     1      44.344   3.235  10.143  0.00  0.00    +0.000 A 
ATOM     19  C   UNL     1      44.932   4.423   9.714  0.00  0.00    +0.000 A 
ATOM     20  N   UNL     1      45.739   4.473   8.618  0.00  0.00    +0.000 NA
BRANCH  15  21
ATOM     21  C   UNL     1      46.818   3.416   6.693  0.00  0.00    +0.000 C 
BRANCH  21  22
ATOM     22  C   UNL     1      48.066   2.537   6.776  0.00  0.00    +0.000 C 
BRANCH  22  23
ATOM     23  N   UNL     1      48.345   1.902   5.484  0.00  0.00    +0.000 NA
ATOM     24  H   UNL     1      49.074   1.199   5.605  0.00  0.00    +0.000 HD
ATOM     25  H   UNL     1      48.729   2.596   4.842  0.00  0.00    +0.000 HD
ENDBRANCH  22  23
ENDBRANCH  21  22
ENDBRANCH  15  21
ENDBRANCH  14  19
ENDBRANCH   1  14
TORSDOF 7
ENDMDL
MODEL 5
REMARK VINA RESULT:    -6.495      3.832      5.799
REMARK INTER + INTRA:          -9.473
REMARK INTER:                  -8.693
REMARK INTRA:                  -0.780
REMARK UNBOUND:                -0.699
REMARK  Name = 
REMARK  7 active torsions:
REMARK  status: ('A' for Active; 'I' for Inactive)
REMARK    1  A    between atoms: N_1  and  C_2
REMARK    2  A    between atoms: C_2  and  C_3
REMARK    3  A    between atoms: C_3  and  C_4
REMARK    4  A    between atoms: C_8  and  C_9
REMARK    5  A    between atoms: C_9  and  N_10
REMARK    6  A    between atoms: C_15  and  C_16
REMARK    7  A    between atoms: C_16  and  O_18
REMARK                            x       y       z     vdW  Elec       q    Type
REMARK                         _______ _______ _______ _____ _____    ______ ____
ROOT
ATOM      1  N   UNL     1      47.390   6.855  13.732  0.00  0.00    +0.000 N 
ATOM      2  N   UNL     1      46.799   8.020  13.369  0.00  0.00    +0.000 NA
ATOM      3  C   UNL     1      45.672   7.631  12.768  0.00  0.00    +0.000 A 
ATOM      4  C   UNL     1      45.527   6.230  12.740  0.00  0.00    +0.000 A 
ATOM      5  C   UNL     1      44.579   5.330  12.215  0.00  0.00    +0.000 A 
ATOM      6  C   UNL     1      44.793   3.950  12.356  0.00  0.00    +0.000 A 
ATOM      7  C   UNL     1      45.931   3.476  13.022  0.00  0.00    +0.000 A 
ATOM      8  C   UNL     1      46.875   4.362  13.565  0.00  0.00    +0.000 A 
ATOM      9  C   UNL     1      46.651   5.738  13.395  0.00  0.00    +0.000 A 
ENDROOT
BRANCH   6  10
ATOM     10  C   UNL     1      43.806   3.042  11.708  0.00  0.00    +0.000 C 
ATOM     11  O   UNL     1      43.357   3.249  10.593  0.00  0.00    +0.000 OA
BRANCH  10  12
ATOM     12  O   UNL     1      43.427   1.993  12.465  0.00  0.00    +0.000 OA
ATOM     13  H   UNL     1      43.968   1.189  12.373  0.00  0.00    +0.000 HD
ENDBRANCH  10  12
ENDBRANCH   6  10
BRANCH   1  14
ATOM     14  C   UNL     1      48.756   6.885  14.231  0.00  0.00    +0.000 C 
BRANCH  14  19
ATOM     15  C   UNL     1      49.088   5.139  17.468  0.00  0.00    +0.000 A 
ATOM     16  C   UNL     1      49.252   6.167  18.391  0.00  0.00    +0.000 A 
ATOM     17  C   UNL     1      49.177   7.482  17.949  0.00  0.00    +0.000 A 
ATOM     18  C   UNL     1      48.965   7.737  16.597  0.00  0.00    +0.000 A 
ATOM     19  C   UNL     1      48.850   6.663  15.717  0.00  0.00    +0.000 A 
ATOM     20  N   UNL     1      48.908   5.372  16.143  0.00  0.00    +0.000 NA
BRANCH  15  21
ATOM     21  C   UNL     1      49.089   3.701  17.922  0.00  0.00    +0.000 C 
BRANCH  21  22
ATOM     22  C   UNL     1      48.079   2.850  17.153  0.00  0.00    +0.000 C 
BRANCH  22  23
ATOM     23  N   UNL     1      46.706   3.247  17.478  0.00  0.00    +0.000 NA
ATOM     24  H   UNL     1      46.616   3.350  18.489  0.00  0.00    +0.000 HD
ATOM     25  H   UNL     1      46.066   2.496  17.215  0.00  0.00    +0.000 HD
ENDBRANCH  22  23
ENDBRANCH  21  22
ENDBRANCH  15  21
ENDBRANCH  14  19
ENDBRANCH   1  14
TORSDOF 7
ENDMDL
MODEL 6
REMARK VINA RESULT:    -5.861      4.006      5.859
REMARK INTER + INTRA:          -8.616
REMARK INTER:                  -8.046
REMARK INTRA:                  -0.570
REMARK UNBOUND:                -0.699
REMARK  Name = 
REMARK  7 active torsions:
REMARK  status: ('A' for Active; 'I' for Inactive)
REMARK    1  A    between atoms: N_1  and  C_2
REMARK    2  A    between atoms: C_2  and  C_3
REMARK    3  A    between atoms: C_3  and  C_4
REMARK    4  A    between atoms: C_8  and  C_9
REMARK    5  A    between atoms: C_9  and  N_10
REMARK    6  A    between atoms: C_15  and  C_16
REMARK    7  A    between atoms: C_16  and  O_18
REMARK                            x       y       z     vdW  Elec       q    Type
REMARK                         _______ _______ _______ _____ _____    ______ ____
ROOT
ATOM      1  N   UNL     1      47.982   6.020  14.239  0.00  0.00    +0.000 N 
ATOM      2  N   UNL     1      47.954   4.898  15.001  0.00  0.00    +0.000 NA
ATOM      3  C   UNL     1      46.864   4.253  14.576  0.00  0.00    +0.000 A 
ATOM      4  C   UNL     1      46.190   4.943  13.549  0.00  0.00    +0.000 A 
ATOM      5  C   UNL     1      45.015   4.732  12.803  0.00  0.00    +0.000 A 
ATOM      6  C   UNL     1      44.626   5.688  11.852  0.00  0.00    +0.000 A 
ATOM      7  C   UNL     1      45.406   6.833  11.642  0.00  0.00    +0.000 A 
ATOM      8  C   UNL     1      46.589   7.048  12.367  0.00  0.00    +0.000 A 
ATOM      9  C   UNL     1      46.948   6.088  13.326  0.00  0.00    +0.000 A 
ENDROOT
BRANCH   6  10
ATOM     10  C   UNL     1      43.331   5.459  11.151  0.00  0.00    +0.000 C 
ATOM     11  O   UNL     1      42.257   5.510  11.726  0.00  0.00    +0.000 OA
BRANCH  10  12
ATOM     12  O   UNL     1      43.446   5.162   9.842  0.00  0.00    +0.000 OA
ATOM     13  H   UNL     1      42.645   4.809   9.417  0.00  0.00    +0.000 HD
ENDBRANCH  10  12
ENDBRANCH   6  10
BRANCH   1  14
ATOM     14  C   UNL     1      48.926   7.073  14.576  0.00  0.00    +0.000 C 
BRANCH  14  19
ATOM     15  C   UNL     1      48.350   7.754  18.161  0.00  0.00    +0.000 A 
ATOM     16  C   UNL     1      48.141   9.128  18.213  0.00  0.00    +0.000 A 
ATOM     17  C   UNL     1      48.113   9.849  17.025  0.00  0.00    +0.000 A 
ATOM     18  C   UNL     1      48.319   9.184  15.820  0.00  0.00    +0.000 A 
ATOM     19  C   UNL     1      48.564   7.812  15.837  0.00  0.00    +0.000 A 
ATOM     20  N   UNL     1      48.579   7.097  16.995  0.00  0.00    +0.000 NA
BRANCH  15  21
ATOM     21  C   UNL     1      48.313   6.930  19.422  0.00  0.00    +0.000 C 
BRANCH  21  22
ATOM     22  C   UNL     1      47.910   5.479  19.154  0.00  0.00    +0.000 C 
BRANCH  22  23
ATOM     23  N   UNL     1      46.532   5.401  18.661  0.00  0.00    +0.000 NA
ATOM     24  H   UNL     1      46.543   5.293  17.646  0.00  0.00    +0.000 HD
ATOM     25  H   UNL     1      46.057   6.287  18.842  0.00  0.00    +0.000 HD
ENDBRANCH  22  23
ENDBRANCH  21  22
ENDBRANCH  15  21
ENDBRANCH  14  19
ENDBRANCH   1  14
TORSDOF 7
ENDMDL
MODEL 7
REMARK VINA RESULT:    -5.745      4.063      5.458
REMARK INTER + INTRA:          -8.459
REMARK INTER:                  -7.655
REMARK INTRA:                  -0.804
REMARK UNBOUND:                -0.699
REMARK  Name = 
REMARK  7 active torsions:
REMARK  status: ('A' for Active; 'I' for Inactive)
REMARK    1  A    between atoms: N_1  and  C_2
REMARK    2  A    between atoms: C_2  and  C_3
REMARK    3  A    between atoms: C_3  and  C_4
REMARK    4  A    between atoms: C_8  and  C_9
REMARK    5  A    between atoms: C_9  and  N_10
REMARK    6  A    between atoms: C_15  and  C_16
REMARK    7  A    between atoms: C_16  and  O_18
REMARK                            x       y       z     vdW  Elec       q    Type
REMARK                         _______ _______ _______ _____ _____    ______ ____
ROOT
ATOM      1  N   UNL     1      47.489   6.375  13.600  0.00  0.00    +0.000 N 
ATOM      2  N   UNL     1      47.811   5.608  14.671  0.00  0.00    +0.000 NA
ATOM      3  C   UNL     1      47.154   4.466  14.452  0.00  0.00    +0.000 A 
ATOM      4  C   UNL     1      46.413   4.486  13.255  0.00  0.00    +0.000 A 
ATOM      5  C   UNL     1      45.547   3.591  12.596  0.00  0.00    +0.000 A 
ATOM      6  C   UNL     1      44.944   3.984  11.391  0.00  0.00    +0.000 A 
ATOM      7  C   UNL     1      45.209   5.247  10.847  0.00  0.00    +0.000 A 
ATOM      8  C   UNL     1      46.083   6.143  11.484  0.00  0.00    +0.000 A 
ATOM      9  C   UNL     1      46.660   5.736  12.698  0.00  0.00    +0.000 A 
ENDROOT
BRANCH   6  10
ATOM     10  C   UNL     1      43.971   3.035  10.781  0.00  0.00    +0.000 C 
ATOM     11  O   UNL     1      44.227   2.385   9.781  0.00  0.00    +0.000 OA
BRANCH  10  12
ATOM     12  O   UNL     1      42.777   2.976  11.404  0.00  0.00    +0.000 OA
ATOM     13  H   UNL     1      42.627   2.188  11.956  0.00  0.00    +0.000 HD
ENDBRANCH  10  12
ENDBRANCH   6  10
BRANCH   1  14
ATOM     14  C   UNL     1      47.860   7.781  13.606  0.00  0.00    +0.000 C 
BRANCH  14  19
ATOM     15  C   UNL     1      51.444   8.622  13.298  0.00  0.00    +0.000 A 
ATOM     16  C   UNL     1      51.748   8.321  11.974  0.00  0.00    +0.000 A 
ATOM     17  C   UNL     1      50.728   7.898  11.131  0.00  0.00    +0.000 A 
ATOM     18  C   UNL     1      49.437   7.763  11.635  0.00  0.00    +0.000 A 
ATOM     19  C   UNL     1      49.205   8.041  12.981  0.00  0.00    +0.000 A 
ATOM     20  N   UNL     1      50.196   8.469  13.811  0.00  0.00    +0.000 NA
BRANCH  15  21
ATOM     21  C   UNL     1      52.509   9.154  14.222  0.00  0.00    +0.000 C 
BRANCH  21  22
ATOM     22  C   UNL     1      53.229   8.038  14.979  0.00  0.00    +0.000 C 
BRANCH  22  23
ATOM     23  N   UNL     1      52.276   7.030  15.456  0.00  0.00    +0.000 NA
ATOM     24  H   UNL     1      51.339   7.275  15.135  0.00  0.00    +0.000 HD
ATOM     25  H   UNL     1      52.239   7.055  16.475  0.00  0.00    +0.000 HD
ENDBRANCH  22  23
ENDBRANCH  21  22
ENDBRANCH  15  21
ENDBRANCH  14  19
ENDBRANCH   1  14
TORSDOF 7
ENDMDL
MODEL 8
REMARK VINA RESULT:    -5.572      3.940      6.175
REMARK INTER + INTRA:          -8.226
REMARK INTER:                  -8.212
REMARK INTRA:                  -0.014
REMARK UNBOUND:                -0.699
REMARK  Name = 
REMARK  7 active torsions:
REMARK  status: ('A' for Active; 'I' for Inactive)
REMARK    1  A    between atoms: N_1  and  C_2
REMARK    2  A    between atoms: C_2  and  C_3
REMARK    3  A    between atoms: C_3  and  C_4
REMARK    4  A    between atoms: C_8  and  C_9
REMARK    5  A    between atoms: C_9  and  N_10
REMARK    6  A    between atoms: C_15  and  C_16
REMARK    7  A    between atoms: C_16  and  O_18
REMARK                            x       y       z     vdW  Elec       q    Type
REMARK                         _______ _______ _______ _____ _____    ______ ____
ROOT
ATOM      1  N   UNL     1      47.581   5.175  14.547  0.00  0.00    +0.000 N 
ATOM      2  N   UNL     1      47.703   3.847  14.794  0.00  0.00    +0.000 NA
ATOM      3  C   UNL     1      46.815   3.287  13.968  0.00  0.00    +0.000 A 
ATOM      4  C   UNL     1      46.124   4.236  13.190  0.00  0.00    +0.000 A 
ATOM      5  C   UNL     1      45.097   4.186  12.228  0.00  0.00    +0.000 A 
ATOM      6  C   UNL     1      44.621   5.384  11.671  0.00  0.00    +0.000 A 
ATOM      7  C   UNL     1      45.170   6.612  12.063  0.00  0.00    +0.000 A 
ATOM      8  C   UNL     1      46.206   6.675  13.009  0.00  0.00    +0.000 A 
ATOM      9  C   UNL     1      46.653   5.466  13.566  0.00  0.00    +0.000 A 
ENDROOT
BRANCH   6  10
ATOM     10  C   UNL     1      43.477   5.282  10.722  0.00  0.00    +0.000 C 
ATOM     11  O   UNL     1      43.350   4.352   9.944  0.00  0.00    +0.000 OA
BRANCH  10  12
ATOM     12  O   UNL     1      42.611   6.314  10.773  0.00  0.00    +0.000 OA
ATOM     13  H   UNL     1      42.350   6.602  11.665  0.00  0.00    +0.000 HD
ENDBRANCH  10  12
ENDBRANCH   6  10
BRANCH   1  14
ATOM     14  C   UNL     1      48.253   6.118  15.426  0.00  0.00    +0.000 C 
BRANCH  14  19
ATOM     15  C   UNL     1      50.179   4.129  17.871  0.00  0.00    +0.000 A 
ATOM     16  C   UNL     1      49.666   4.520  19.103  0.00  0.00    +0.000 A 
ATOM     17  C   UNL     1      48.600   5.411  19.133  0.00  0.00    +0.000 A 
ATOM     18  C   UNL     1      48.091   5.907  17.936  0.00  0.00    +0.000 A 
ATOM     19  C   UNL     1      48.676   5.508  16.736  0.00  0.00    +0.000 A 
ATOM     20  N   UNL     1      49.711   4.625  16.697  0.00  0.00    +0.000 NA
BRANCH  15  21
ATOM     21  C   UNL     1      51.286   3.108  17.798  0.00  0.00    +0.000 C 
BRANCH  21  22
ATOM     22  C   UNL     1      50.796   1.761  17.267  0.00  0.00    +0.000 C 
BRANCH  22  23
ATOM     23  N   UNL     1      51.539   0.656  17.881  0.00  0.00    +0.000 NA
ATOM     24  H   UNL     1      51.962   0.087  17.147  0.00  0.00    +0.000 HD
ATOM     25  H   UNL     1      50.888   0.042  18.371  0.00  0.00    +0.000 HD
ENDBRANCH  22  23
ENDBRANCH  21  22
ENDBRANCH  15  21
ENDBRANCH  14  19
ENDBRANCH   1  14
TORSDOF 7
ENDMDL
MODEL 9
REMARK VINA RESULT:    -5.482      3.484      5.331
REMARK INTER + INTRA:          -8.103
REMARK INTER:                  -7.837
REMARK INTRA:                  -0.266
REMARK UNBOUND:                -0.699
REMARK  Name = 
REMARK  7 active torsions:
REMARK  status: ('A' for Active; 'I' for Inactive)
REMARK    1  A    between atoms: N_1  and  C_2
REMARK    2  A    between atoms: C_2  and  C_3
REMARK    3  A    between atoms: C_3  and  C_4
REMARK    4  A    between atoms: C_8  and  C_9
REMARK    5  A    between atoms: C_9  and  N_10
REMARK    6  A    between atoms: C_15  and  C_16
REMARK    7  A    between atoms: C_16  and  O_18
REMARK                            x       y       z     vdW  Elec       q    Type
REMARK                         _______ _______ _______ _____ _____    ______ ____
ROOT
ATOM      1  N   UNL     1      47.726   5.999  14.267  0.00  0.00    +0.000 N 
ATOM      2  N   UNL     1      47.917   4.980  15.142  0.00  0.00    +0.000 NA
ATOM      3  C   UNL     1      47.166   3.992  14.648  0.00  0.00    +0.000 A 
ATOM      4  C   UNL     1      46.495   4.358  13.466  0.00  0.00    +0.000 A 
ATOM      5  C   UNL     1      45.584   3.730  12.594  0.00  0.00    +0.000 A 
ATOM      6  C   UNL     1      45.085   4.445  11.494  0.00  0.00    +0.000 A 
ATOM      7  C   UNL     1      45.497   5.764  11.262  0.00  0.00    +0.000 A 
ATOM      8  C   UNL     1      46.418   6.396  12.113  0.00  0.00    +0.000 A 
ATOM      9  C   UNL     1      46.889   5.669  13.218  0.00  0.00    +0.000 A 
ENDROOT
BRANCH   6  10
ATOM     10  C   UNL     1      44.060   3.765  10.653  0.00  0.00    +0.000 C 
ATOM     11  O   UNL     1      43.286   4.378   9.938  0.00  0.00    +0.000 OA
BRANCH  10  12
ATOM     12  O   UNL     1      44.039   2.422  10.771  0.00  0.00    +0.000 OA
ATOM     13  H   UNL     1      43.157   2.021  10.864  0.00  0.00    +0.000 HD
ENDBRANCH  10  12
ENDBRANCH   6  10
BRANCH   1  14
ATOM     14  C   UNL     1      48.228   7.320  14.606  0.00  0.00    +0.000 C 
BRANCH  14  19
ATOM     15  C   UNL     1      47.772  10.059  12.171  0.00  0.00    +0.000 A 
ATOM     16  C   UNL     1      48.903   9.986  11.364  0.00  0.00    +0.000 A 
ATOM     17  C   UNL     1      49.813   8.956  11.577  0.00  0.00    +0.000 A 
ATOM     18  C   UNL     1      49.583   8.044  12.603  0.00  0.00    +0.000 A 
ATOM     19  C   UNL     1      48.451   8.197  13.402  0.00  0.00    +0.000 A 
ATOM     20  N   UNL     1      47.548   9.193  13.192  0.00  0.00    +0.000 NA
BRANCH  15  21
ATOM     21  C   UNL     1      46.727  11.117  11.921  0.00  0.00    +0.000 C 
BRANCH  21  22
ATOM     22  C   UNL     1      45.395  10.520  11.469  0.00  0.00    +0.000 C 
BRANCH  22  23
ATOM     23  N   UNL     1      44.675   9.931  12.603  0.00  0.00    +0.000 NA
ATOM     24  H   UNL     1      45.313   9.831  13.392  0.00  0.00    +0.000 HD
ATOM     25  H   UNL     1      44.378   8.985  12.360  0.00  0.00    +0.000 HD
ENDBRANCH  22  23
ENDBRANCH  21  22
ENDBRANCH  15  21
ENDBRANCH  14  19
ENDBRANCH   1  14
TORSDOF 7
ENDMDL
