MODEL 1
REMARK VINA RESULT:    -7.039      0.000      0.000
REMARK INTER + INTRA:         -11.197
REMARK INTER:                  -9.919
REMARK INTRA:                  -1.278
REMARK UNBOUND:                -1.278
REMARK  Name = 
REMARK  7 active torsions:
REMARK  status: ('A' for Active; 'I' for Inactive)
REMARK    1  A    between atoms: C_2  and  C_3
REMARK    2  A    between atoms: C_7  and  C_8
REMARK    3  A    between atoms: N_10  and  C_11
REMARK    4  A    between atoms: C_11  and  C_12
REMARK    5  A    between atoms: C_15  and  C_16
REMARK    6  A    between atoms: C_16  and  N_17
REMARK    7  A    between atoms: C_18  and  C_20
REMARK                            x       y       z     vdW  Elec       q    Type
REMARK                         _______ _______ _______ _____ _____    ______ ____
ROOT
ATOM      1  C   UNL     1      50.329   7.363  15.163  0.00  0.00    +0.000 A 
ATOM      2  C   UNL     1      49.032   6.840  15.274  0.00  0.00    +0.000 A 
ATOM      3  C   UNL     1      48.110   6.972  14.224  0.00  0.00    +0.000 A 
ATOM      4  C   UNL     1      48.470   7.609  13.028  0.00  0.00    +0.000 A 
ATOM      5  C   UNL     1      49.758   8.153  12.928  0.00  0.00    +0.000 A 
ATOM      6  C   UNL     1      50.680   8.017  13.974  0.00  0.00    +0.000 A 
ENDROOT
BRANCH   1   7
ATOM      7  C   UNL     1      51.310   7.240  16.298  0.00  0.00    +0.000 C 
BRANCH   7  10
ATOM      8  C   UNL     1      50.898   5.454  17.936  0.00  0.00    +0.000 C 
ATOM      9  O   UNL     1      50.252   6.205  18.664  0.00  0.00    +0.000 OA
ATOM     10  N   UNL     1      51.477   5.877  16.762  0.00  0.00    +0.000 N 
ATOM     11  H   UNL     1      52.109   5.272  16.257  0.00  0.00    +0.000 HD
BRANCH   8  16
ATOM     12  C   UNL     1      50.417   3.078  17.222  0.00  0.00    +0.000 C 
ATOM     13  C   UNL     1      51.140   1.738  17.360  0.00  0.00    +0.000 C 
ATOM     14  C   UNL     1      52.505   2.051  17.972  0.00  0.00    +0.000 C 
ATOM     15  C   UNL     1      52.551   3.558  18.185  0.00  0.00    +0.000 C 
ATOM     16  C   UNL     1      51.091   3.986  18.269  0.00  0.00    +0.000 C 
BRANCH  12  18
ATOM     17  N   UNL     1      47.701   2.836  17.771  0.00  0.00    +0.000 NA
ATOM     18  C   UNL     1      48.932   2.946  17.522  0.00  0.00    +0.000 C 
ENDBRANCH  12  18
ENDBRANCH   8  16
ENDBRANCH   7  10
ENDBRANCH   1   7
BRANCH   4  19
ATOM     19  C   UNL     1      47.508   7.709  11.864  0.00  0.00    +0.000 C 
BRANCH  19  20
ATOM     20  N   UNL     1      46.792   6.478  11.641  0.00  0.00    +0.000 N 
ATOM     21  C   UNL     1      45.419   6.417  11.655  0.00  0.00    +0.000 C 
ATOM     22  O   UNL     1      44.716   7.410  11.827  0.00  0.00    +0.000 OA
ATOM     23  H   UNL     1      47.315   5.623  11.813  0.00  0.00    +0.000 HD
BRANCH  21  24
ATOM     24  C   UNL     1      44.837   5.093  11.396  0.00  0.00    +0.000 A 
ATOM     25  C   UNL     1      44.088   4.452  12.373  0.00  0.00    +0.000 A 
ATOM     26  S   UNL     1      43.451   2.949  11.866  0.00  0.00    +0.000 S 
ATOM     27  C   UNL     1      44.193   3.082  10.342  0.00  0.00    +0.000 A 
ATOM     28  N   UNL     1      44.075   2.101   9.409  0.00  0.00    +0.000 NA
ATOM     29  C   UNL     1      44.712   2.327   8.309  0.00  0.00    +0.000 A 
ATOM     30  N   UNL     1      45.449   3.450   8.050  0.00  0.00    +0.000 N 
ATOM     31  C   UNL     1      45.572   4.485   8.949  0.00  0.00    +0.000 A 
ATOM     32  O   UNL     1      46.191   5.502   8.661  0.00  0.00    +0.000 OA
ATOM     33  C   UNL     1      44.895   4.270  10.213  0.00  0.00    +0.000 A 
ATOM     34  H   UNL     1      45.910   3.583   7.162  0.00  0.00    +0.000 HD
ENDBRANCH  21  24
ENDBRANCH  19  20
ENDBRANCH   4  19
TORSDOF 7
ENDMDL
MODEL 2
REMARK VINA RESULT:    -6.741      1.389      2.172
REMARK INTER + INTRA:         -10.778
REMARK INTER:                  -9.578
REMARK INTRA:                  -1.200
REMARK UNBOUND:                -1.278
REMARK  Name = 
REMARK  7 active torsions:
REMARK  status: ('A' for Active; 'I' for Inactive)
REMARK    1  A    between atoms: C_2  and  C_3
REMARK    2  A    between atoms: C_7  and  C_8
REMARK    3  A    between atoms: N_10  and  C_11
REMARK    4  A    between atoms: C_11  and  C_12
REMARK    5  A    between atoms: C_15  and  C_16
REMARK    6  A    between atoms: C_16  and  N_17
REMARK    7  A    between atoms: C_18  and  C_20
REMARK                            x       y       z     vdW  Elec       q    Type
REMARK                         _______ _______ _______ _____ _____    ______ ____
ROOT
ATOM      1  C   UNL     1      50.432   7.440  15.438  0.00  0.00    +0.000 A 
ATOM      2  C   UNL     1      51.037   7.872  14.248  0.00  0.00    +0.000 A 
ATOM      3  C   UNL     1      50.268   8.145  13.107  0.00  0.00    +0.000 A 
ATOM      4  C   UNL     1      48.872   8.015  13.133  0.00  0.00    +0.000 A 
ATOM      5  C   UNL     1      48.271   7.560  14.314  0.00  0.00    +0.000 A 
ATOM      6  C   UNL     1      49.038   7.292  15.456  0.00  0.00    +0.000 A 
ENDROOT
BRANCH   1   7
ATOM      7  C   UNL     1      51.259   7.127  16.655  0.00  0.00    +0.000 C 
BRANCH   7  10
ATOM      8  C   UNL     1      50.471   5.197  17.959  0.00  0.00    +0.000 C 
ATOM      9  O   UNL     1      49.718   5.899  18.631  0.00  0.00    +0.000 OA
ATOM     10  N   UNL     1      51.286   5.713  16.979  0.00  0.00    +0.000 N 
ATOM     11  H   UNL     1      51.986   5.134  16.539  0.00  0.00    +0.000 HD
BRANCH   8  16
ATOM     12  C   UNL     1      49.796   2.947  17.027  0.00  0.00    +0.000 C 
ATOM     13  C   UNL     1      50.409   1.547  17.028  0.00  0.00    +0.000 C 
ATOM     14  C   UNL     1      51.797   1.689  17.651  0.00  0.00    +0.000 C 
ATOM     15  C   UNL     1      51.966   3.160  18.007  0.00  0.00    +0.000 C 
ATOM     16  C   UNL     1      50.545   3.694  18.149  0.00  0.00    +0.000 C 
BRANCH  12  18
ATOM     17  N   UNL     1      47.072   2.874  17.583  0.00  0.00    +0.000 NA
ATOM     18  C   UNL     1      48.307   2.907  17.331  0.00  0.00    +0.000 C 
ENDBRANCH  12  18
ENDBRANCH   8  16
ENDBRANCH   7  10
ENDBRANCH   1   7
BRANCH   4  19
ATOM     19  C   UNL     1      48.022   8.362  11.930  0.00  0.00    +0.000 C 
BRANCH  19  20
ATOM     20  N   UNL     1      47.379   7.203  11.363  0.00  0.00    +0.000 N 
ATOM     21  C   UNL     1      46.015   7.038  11.388  0.00  0.00    +0.000 C 
ATOM     22  O   UNL     1      45.257   7.880  11.864  0.00  0.00    +0.000 OA
ATOM     23  H   UNL     1      47.963   6.377  11.261  0.00  0.00    +0.000 HD
BRANCH  21  24
ATOM     24  C   UNL     1      45.509   5.811  10.757  0.00  0.00    +0.000 A 
ATOM     25  C   UNL     1      45.740   5.568   9.410  0.00  0.00    +0.000 A 
ATOM     26  S   UNL     1      45.120   4.068   8.874  0.00  0.00    +0.000 S 
ATOM     27  C   UNL     1      44.483   3.715  10.410  0.00  0.00    +0.000 A 
ATOM     28  N   UNL     1      43.788   2.570  10.642  0.00  0.00    +0.000 NA
ATOM     29  C   UNL     1      43.343   2.447  11.848  0.00  0.00    +0.000 A 
ATOM     30  N   UNL     1      43.537   3.360  12.848  0.00  0.00    +0.000 N 
ATOM     31  C   UNL     1      44.260   4.517  12.672  0.00  0.00    +0.000 A 
ATOM     32  O   UNL     1      44.464   5.283  13.606  0.00  0.00    +0.000 OA
ATOM     33  C   UNL     1      44.762   4.716  11.326  0.00  0.00    +0.000 A 
ATOM     34  H   UNL     1      43.182   3.202  13.780  0.00  0.00    +0.000 HD
ENDBRANCH  21  24
ENDBRANCH  19  20
ENDBRANCH   4  19
TORSDOF 7
ENDMDL
MODEL 3
REMARK VINA RESULT:    -6.490      3.023      9.401
REMARK INTER + INTRA:         -10.424
REMARK INTER:                  -9.380
REMARK INTRA:                  -1.044
REMARK UNBOUND:                -1.278
REMARK  Name = 
REMARK  7 active torsions:
REMARK  status: ('A' for Active; 'I' for Inactive)
REMARK    1  A    between atoms: C_2  and  C_3
REMARK    2  A    between atoms: C_7  and  C_8
REMARK    3  A    between atoms: N_10  and  C_11
REMARK    4  A    between atoms: C_11  and  C_12
REMARK    5  A    between atoms: C_15  and  C_16
REMARK    6  A    between atoms: C_16  and  N_17
REMARK    7  A    between atoms: C_18  and  C_20
REMARK                            x       y       z     vdW  Elec       q    Type
REMARK                         _______ _______ _______ _____ _____    ______ ____
ROOT
ATOM      1  C   UNL     1      45.234   4.771  11.772  0.00  0.00    +0.000 A 
ATOM      2  C   UNL     1      45.856   5.928  11.280  0.00  0.00    +0.000 A 
ATOM      3  C   UNL     1      46.875   6.562  12.008  0.00  0.00    +0.000 A 
ATOM      4  C   UNL     1      47.313   6.043  13.233  0.00  0.00    +0.000 A 
ATOM      5  C   UNL     1      46.674   4.901  13.736  0.00  0.00    +0.000 A 
ATOM      6  C   UNL     1      45.660   4.264  13.007  0.00  0.00    +0.000 A 
ENDROOT
BRANCH   1   7
ATOM      7  C   UNL     1      44.127   4.103  11.001  0.00  0.00    +0.000 C 
BRANCH   7  10
ATOM      8  C   UNL     1      44.742   3.390   8.730  0.00  0.00    +0.000 C 
ATOM      9  O   UNL     1      44.433   4.481   8.253  0.00  0.00    +0.000 OA
ATOM     10  N   UNL     1      44.605   3.102  10.068  0.00  0.00    +0.000 N 
ATOM     11  H   UNL     1      44.741   2.159  10.404  0.00  0.00    +0.000 HD
BRANCH   8  16
ATOM     12  C   UNL     1      46.775   2.580   7.468  0.00  0.00    +0.000 C 
ATOM     13  C   UNL     1      47.367   1.211   7.133  0.00  0.00    +0.000 C 
ATOM     14  C   UNL     1      46.525   0.184   7.890  0.00  0.00    +0.000 C 
ATOM     15  C   UNL     1      45.458   0.968   8.643  0.00  0.00    +0.000 C 
ATOM     16  C   UNL     1      45.320   2.278   7.875  0.00  0.00    +0.000 C 
BRANCH  12  18
ATOM     17  N   UNL     1      46.818   4.280   5.267  0.00  0.00    +0.000 NA
ATOM     18  C   UNL     1      46.799   3.509   6.265  0.00  0.00    +0.000 C 
ENDBRANCH  12  18
ENDBRANCH   8  16
ENDBRANCH   7  10
ENDBRANCH   1   7
BRANCH   4  19
ATOM     19  C   UNL     1      48.450   6.680  14.003  0.00  0.00    +0.000 C 
BRANCH  19  20
ATOM     20  N   UNL     1      48.269   6.578  15.429  0.00  0.00    +0.000 N 
ATOM     21  C   UNL     1      48.881   7.439  16.307  0.00  0.00    +0.000 C 
ATOM     22  O   UNL     1      49.593   8.369  15.933  0.00  0.00    +0.000 OA
ATOM     23  H   UNL     1      47.968   5.670  15.774  0.00  0.00    +0.000 HD
BRANCH  21  24
ATOM     24  C   UNL     1      48.586   7.216  17.729  0.00  0.00    +0.000 A 
ATOM     25  C   UNL     1      48.115   8.255  18.520  0.00  0.00    +0.000 A 
ATOM     26  S   UNL     1      47.781   7.787  20.130  0.00  0.00    +0.000 S 
ATOM     27  C   UNL     1      48.300   6.195  19.837  0.00  0.00    +0.000 A 
ATOM     28  N   UNL     1      48.304   5.259  20.823  0.00  0.00    +0.000 NA
ATOM     29  C   UNL     1      48.746   4.101  20.462  0.00  0.00    +0.000 A 
ATOM     30  N   UNL     1      49.178   3.788  19.202  0.00  0.00    +0.000 N 
ATOM     31  C   UNL     1      49.163   4.690  18.164  0.00  0.00    +0.000 A 
ATOM     32  O   UNL     1      49.501   4.359  17.034  0.00  0.00    +0.000 OA
ATOM     33  C   UNL     1      48.698   6.016  18.522  0.00  0.00    +0.000 A 
ATOM     34  H   UNL     1      49.496   2.858  18.972  0.00  0.00    +0.000 HD
ENDBRANCH  21  24
ENDBRANCH  19  20
ENDBRANCH   4  19
TORSDOF 7
ENDMDL
MODEL 4
REMARK VINA RESULT:    -6.445      4.212      5.565
REMARK INTER + INTRA:         -10.360
REMARK INTER:                  -9.530
REMARK INTRA:                  -0.830
REMARK UNBOUND:                -1.278
REMARK  Name = 
REMARK  7 active torsions:
REMARK  status: ('A' for Active; 'I' for Inactive)
REMARK    1  A    between atoms: C_2  and  C_3
REMARK    2  A    between atoms: C_7  and  C_8
REMARK    3  A    between atoms: N_10  and  C_11
REMARK    4  A    between atoms: C_11  and  C_12
REMARK    5  A    between atoms: C_15  and  C_16
REMARK    6  A    between atoms: C_16  and  N_17
REMARK    7  A    between atoms: C_18  and  C_20
REMARK                            x       y       z     vdW  Elec       q    Type
REMARK                         _______ _______ _______ _____ _____    ______ ____
ROOT
ATOM      1  C   UNL     1      50.529   8.596  11.825  0.00  0.00    +0.000 A 
ATOM      2  C   UNL     1      50.102   7.410  12.441  0.00  0.00    +0.000 A 
ATOM      3  C   UNL     1      48.764   7.240  12.827  0.00  0.00    +0.000 A 
ATOM      4  C   UNL     1      47.814   8.242  12.586  0.00  0.00    +0.000 A 
ATOM      5  C   UNL     1      48.246   9.436  11.992  0.00  0.00    +0.000 A 
ATOM      6  C   UNL     1      49.581   9.604  11.602  0.00  0.00    +0.000 A 
ENDROOT
BRANCH   1   7
ATOM      7  C   UNL     1      51.969   8.786  11.430  0.00  0.00    +0.000 C 
BRANCH   7  10
ATOM      8  C   UNL     1      52.827   6.956  10.030  0.00  0.00    +0.000 C 
ATOM      9  O   UNL     1      52.327   7.435   9.014  0.00  0.00    +0.000 OA
ATOM     10  N   UNL     1      52.686   7.536  11.269  0.00  0.00    +0.000 N 
ATOM     11  H   UNL     1      52.994   7.050  12.099  0.00  0.00    +0.000 HD
BRANCH   8  16
ATOM     12  C   UNL     1      54.516   5.617   8.711  0.00  0.00    +0.000 C 
ATOM     13  C   UNL     1      55.648   4.654   9.064  0.00  0.00    +0.000 C 
ATOM     14  C   UNL     1      55.775   4.683  10.588  0.00  0.00    +0.000 C 
ATOM     15  C   UNL     1      54.714   5.652  11.093  0.00  0.00    +0.000 C 
ATOM     16  C   UNL     1      53.661   5.689   9.991  0.00  0.00    +0.000 C 
BRANCH  12  18
ATOM     17  N   UNL     1      52.986   4.664   6.592  0.00  0.00    +0.000 NA
ATOM     18  C   UNL     1      53.680   5.096   7.553  0.00  0.00    +0.000 C 
ENDBRANCH  12  18
ENDBRANCH   8  16
ENDBRANCH   7  10
ENDBRANCH   1   7
BRANCH   4  19
ATOM     19  C   UNL     1      46.355   8.053  12.942  0.00  0.00    +0.000 C 
BRANCH  19  20
ATOM     20  N   UNL     1      45.875   6.738  12.597  0.00  0.00    +0.000 N 
ATOM     21  C   UNL     1      44.889   6.543  11.660  0.00  0.00    +0.000 C 
ATOM     22  O   UNL     1      44.378   7.470  11.035  0.00  0.00    +0.000 OA
ATOM     23  H   UNL     1      46.032   6.012  13.290  0.00  0.00    +0.000 HD
BRANCH  21  24
ATOM     24  C   UNL     1      44.518   5.144  11.406  0.00  0.00    +0.000 A 
ATOM     25  C   UNL     1      43.749   4.444  12.325  0.00  0.00    +0.000 A 
ATOM     26  S   UNL     1      43.377   2.851  11.829  0.00  0.00    +0.000 S 
ATOM     27  C   UNL     1      44.271   3.027  10.393  0.00  0.00    +0.000 A 
ATOM     28  N   UNL     1      44.392   2.005   9.505  0.00  0.00    +0.000 NA
ATOM     29  C   UNL     1      45.119   2.274   8.473  0.00  0.00    +0.000 A 
ATOM     30  N   UNL     1      45.730   3.476   8.241  0.00  0.00    +0.000 N 
ATOM     31  C   UNL     1      45.610   4.550   9.092  0.00  0.00    +0.000 A 
ATOM     32  O   UNL     1      46.121   5.631   8.822  0.00  0.00    +0.000 OA
ATOM     33  C   UNL     1      44.823   4.293  10.282  0.00  0.00    +0.000 A 
ATOM     34  H   UNL     1      46.272   3.637   7.404  0.00  0.00    +0.000 HD
ENDBRANCH  21  24
ENDBRANCH  19  20
ENDBRANCH   4  19
TORSDOF 7
ENDMDL
MODEL 5
REMARK VINA RESULT:    -6.387      3.183      8.473
REMARK INTER + INTRA:         -10.279
REMARK INTER:                  -9.057
REMARK INTRA:                  -1.223
REMARK UNBOUND:                -1.278
REMARK  Name = 
REMARK  7 active torsions:
REMARK  status: ('A' for Active; 'I' for Inactive)
REMARK    1  A    between atoms: C_2  and  C_3
REMARK    2  A    between atoms: C_7  and  C_8
REMARK    3  A    between atoms: N_10  and  C_11
REMARK    4  A    between atoms: C_11  and  C_12
REMARK    5  A    between atoms: C_15  and  C_16
REMARK    6  A    between atoms: C_16  and  N_17
REMARK    7  A    between atoms: C_18  and  C_20
REMARK                            x       y       z     vdW  Elec       q    Type
REMARK                         _______ _______ _______ _____ _____    ______ ____
ROOT
ATOM      1  C   UNL     1      48.497   8.161  13.505  0.00  0.00    +0.000 A 
ATOM      2  C   UNL     1      47.938   8.925  14.541  0.00  0.00    +0.000 A 
ATOM      3  C   UNL     1      48.522   8.945  15.817  0.00  0.00    +0.000 A 
ATOM      4  C   UNL     1      49.692   8.220  16.083  0.00  0.00    +0.000 A 
ATOM      5  C   UNL     1      50.236   7.438  15.055  0.00  0.00    +0.000 A 
ATOM      6  C   UNL     1      49.656   7.422  13.779  0.00  0.00    +0.000 A 
ENDROOT
BRANCH   1   7
ATOM      7  C   UNL     1      47.858   8.124  12.143  0.00  0.00    +0.000 C 
BRANCH   7  10
ATOM      8  C   UNL     1      45.791   6.795  12.178  0.00  0.00    +0.000 C 
ATOM      9  O   UNL     1      45.156   7.709  12.700  0.00  0.00    +0.000 OA
ATOM     10  N   UNL     1      47.131   6.896  11.887  0.00  0.00    +0.000 N 
ATOM     11  H   UNL     1      47.651   6.086  11.582  0.00  0.00    +0.000 HD
BRANCH   8  16
ATOM     12  C   UNL     1      44.831   4.620  13.036  0.00  0.00    +0.000 C 
ATOM     13  C   UNL     1      43.728   3.668  12.577  0.00  0.00    +0.000 C 
ATOM     14  C   UNL     1      43.037   4.351  11.397  0.00  0.00    +0.000 C 
ATOM     15  C   UNL     1      43.751   5.680  11.186  0.00  0.00    +0.000 C 
ATOM     16  C   UNL     1      45.135   5.482  11.795  0.00  0.00    +0.000 C 
BRANCH  12  18
ATOM     17  N   UNL     1      47.114   3.238  13.821  0.00  0.00    +0.000 NA
ATOM     18  C   UNL     1      46.079   3.865  13.466  0.00  0.00    +0.000 C 
ENDBRANCH  12  18
ENDBRANCH   8  16
ENDBRANCH   7  10
ENDBRANCH   1   7
BRANCH   4  19
ATOM     19  C   UNL     1      50.367   8.276  17.436  0.00  0.00    +0.000 C 
BRANCH  19  20
ATOM     20  N   UNL     1      51.163   7.103  17.699  0.00  0.00    +0.000 N 
ATOM     21  C   UNL     1      50.715   6.080  18.500  0.00  0.00    +0.000 C 
ATOM     22  O   UNL     1      49.599   6.085  19.016  0.00  0.00    +0.000 OA
ATOM     23  H   UNL     1      52.165   7.207  17.564  0.00  0.00    +0.000 HD
BRANCH  21  24
ATOM     24  C   UNL     1      51.635   4.946  18.659  0.00  0.00    +0.000 A 
ATOM     25  C   UNL     1      52.806   5.088  19.390  0.00  0.00    +0.000 A 
ATOM     26  S   UNL     1      53.716   3.646  19.506  0.00  0.00    +0.000 S 
ATOM     27  C   UNL     1      52.601   2.796  18.545  0.00  0.00    +0.000 A 
ATOM     28  N   UNL     1      52.795   1.489  18.223  0.00  0.00    +0.000 NA
ATOM     29  C   UNL     1      51.880   0.981  17.468  0.00  0.00    +0.000 A 
ATOM     30  N   UNL     1      50.781   1.656  17.011  0.00  0.00    +0.000 N 
ATOM     31  C   UNL     1      50.524   2.968  17.335  0.00  0.00    +0.000 A 
ATOM     32  O   UNL     1      49.499   3.523  16.957  0.00  0.00    +0.000 OA
ATOM     33  C   UNL     1      51.535   3.595  18.163  0.00  0.00    +0.000 A 
ATOM     34  H   UNL     1      50.086   1.200  16.437  0.00  0.00    +0.000 HD
ENDBRANCH  21  24
ENDBRANCH  19  20
ENDBRANCH   4  19
TORSDOF 7
ENDMDL
MODEL 6
REMARK VINA RESULT:    -6.213      5.321      8.485
REMARK INTER + INTRA:         -10.033
REMARK INTER:                  -8.848
REMARK INTRA:                  -1.186
REMARK UNBOUND:                -1.278
REMARK  Name = 
REMARK  7 active torsions:
REMARK  status: ('A' for Active; 'I' for Inactive)
REMARK    1  A    between atoms: C_2  and  C_3
REMARK    2  A    between atoms: C_7  and  C_8
REMARK    3  A    between atoms: N_10  and  C_11
REMARK    4  A    between atoms: C_11  and  C_12
REMARK    5  A    between atoms: C_15  and  C_16
REMARK    6  A    between atoms: C_16  and  N_17
REMARK    7  A    between atoms: C_18  and  C_20
REMARK                            x       y       z     vdW  Elec       q    Type
REMARK                         _______ _______ _______ _____ _____    ______ ____
ROOT
ATOM      1  C   UNL     1      47.356   8.580  12.368  0.00  0.00    +0.000 A 
ATOM      2  C   UNL     1      48.048   9.795  12.484  0.00  0.00    +0.000 A 
ATOM      3  C   UNL     1      49.433   9.858  12.268  0.00  0.00    +0.000 A 
ATOM      4  C   UNL     1      50.156   8.713  11.908  0.00  0.00    +0.000 A 
ATOM      5  C   UNL     1      49.468   7.495  11.816  0.00  0.00    +0.000 A 
ATOM      6  C   UNL     1      48.084   7.433  12.027  0.00  0.00    +0.000 A 
ENDROOT
BRANCH   1   7
ATOM      7  C   UNL     1      45.873   8.509  12.621  0.00  0.00    +0.000 C 
BRANCH   7  10
ATOM      8  C   UNL     1      44.236   6.992  11.592  0.00  0.00    +0.000 C 
ATOM      9  O   UNL     1      43.658   7.920  11.029  0.00  0.00    +0.000 OA
ATOM     10  N   UNL     1      45.321   7.185  12.414  0.00  0.00    +0.000 N 
ATOM     11  H   UNL     1      45.689   6.421  12.963  0.00  0.00    +0.000 HD
BRANCH   8  16
ATOM     12  C   UNL     1      45.006   4.639  11.086  0.00  0.00    +0.000 C 
ATOM     13  C   UNL     1      44.534   3.238  11.475  0.00  0.00    +0.000 C 
ATOM     14  C   UNL     1      43.419   3.433  12.503  0.00  0.00    +0.000 C 
ATOM     15  C   UNL     1      43.257   4.936  12.688  0.00  0.00    +0.000 C 
ATOM     16  C   UNL     1      43.804   5.550  11.404  0.00  0.00    +0.000 C 
BRANCH  12  18
ATOM     17  N   UNL     1      45.631   4.793   8.380  0.00  0.00    +0.000 NA
ATOM     18  C   UNL     1      45.347   4.723   9.607  0.00  0.00    +0.000 C 
ENDBRANCH  12  18
ENDBRANCH   8  16
ENDBRANCH   7  10
ENDBRANCH   1   7
BRANCH   4  19
ATOM     19  C   UNL     1      51.640   8.773  11.613  0.00  0.00    +0.000 C 
BRANCH  19  20
ATOM     20  N   UNL     1      51.949   8.335  10.275  0.00  0.00    +0.000 N 
ATOM     21  C   UNL     1      53.106   8.706   9.634  0.00  0.00    +0.000 C 
ATOM     22  O   UNL     1      53.963   9.407  10.169  0.00  0.00    +0.000 OA
ATOM     23  H   UNL     1      51.157   8.042   9.710  0.00  0.00    +0.000 HD
BRANCH  21  24
ATOM     24  C   UNL     1      53.286   8.167   8.279  0.00  0.00    +0.000 A 
ATOM     25  C   UNL     1      53.260   9.011   7.177  0.00  0.00    +0.000 A 
ATOM     26  S   UNL     1      53.540   8.205   5.696  0.00  0.00    +0.000 S 
ATOM     27  C   UNL     1      53.656   6.696   6.470  0.00  0.00    +0.000 A 
ATOM     28  N   UNL     1      53.864   5.553   5.765  0.00  0.00    +0.000 NA
ATOM     29  C   UNL     1      53.906   4.480   6.483  0.00  0.00    +0.000 A 
ATOM     30  N   UNL     1      53.769   4.446   7.843  0.00  0.00    +0.000 N 
ATOM     31  C   UNL     1      53.590   5.578   8.604  0.00  0.00    +0.000 A 
ATOM     32  O   UNL     1      53.531   5.515   9.826  0.00  0.00    +0.000 OA
ATOM     33  C   UNL     1      53.510   6.809   7.844  0.00  0.00    +0.000 A 
ATOM     34  H   UNL     1      53.830   3.577   8.355  0.00  0.00    +0.000 HD
ENDBRANCH  21  24
ENDBRANCH  19  20
ENDBRANCH   4  19
TORSDOF 7
ENDMDL
MODEL 7
REMARK VINA RESULT:    -5.995      3.048      9.467
REMARK INTER + INTRA:          -9.727
REMARK INTER:                  -9.133
REMARK INTRA:                  -0.593
REMARK UNBOUND:                -1.278
REMARK  Name = 
REMARK  7 active torsions:
REMARK  status: ('A' for Active; 'I' for Inactive)
REMARK    1  A    between atoms: C_2  and  C_3
REMARK    2  A    between atoms: C_7  and  C_8
REMARK    3  A    between atoms: N_10  and  C_11
REMARK    4  A    between atoms: C_11  and  C_12
REMARK    5  A    between atoms: C_15  and  C_16
REMARK    6  A    between atoms: C_16  and  N_17
REMARK    7  A    between atoms: C_18  and  C_20
REMARK                            x       y       z     vdW  Elec       q    Type
REMARK                         _______ _______ _______ _____ _____    ______ ____
ROOT
ATOM      1  C   UNL     1      47.651   5.605  14.504  0.00  0.00    +0.000 A 
ATOM      2  C   UNL     1      48.524   6.269  15.379  0.00  0.00    +0.000 A 
ATOM      3  C   UNL     1      48.857   5.713  16.623  0.00  0.00    +0.000 A 
ATOM      4  C   UNL     1      48.345   4.469  17.015  0.00  0.00    +0.000 A 
ATOM      5  C   UNL     1      47.454   3.817  16.151  0.00  0.00    +0.000 A 
ATOM      6  C   UNL     1      47.125   4.370  14.905  0.00  0.00    +0.000 A 
ENDROOT
BRANCH   1   7
ATOM      7  C   UNL     1      47.278   6.212  13.178  0.00  0.00    +0.000 C 
BRANCH   7  10
ATOM      8  C   UNL     1      45.032   5.591  12.396  0.00  0.00    +0.000 C 
ATOM      9  O   UNL     1      44.501   6.467  13.076  0.00  0.00    +0.000 OA
ATOM     10  N   UNL     1      46.389   5.373  12.396  0.00  0.00    +0.000 N 
ATOM     11  H   UNL     1      46.778   4.565  11.932  0.00  0.00    +0.000 HD
BRANCH   8  16
ATOM     12  C   UNL     1      45.139   3.788  10.628  0.00  0.00    +0.000 C 
ATOM     13  C   UNL     1      44.244   2.619  10.219  0.00  0.00    +0.000 C 
ATOM     14  C   UNL     1      43.130   2.547  11.263  0.00  0.00    +0.000 C 
ATOM     15  C   UNL     1      43.389   3.675  12.253  0.00  0.00    +0.000 C 
ATOM     16  C   UNL     1      44.224   4.690  11.480  0.00  0.00    +0.000 C 
BRANCH  12  18
ATOM     17  N   UNL     1      46.067   5.190   8.413  0.00  0.00    +0.000 NA
ATOM     18  C   UNL     1      45.646   4.555   9.417  0.00  0.00    +0.000 C 
ENDBRANCH  12  18
ENDBRANCH   8  16
ENDBRANCH   7  10
ENDBRANCH   1   7
BRANCH   4  19
ATOM     19  C   UNL     1      48.739   3.827  18.327  0.00  0.00    +0.000 C 
BRANCH  19  20
ATOM     20  N   UNL     1      50.122   3.420  18.343  0.00  0.00    +0.000 N 
ATOM     21  C   UNL     1      50.608   2.449  17.502  0.00  0.00    +0.000 C 
ATOM     22  O   UNL     1      49.905   1.889  16.663  0.00  0.00    +0.000 OA
ATOM     23  H   UNL     1      50.632   3.616  19.200  0.00  0.00    +0.000 HD
BRANCH  21  24
ATOM     24  C   UNL     1      52.042   2.155  17.627  0.00  0.00    +0.000 A 
ATOM     25  C   UNL     1      52.485   0.843  17.721  0.00  0.00    +0.000 A 
ATOM     26  S   UNL     1      54.186   0.704  17.806  0.00  0.00    +0.000 S 
ATOM     27  C   UNL     1      54.386   2.392  17.768  0.00  0.00    +0.000 A 
ATOM     28  N   UNL     1      55.619   2.960  17.839  0.00  0.00    +0.000 NA
ATOM     29  C   UNL     1      55.615   4.251  17.823  0.00  0.00    +0.000 A 
ATOM     30  N   UNL     1      54.493   5.028  17.734  0.00  0.00    +0.000 N 
ATOM     31  C   UNL     1      53.227   4.500  17.627  0.00  0.00    +0.000 A 
ATOM     32  O   UNL     1      52.249   5.225  17.488  0.00  0.00    +0.000 OA
ATOM     33  C   UNL     1      53.172   3.052  17.665  0.00  0.00    +0.000 A 
ATOM     34  H   UNL     1      54.552   6.036  17.706  0.00  0.00    +0.000 HD
ENDBRANCH  21  24
ENDBRANCH  19  20
ENDBRANCH   4  19
TORSDOF 7
ENDMDL
MODEL 8
REMARK VINA RESULT:    -5.967      2.756      8.138
REMARK INTER + INTRA:          -9.687
REMARK INTER:                  -8.627
REMARK INTRA:                  -1.060
REMARK UNBOUND:                -1.278
REMARK  Name = 
REMARK  7 active torsions:
REMARK  status: ('A' for Active; 'I' for Inactive)
REMARK    1  A    between atoms: C_2  and  C_3
REMARK    2  A    between atoms: C_7  and  C_8
REMARK    3  A    between atoms: N_10  and  C_11
REMARK    4  A    between atoms: C_11  and  C_12
REMARK    5  A    between atoms: C_15  and  C_16
REMARK    6  A    between atoms: C_16  and  N_17
REMARK    7  A    between atoms: C_18  and  C_20
REMARK                            x       y       z     vdW  Elec       q    Type
REMARK                         _______ _______ _______ _____ _____    ______ ____
ROOT
ATOM      1  C   UNL     1      46.579   8.447  12.092  0.00  0.00    +0.000 A 
ATOM      2  C   UNL     1      47.545   7.556  11.600  0.00  0.00    +0.000 A 
ATOM      3  C   UNL     1      48.821   7.486  12.179  0.00  0.00    +0.000 A 
ATOM      4  C   UNL     1      49.156   8.288  13.279  0.00  0.00    +0.000 A 
ATOM      5  C   UNL     1      48.199   9.195  13.754  0.00  0.00    +0.000 A 
ATOM      6  C   UNL     1      46.922   9.262  13.179  0.00  0.00    +0.000 A 
ENDROOT
BRANCH   1   7
ATOM      7  C   UNL     1      45.218   8.537  11.456  0.00  0.00    +0.000 C 
BRANCH   7  10
ATOM      8  C   UNL     1      44.436   6.233  11.810  0.00  0.00    +0.000 C 
ATOM      9  O   UNL     1      44.590   6.316  13.026  0.00  0.00    +0.000 OA
ATOM     10  N   UNL     1      44.738   7.264  10.952  0.00  0.00    +0.000 N 
ATOM     11  H   UNL     1      44.726   7.118   9.953  0.00  0.00    +0.000 HD
BRANCH   8  16
ATOM     12  C   UNL     1      45.002   4.051  10.667  0.00  0.00    +0.000 C 
ATOM     13  C   UNL     1      44.342   2.675  10.574  0.00  0.00    +0.000 C 
ATOM     14  C   UNL     1      43.146   2.708  11.525  0.00  0.00    +0.000 C 
ATOM     15  C   UNL     1      43.125   4.098  12.148  0.00  0.00    +0.000 C 
ATOM     16  C   UNL     1      43.876   4.982  11.158  0.00  0.00    +0.000 C 
BRANCH  12  18
ATOM     17  N   UNL     1      45.939   4.907   8.193  0.00  0.00    +0.000 NA
ATOM     18  C   UNL     1      45.514   4.519   9.315  0.00  0.00    +0.000 C 
ENDBRANCH  12  18
ENDBRANCH   8  16
ENDBRANCH   7  10
ENDBRANCH   1   7
BRANCH   4  19
ATOM     19  C   UNL     1      50.507   8.183  13.953  0.00  0.00    +0.000 C 
BRANCH  19  20
ATOM     20  N   UNL     1      50.527   7.176  14.983  0.00  0.00    +0.000 N 
ATOM     21  C   UNL     1      50.290   7.474  16.303  0.00  0.00    +0.000 C 
ATOM     22  O   UNL     1      50.014   8.610  16.685  0.00  0.00    +0.000 OA
ATOM     23  H   UNL     1      51.047   6.329  14.766  0.00  0.00    +0.000 HD
BRANCH  21  24
ATOM     24  C   UNL     1      50.330   6.336  17.232  0.00  0.00    +0.000 A 
ATOM     25  C   UNL     1      51.261   6.302  18.261  0.00  0.00    +0.000 A 
ATOM     26  S   UNL     1      51.116   4.926  19.265  0.00  0.00    +0.000 S 
ATOM     27  C   UNL     1      49.838   4.306  18.331  0.00  0.00    +0.000 A 
ATOM     28  N   UNL     1      49.256   3.115  18.630  0.00  0.00    +0.000 NA
ATOM     29  C   UNL     1      48.315   2.759  17.820  0.00  0.00    +0.000 A 
ATOM     30  N   UNL     1      47.895   3.490  16.743  0.00  0.00    +0.000 N 
ATOM     31  C   UNL     1      48.429   4.716  16.419  0.00  0.00    +0.000 A 
ATOM     32  O   UNL     1      47.987   5.370  15.482  0.00  0.00    +0.000 OA
ATOM     33  C   UNL     1      49.509   5.151  17.283  0.00  0.00    +0.000 A 
ATOM     34  H   UNL     1      47.139   3.171  16.154  0.00  0.00    +0.000 HD
ENDBRANCH  21  24
ENDBRANCH  19  20
ENDBRANCH   4  19
TORSDOF 7
ENDMDL
MODEL 9
REMARK VINA RESULT:    -5.618      3.437      9.365
REMARK INTER + INTRA:          -9.196
REMARK INTER:                  -8.168
REMARK INTRA:                  -1.028
REMARK UNBOUND:                -1.278
REMARK  Name = 
REMARK  7 active torsions:
REMARK  status: ('A' for Active; 'I' for Inactive)
REMARK    1  A    between atoms: C_2  and  C_3
REMARK    2  A    between atoms: C_7  and  C_8
REMARK    3  A    between atoms: N_10  and  C_11
REMARK    4  A    between atoms: C_11  and  C_12
REMARK    5  A    between atoms: C_15  and  C_16
REMARK    6  A    between atoms: C_16  and  N_17
REMARK    7  A    between atoms: C_18  and  C_20
REMARK                            x       y       z     vdW  Elec       q    Type
REMARK                         _______ _______ _______ _____ _____    ______ ____
ROOT
ATOM      1  C   UNL     1      45.354   5.182  11.564  0.00  0.00    +0.000 A 
ATOM      2  C   UNL     1      46.209   6.239  11.911  0.00  0.00    +0.000 A 
ATOM      3  C   UNL     1      46.935   6.213  13.111  0.00  0.00    +0.000 A 
ATOM      4  C   UNL     1      46.842   5.120  13.984  0.00  0.00    +0.000 A 
ATOM      5  C   UNL     1      45.969   4.076  13.648  0.00  0.00    +0.000 A 
ATOM      6  C   UNL     1      45.247   4.099  12.447  0.00  0.00    +0.000 A 
ENDROOT
BRANCH   1   7
ATOM      7  C   UNL     1      44.559   5.220  10.286  0.00  0.00    +0.000 C 
BRANCH   7  10
ATOM      8  C   UNL     1      45.566   3.923   8.456  0.00  0.00    +0.000 C 
ATOM      9  O   UNL     1      46.266   4.871   8.105  0.00  0.00    +0.000 OA
ATOM     10  N   UNL     1      44.679   4.005   9.503  0.00  0.00    +0.000 N 
ATOM     11  H   UNL     1      44.026   3.254   9.681  0.00  0.00    +0.000 HD
BRANCH   8  16
ATOM     12  C   UNL     1      47.028   2.345   7.130  0.00  0.00    +0.000 C 
ATOM     13  C   UNL     1      47.138   0.827   6.995  0.00  0.00    +0.000 C 
ATOM     14  C   UNL     1      46.187   0.235   8.035  0.00  0.00    +0.000 C 
ATOM     15  C   UNL     1      45.538   1.413   8.750  0.00  0.00    +0.000 C 
ATOM     16  C   UNL     1      45.643   2.573   7.767  0.00  0.00    +0.000 C 
BRANCH  12  18
ATOM     17  N   UNL     1      47.160   3.605   4.654  0.00  0.00    +0.000 NA
ATOM     18  C   UNL     1      47.100   3.034   5.776  0.00  0.00    +0.000 C 
ENDBRANCH  12  18
ENDBRANCH   8  16
ENDBRANCH   7  10
ENDBRANCH   1   7
BRANCH   4  19
ATOM     19  C   UNL     1      47.662   5.049  15.254  0.00  0.00    +0.000 C 
BRANCH  19  20
ATOM     20  N   UNL     1      48.272   6.313  15.582  0.00  0.00    +0.000 N 
ATOM     21  C   UNL     1      49.451   6.397  16.282  0.00  0.00    +0.000 C 
ATOM     22  O   UNL     1      50.076   5.402  16.645  0.00  0.00    +0.000 OA
ATOM     23  H   UNL     1      47.650   7.118  15.585  0.00  0.00    +0.000 HD
BRANCH  21  24
ATOM     24  C   UNL     1      49.953   7.756  16.526  0.00  0.00    +0.000 A 
ATOM     25  C   UNL     1      50.091   8.232  17.823  0.00  0.00    +0.000 A 
ATOM     26  S   UNL     1      50.739   9.812  17.903  0.00  0.00    +0.000 S 
ATOM     27  C   UNL     1      50.812   9.931  16.209  0.00  0.00    +0.000 A 
ATOM     28  N   UNL     1      51.255  11.061  15.597  0.00  0.00    +0.000 NA
ATOM     29  C   UNL     1      51.233  11.017  14.307  0.00  0.00    +0.000 A 
ATOM     30  N   UNL     1      50.817   9.942  13.570  0.00  0.00    +0.000 N 
ATOM     31  C   UNL     1      50.392   8.766  14.141  0.00  0.00    +0.000 A 
ATOM     32  O   UNL     1      50.083   7.803  13.450  0.00  0.00    +0.000 OA
ATOM     33  C   UNL     1      50.373   8.771  15.591  0.00  0.00    +0.000 A 
ATOM     34  H   UNL     1      50.841   9.957  12.560  0.00  0.00    +0.000 HD
ENDBRANCH  21  24
ENDBRANCH  19  20
ENDBRANCH   4  19
TORSDOF 7
ENDMDL
