MODEL 1
REMARK VINA RESULT:    -8.302      0.000      0.000
REMARK INTER + INTRA:         -12.853
REMARK INTER:                 -11.699
REMARK INTRA:                  -1.154
REMARK UNBOUND:                -1.154
REMARK  Name = 
REMARK  7 active torsions:
REMARK  status: ('A' for Active; 'I' for Inactive)
REMARK    1  A    between atoms: C_2  and  C_3
REMARK    2  A    between atoms: C_2  and  C_25
REMARK    3  A    between atoms: C_3  and  C_4
REMARK    4  A    between atoms: C_4  and  C_5
REMARK    5  A    between atoms: C_8  and  C_9
REMARK    6  A    between atoms: C_9  and  N_10
REMARK    7  A    between atoms: C_11  and  C_13
REMARK                            x       y       z     vdW  Elec       q    Type
REMARK                         _______ _______ _______ _____ _____    ______ ____
ROOT
ATOM      1  C   UNL     1      44.666   5.255  10.987  0.00  0.00    +0.000 A 
ATOM      2  C   UNL     1      45.860   5.771  10.480  0.00  0.00    +0.000 A 
ATOM      3  C   UNL     1      46.617   6.654  11.249  0.00  0.00    +0.000 A 
ATOM      4  C   UNL     1      46.167   7.004  12.520  0.00  0.00    +0.000 A 
ATOM      5  N   UNL     1      45.001   6.532  13.026  0.00  0.00    +0.000 NA
ATOM      6  C   UNL     1      44.285   5.678  12.256  0.00  0.00    +0.000 A 
ENDROOT
BRANCH   1   7
ATOM      7  C   UNL     1      43.790   4.336  10.178  0.00  0.00    +0.000 C 
BRANCH   7   8
ATOM      8  C   UNL     1      44.294   4.096   8.750  0.00  0.00    +0.000 C 
BRANCH   8  10
ATOM      9  O   UNL     1      44.553   1.756   9.306  0.00  0.00    +0.000 OA
ATOM     10  C   UNL     1      44.908   2.713   8.619  0.00  0.00    +0.000 C 
BRANCH  10  11
ATOM     11  C   UNL     1      45.977   2.529   7.607  0.00  0.00    +0.000 A 
ATOM     12  C   UNL     1      46.815   1.425   7.678  0.00  0.00    +0.000 A 
ATOM     13  N   UNL     1      47.806   1.204   6.776  0.00  0.00    +0.000 NA
ATOM     14  C   UNL     1      47.923   2.137   5.805  0.00  0.00    +0.000 A 
ATOM     15  C   UNL     1      47.087   3.242   5.734  0.00  0.00    +0.000 A 
ATOM     16  N   UNL     1      46.094   3.465   6.629  0.00  0.00    +0.000 NA
ENDBRANCH  10  11
ENDBRANCH   8  10
ENDBRANCH   7   8
ENDBRANCH   1   7
BRANCH   4  17
ATOM     17  C   UNL     1      46.949   7.987  13.359  0.00  0.00    +0.000 C 
BRANCH  17  18
ATOM     18  N   UNL     1      47.447   7.368  14.569  0.00  0.00    +0.000 N 
ATOM     19  C   UNL     1      48.675   6.766  14.625  0.00  0.00    +0.000 C 
ATOM     20  O   UNL     1      49.452   6.780  13.673  0.00  0.00    +0.000 OA
ATOM     21  H   UNL     1      46.743   7.147  15.268  0.00  0.00    +0.000 HD
BRANCH  19  22
ATOM     22  C   UNL     1      49.059   6.163  15.909  0.00  0.00    +0.000 A 
ATOM     23  C   UNL     1      50.131   6.686  16.618  0.00  0.00    +0.000 A 
ATOM     24  S   UNL     1      50.414   5.907  18.108  0.00  0.00    +0.000 S 
ATOM     25  C   UNL     1      49.144   4.806  17.835  0.00  0.00    +0.000 A 
ATOM     26  N   UNL     1      48.859   3.830  18.737  0.00  0.00    +0.000 NA
ATOM     27  C   UNL     1      47.896   3.045  18.386  0.00  0.00    +0.000 A 
ATOM     28  N   UNL     1      47.186   3.155  17.219  0.00  0.00    +0.000 N 
ATOM     29  C   UNL     1      47.416   4.145  16.293  0.00  0.00    +0.000 A 
ATOM     30  O   UNL     1      46.733   4.245  15.281  0.00  0.00    +0.000 OA
ATOM     31  C   UNL     1      48.502   5.044  16.633  0.00  0.00    +0.000 A 
ATOM     32  H   UNL     1      46.435   2.514  17.006  0.00  0.00    +0.000 HD
ENDBRANCH  19  22
ENDBRANCH  17  18
ENDBRANCH   4  17
TORSDOF 7
ENDMDL
MODEL 2
REMARK VINA RESULT:    -7.748      1.891      2.325
REMARK INTER + INTRA:         -12.073
REMARK INTER:                 -11.220
REMARK INTRA:                  -0.853
REMARK UNBOUND:                -1.154
REMARK  Name = 
REMARK  7 active torsions:
REMARK  status: ('A' for Active; 'I' for Inactive)
REMARK    1  A    between atoms: C_2  and  C_3
REMARK    2  A    between atoms: C_2  and  C_25
REMARK    3  A    between atoms: C_3  and  C_4
REMARK    4  A    between atoms: C_4  and  C_5
REMARK    5  A    between atoms: C_8  and  C_9
REMARK    6  A    between atoms: C_9  and  N_10
REMARK    7  A    between atoms: C_11  and  C_13
REMARK                            x       y       z     vdW  Elec       q    Type
REMARK                         _______ _______ _______ _____ _____    ______ ____
ROOT
ATOM      1  C   UNL     1      44.928   5.125  11.763  0.00  0.00    +0.000 A 
ATOM      2  C   UNL     1      45.206   4.676  13.056  0.00  0.00    +0.000 A 
ATOM      3  C   UNL     1      46.312   5.176  13.742  0.00  0.00    +0.000 A 
ATOM      4  C   UNL     1      47.123   6.124  13.122  0.00  0.00    +0.000 A 
ATOM      5  N   UNL     1      46.884   6.561  11.860  0.00  0.00    +0.000 NA
ATOM      6  C   UNL     1      45.805   6.056  11.217  0.00  0.00    +0.000 A 
ENDROOT
BRANCH   1   7
ATOM      7  C   UNL     1      43.774   4.580  10.963  0.00  0.00    +0.000 C 
BRANCH   7   8
ATOM      8  C   UNL     1      44.126   4.259   9.507  0.00  0.00    +0.000 C 
BRANCH   8  10
ATOM      9  O   UNL     1      43.946   1.888   9.951  0.00  0.00    +0.000 OA
ATOM     10  C   UNL     1      44.517   2.799   9.354  0.00  0.00    +0.000 C 
BRANCH  10  11
ATOM     11  C   UNL     1      45.637   2.480   8.434  0.00  0.00    +0.000 A 
ATOM     12  C   UNL     1      46.245   3.493   7.707  0.00  0.00    +0.000 A 
ATOM     13  N   UNL     1      47.276   3.260   6.854  0.00  0.00    +0.000 NA
ATOM     14  C   UNL     1      47.667   1.969   6.760  0.00  0.00    +0.000 A 
ATOM     15  C   UNL     1      47.059   0.955   7.485  0.00  0.00    +0.000 A 
ATOM     16  N   UNL     1      46.032   1.183   8.341  0.00  0.00    +0.000 NA
ENDBRANCH  10  11
ENDBRANCH   8  10
ENDBRANCH   7   8
ENDBRANCH   1   7
BRANCH   4  17
ATOM     17  C   UNL     1      48.348   6.655  13.828  0.00  0.00    +0.000 C 
BRANCH  17  18
ATOM     18  N   UNL     1      48.101   6.845  15.241  0.00  0.00    +0.000 N 
ATOM     19  C   UNL     1      49.022   6.500  16.194  0.00  0.00    +0.000 C 
ATOM     20  O   UNL     1      50.137   6.076  15.898  0.00  0.00    +0.000 OA
ATOM     21  H   UNL     1      47.126   6.966  15.502  0.00  0.00    +0.000 HD
BRANCH  19  22
ATOM     22  C   UNL     1      48.645   6.732  17.595  0.00  0.00    +0.000 A 
ATOM     23  C   UNL     1      48.294   8.010  18.007  0.00  0.00    +0.000 A 
ATOM     24  S   UNL     1      47.835   8.100  19.647  0.00  0.00    +0.000 S 
ATOM     25  C   UNL     1      48.139   6.441  19.879  0.00  0.00    +0.000 A 
ATOM     26  N   UNL     1      47.967   5.863  21.097  0.00  0.00    +0.000 NA
ATOM     27  C   UNL     1      48.268   4.608  21.138  0.00  0.00    +0.000 A 
ATOM     28  N   UNL     1      48.718   3.878  20.069  0.00  0.00    +0.000 N 
ATOM     29  C   UNL     1      48.876   4.411  18.812  0.00  0.00    +0.000 A 
ATOM     30  O   UNL     1      49.234   3.721  17.865  0.00  0.00    +0.000 OA
ATOM     31  C   UNL     1      48.566   5.825  18.716  0.00  0.00    +0.000 A 
ATOM     32  H   UNL     1      48.928   2.894  20.164  0.00  0.00    +0.000 HD
ENDBRANCH  19  22
ENDBRANCH  17  18
ENDBRANCH   4  17
TORSDOF 7
ENDMDL
MODEL 3
REMARK VINA RESULT:    -7.568      2.067      2.496
REMARK INTER + INTRA:         -11.819
REMARK INTER:                 -10.935
REMARK INTRA:                  -0.884
REMARK UNBOUND:                -1.154
REMARK  Name = 
REMARK  7 active torsions:
REMARK  status: ('A' for Active; 'I' for Inactive)
REMARK    1  A    between atoms: C_2  and  C_3
REMARK    2  A    between atoms: C_2  and  C_25
REMARK    3  A    between atoms: C_3  and  C_4
REMARK    4  A    between atoms: C_4  and  C_5
REMARK    5  A    between atoms: C_8  and  C_9
REMARK    6  A    between atoms: C_9  and  N_10
REMARK    7  A    between atoms: C_11  and  C_13
REMARK                            x       y       z     vdW  Elec       q    Type
REMARK                         _______ _______ _______ _____ _____    ______ ____
ROOT
ATOM      1  C   UNL     1      44.836   5.019  11.427  0.00  0.00    +0.000 A 
ATOM      2  C   UNL     1      45.049   4.526  12.715  0.00  0.00    +0.000 A 
ATOM      3  C   UNL     1      46.097   5.026  13.486  0.00  0.00    +0.000 A 
ATOM      4  C   UNL     1      46.916   6.021  12.955  0.00  0.00    +0.000 A 
ATOM      5  N   UNL     1      46.740   6.502  11.700  0.00  0.00    +0.000 NA
ATOM      6  C   UNL     1      45.716   5.996  10.972  0.00  0.00    +0.000 A 
ENDROOT
BRANCH   1   7
ATOM      7  C   UNL     1      43.749   4.478  10.538  0.00  0.00    +0.000 C 
BRANCH   7   8
ATOM      8  C   UNL     1      44.195   4.228   9.093  0.00  0.00    +0.000 C 
BRANCH   8  10
ATOM      9  O   UNL     1      44.347   1.867   9.598  0.00  0.00    +0.000 OA
ATOM     10  C   UNL     1      44.746   2.822   8.932  0.00  0.00    +0.000 C 
BRANCH  10  11
ATOM     11  C   UNL     1      45.806   2.611   7.915  0.00  0.00    +0.000 A 
ATOM     12  C   UNL     1      46.513   1.417   7.891  0.00  0.00    +0.000 A 
ATOM     13  N   UNL     1      47.490   1.168   6.981  0.00  0.00    +0.000 NA
ATOM     14  C   UNL     1      47.729   2.167   6.101  0.00  0.00    +0.000 A 
ATOM     15  C   UNL     1      47.023   3.361   6.126  0.00  0.00    +0.000 A 
ATOM     16  N   UNL     1      46.044   3.613   7.029  0.00  0.00    +0.000 NA
ENDBRANCH  10  11
ENDBRANCH   8  10
ENDBRANCH   7   8
ENDBRANCH   1   7
BRANCH   4  17
ATOM     17  C   UNL     1      48.080   6.555  13.755  0.00  0.00    +0.000 C 
BRANCH  17  18
ATOM     18  N   UNL     1      47.971   6.194  15.152  0.00  0.00    +0.000 N 
ATOM     19  C   UNL     1      49.052   6.201  15.992  0.00  0.00    +0.000 C 
ATOM     20  O   UNL     1      50.160   6.583  15.625  0.00  0.00    +0.000 OA
ATOM     21  H   UNL     1      47.139   5.665  15.402  0.00  0.00    +0.000 HD
BRANCH  19  22
ATOM     22  C   UNL     1      48.810   5.801  17.386  0.00  0.00    +0.000 A 
ATOM     23  C   UNL     1      49.037   4.487  17.770  0.00  0.00    +0.000 A 
ATOM     24  S   UNL     1      48.758   4.200  19.428  0.00  0.00    +0.000 S 
ATOM     25  C   UNL     1      48.274   5.812  19.681  0.00  0.00    +0.000 A 
ATOM     26  N   UNL     1      47.871   6.236  20.908  0.00  0.00    +0.000 NA
ATOM     27  C   UNL     1      47.499   7.472  20.949  0.00  0.00    +0.000 A 
ATOM     28  N   UNL     1      47.500   8.323  19.875  0.00  0.00    +0.000 N 
ATOM     29  C   UNL     1      47.929   7.948  18.624  0.00  0.00    +0.000 A 
ATOM     30  O   UNL     1      47.962   8.746  17.695  0.00  0.00    +0.000 OA
ATOM     31  C   UNL     1      48.343   6.563  18.521  0.00  0.00    +0.000 A 
ATOM     32  H   UNL     1      47.204   9.283  19.974  0.00  0.00    +0.000 HD
ENDBRANCH  19  22
ENDBRANCH  17  18
ENDBRANCH   4  17
TORSDOF 7
ENDMDL
MODEL 4
REMARK VINA RESULT:    -7.414      2.983      4.124
REMARK INTER + INTRA:         -11.602
REMARK INTER:                 -10.532
REMARK INTRA:                  -1.071
REMARK UNBOUND:                -1.154
REMARK  Name = 
REMARK  7 active torsions:
REMARK  status: ('A' for Active; 'I' for Inactive)
REMARK    1  A    between atoms: C_2  and  C_3
REMARK    2  A    between atoms: C_2  and  C_25
REMARK    3  A    between atoms: C_3  and  C_4
REMARK    4  A    between atoms: C_4  and  C_5
REMARK    5  A    between atoms: C_8  and  C_9
REMARK    6  A    between atoms: C_9  and  N_10
REMARK    7  A    between atoms: C_11  and  C_13
REMARK                            x       y       z     vdW  Elec       q    Type
REMARK                         _______ _______ _______ _____ _____    ______ ____
ROOT
ATOM      1  C   UNL     1      46.806   4.354  13.878  0.00  0.00    +0.000 A 
ATOM      2  C   UNL     1      46.823   3.789  15.155  0.00  0.00    +0.000 A 
ATOM      3  C   UNL     1      47.536   4.408  16.180  0.00  0.00    +0.000 A 
ATOM      4  C   UNL     1      48.220   5.592  15.911  0.00  0.00    +0.000 A 
ATOM      5  N   UNL     1      48.235   6.149  14.675  0.00  0.00    +0.000 NA
ATOM      6  C   UNL     1      47.536   5.525  13.697  0.00  0.00    +0.000 A 
ENDROOT
BRANCH   1   7
ATOM      7  C   UNL     1      46.091   3.698  12.727  0.00  0.00    +0.000 C 
BRANCH   7   8
ATOM      8  C   UNL     1      44.804   4.416  12.306  0.00  0.00    +0.000 C 
BRANCH   8  10
ATOM      9  O   UNL     1      42.977   3.202  11.285  0.00  0.00    +0.000 OA
ATOM     10  C   UNL     1      44.111   3.668  11.180  0.00  0.00    +0.000 C 
BRANCH  10  11
ATOM     11  C   UNL     1      44.849   3.509   9.903  0.00  0.00    +0.000 A 
ATOM     12  C   UNL     1      45.216   4.630   9.172  0.00  0.00    +0.000 A 
ATOM     13  N   UNL     1      45.897   4.545   8.000  0.00  0.00    +0.000 NA
ATOM     14  C   UNL     1      46.190   3.289   7.592  0.00  0.00    +0.000 A 
ATOM     15  C   UNL     1      45.823   2.168   8.322  0.00  0.00    +0.000 A 
ATOM     16  N   UNL     1      45.147   2.248   9.494  0.00  0.00    +0.000 NA
ENDBRANCH  10  11
ENDBRANCH   8  10
ENDBRANCH   7   8
ENDBRANCH   1   7
BRANCH   4  17
ATOM     17  C   UNL     1      49.031   6.265  16.993  0.00  0.00    +0.000 C 
BRANCH  17  18
ATOM     18  N   UNL     1      50.049   5.379  17.517  0.00  0.00    +0.000 N 
ATOM     19  C   UNL     1      51.360   5.471  17.132  0.00  0.00    +0.000 C 
ATOM     20  O   UNL     1      51.757   6.354  16.376  0.00  0.00    +0.000 OA
ATOM     21  H   UNL     1      49.706   4.522  17.943  0.00  0.00    +0.000 HD
BRANCH  19  22
ATOM     22  C   UNL     1      52.294   4.505  17.727  0.00  0.00    +0.000 A 
ATOM     23  C   UNL     1      53.440   4.962  18.361  0.00  0.00    +0.000 A 
ATOM     24  S   UNL     1      54.390   3.720  19.041  0.00  0.00    +0.000 S 
ATOM     25  C   UNL     1      53.328   2.520  18.466  0.00  0.00    +0.000 A 
ATOM     26  N   UNL     1      53.578   1.202  18.687  0.00  0.00    +0.000 NA
ATOM     27  C   UNL     1      52.710   0.400  18.165  0.00  0.00    +0.000 A 
ATOM     28  N   UNL     1      51.611   0.799  17.451  0.00  0.00    +0.000 N 
ATOM     29  C   UNL     1      51.300   2.120  17.230  0.00  0.00    +0.000 A 
ATOM     30  O   UNL     1      50.284   2.446  16.628  0.00  0.00    +0.000 OA
ATOM     31  C   UNL     1      52.254   3.062  17.782  0.00  0.00    +0.000 A 
ATOM     32  H   UNL     1      50.963   0.122  17.075  0.00  0.00    +0.000 HD
ENDBRANCH  19  22
ENDBRANCH  17  18
ENDBRANCH   4  17
TORSDOF 7
ENDMDL
MODEL 5
REMARK VINA RESULT:    -7.181      2.137      2.858
REMARK INTER + INTRA:         -11.274
REMARK INTER:                 -10.108
REMARK INTRA:                  -1.166
REMARK UNBOUND:                -1.154
REMARK  Name = 
REMARK  7 active torsions:
REMARK  status: ('A' for Active; 'I' for Inactive)
REMARK    1  A    between atoms: C_2  and  C_3
REMARK    2  A    between atoms: C_2  and  C_25
REMARK    3  A    between atoms: C_3  and  C_4
REMARK    4  A    between atoms: C_4  and  C_5
REMARK    5  A    between atoms: C_8  and  C_9
REMARK    6  A    between atoms: C_9  and  N_10
REMARK    7  A    between atoms: C_11  and  C_13
REMARK                            x       y       z     vdW  Elec       q    Type
REMARK                         _______ _______ _______ _____ _____    ______ ____
ROOT
ATOM      1  C   UNL     1      45.467   5.417  12.923  0.00  0.00    +0.000 A 
ATOM      2  C   UNL     1      45.592   6.683  12.349  0.00  0.00    +0.000 A 
ATOM      3  C   UNL     1      46.839   7.304  12.301  0.00  0.00    +0.000 A 
ATOM      4  C   UNL     1      47.947   6.643  12.827  0.00  0.00    +0.000 A 
ATOM      5  N   UNL     1      47.847   5.422  13.408  0.00  0.00    +0.000 NA
ATOM      6  C   UNL     1      46.623   4.844  13.443  0.00  0.00    +0.000 A 
ENDROOT
BRANCH   1   7
ATOM      7  C   UNL     1      44.135   4.726  13.042  0.00  0.00    +0.000 C 
BRANCH   7   8
ATOM      8  C   UNL     1      43.357   4.646  11.724  0.00  0.00    +0.000 C 
BRANCH   8  10
ATOM      9  O   UNL     1      43.015   2.266  11.458  0.00  0.00    +0.000 OA
ATOM     10  C   UNL     1      43.558   3.295  11.058  0.00  0.00    +0.000 C 
BRANCH  10  11
ATOM     11  C   UNL     1      44.446   3.238   9.871  0.00  0.00    +0.000 A 
ATOM     12  C   UNL     1      44.765   4.404   9.189  0.00  0.00    +0.000 A 
ATOM     13  N   UNL     1      45.576   4.412   8.100  0.00  0.00    +0.000 NA
ATOM     14  C   UNL     1      46.051   3.203   7.724  0.00  0.00    +0.000 A 
ATOM     15  C   UNL     1      45.732   2.037   8.404  0.00  0.00    +0.000 A 
ATOM     16  N   UNL     1      44.926   2.024   9.494  0.00  0.00    +0.000 NA
ENDBRANCH  10  11
ENDBRANCH   8  10
ENDBRANCH   7   8
ENDBRANCH   1   7
BRANCH   4  17
ATOM     17  C   UNL     1      49.303   7.308  12.822  0.00  0.00    +0.000 C 
BRANCH  17  18
ATOM     18  N   UNL     1      49.964   7.168  14.102  0.00  0.00    +0.000 N 
ATOM     19  C   UNL     1      49.752   8.048  15.129  0.00  0.00    +0.000 C 
ATOM     20  O   UNL     1      48.935   8.962  15.047  0.00  0.00    +0.000 OA
ATOM     21  H   UNL     1      50.792   6.579  14.103  0.00  0.00    +0.000 HD
BRANCH  19  22
ATOM     22  C   UNL     1      50.493   7.803  16.374  0.00  0.00    +0.000 A 
ATOM     23  C   UNL     1      51.390   8.756  16.836  0.00  0.00    +0.000 A 
ATOM     24  S   UNL     1      52.129   8.343  18.316  0.00  0.00    +0.000 S 
ATOM     25  C   UNL     1      51.313   6.849  18.368  0.00  0.00    +0.000 A 
ATOM     26  N   UNL     1      51.521   5.975  19.388  0.00  0.00    +0.000 NA
ATOM     27  C   UNL     1      50.865   4.868  19.282  0.00  0.00    +0.000 A 
ATOM     28  N   UNL     1      50.015   4.560  18.252  0.00  0.00    +0.000 N 
ATOM     29  C   UNL     1      49.750   5.425  17.217  0.00  0.00    +0.000 A 
ATOM     30  O   UNL     1      48.948   5.139  16.335  0.00  0.00    +0.000 OA
ATOM     31  C   UNL     1      50.475   6.679  17.280  0.00  0.00    +0.000 A 
ATOM     32  H   UNL     1      49.523   3.678  18.232  0.00  0.00    +0.000 HD
ENDBRANCH  19  22
ENDBRANCH  17  18
ENDBRANCH   4  17
TORSDOF 7
ENDMDL
MODEL 6
REMARK VINA RESULT:    -7.169      2.897      8.474
REMARK INTER + INTRA:         -11.257
REMARK INTER:                  -9.890
REMARK INTRA:                  -1.367
REMARK UNBOUND:                -1.154
REMARK  Name = 
REMARK  7 active torsions:
REMARK  status: ('A' for Active; 'I' for Inactive)
REMARK    1  A    between atoms: C_2  and  C_3
REMARK    2  A    between atoms: C_2  and  C_25
REMARK    3  A    between atoms: C_3  and  C_4
REMARK    4  A    between atoms: C_4  and  C_5
REMARK    5  A    between atoms: C_8  and  C_9
REMARK    6  A    between atoms: C_9  and  N_10
REMARK    7  A    between atoms: C_11  and  C_13
REMARK                            x       y       z     vdW  Elec       q    Type
REMARK                         _______ _______ _______ _____ _____    ______ ____
ROOT
ATOM      1  C   UNL     1      49.433   8.167  16.030  0.00  0.00    +0.000 A 
ATOM      2  C   UNL     1      48.392   8.997  15.609  0.00  0.00    +0.000 A 
ATOM      3  C   UNL     1      47.891   8.879  14.314  0.00  0.00    +0.000 A 
ATOM      4  C   UNL     1      48.439   7.925  13.458  0.00  0.00    +0.000 A 
ATOM      5  N   UNL     1      49.463   7.122  13.838  0.00  0.00    +0.000 NA
ATOM      6  C   UNL     1      49.932   7.261  15.101  0.00  0.00    +0.000 A 
ENDROOT
BRANCH   1   7
ATOM      7  C   UNL     1      50.041   8.289  17.402  0.00  0.00    +0.000 C 
BRANCH   7   8
ATOM      8  C   UNL     1      50.089   6.969  18.179  0.00  0.00    +0.000 C 
BRANCH   8  10
ATOM      9  O   UNL     1      47.793   7.054  18.937  0.00  0.00    +0.000 OA
ATOM     10  C   UNL     1      48.691   6.414  18.390  0.00  0.00    +0.000 C 
BRANCH  10  11
ATOM     11  C   UNL     1      48.415   5.041  17.901  0.00  0.00    +0.000 A 
ATOM     12  C   UNL     1      47.104   4.616  17.733  0.00  0.00    +0.000 A 
ATOM     13  N   UNL     1      46.793   3.372  17.284  0.00  0.00    +0.000 NA
ATOM     14  C   UNL     1      47.851   2.574  17.016  0.00  0.00    +0.000 A 
ATOM     15  C   UNL     1      49.161   2.997  17.185  0.00  0.00    +0.000 A 
ATOM     16  N   UNL     1      49.477   4.238  17.628  0.00  0.00    +0.000 NA
ENDBRANCH  10  11
ENDBRANCH   8  10
ENDBRANCH   7   8
ENDBRANCH   1   7
BRANCH   4  17
ATOM     17  C   UNL     1      47.939   7.801  12.038  0.00  0.00    +0.000 C 
BRANCH  17  18
ATOM     18  N   UNL     1      47.156   6.598  11.859  0.00  0.00    +0.000 N 
ATOM     19  C   UNL     1      45.786   6.613  11.869  0.00  0.00    +0.000 C 
ATOM     20  O   UNL     1      45.147   7.658  11.960  0.00  0.00    +0.000 OA
ATOM     21  H   UNL     1      47.653   5.725  12.017  0.00  0.00    +0.000 HD
BRANCH  19  22
ATOM     22  C   UNL     1      45.108   5.322  11.689  0.00  0.00    +0.000 A 
ATOM     23  C   UNL     1      44.437   4.746  12.758  0.00  0.00    +0.000 A 
ATOM     24  S   UNL     1      43.662   3.277  12.370  0.00  0.00    +0.000 S 
ATOM     25  C   UNL     1      44.241   3.332  10.770  0.00  0.00    +0.000 A 
ATOM     26  N   UNL     1      43.956   2.336   9.890  0.00  0.00    +0.000 NA
ATOM     27  C   UNL     1      44.487   2.489   8.723  0.00  0.00    +0.000 A 
ATOM     28  N   UNL     1      45.270   3.552   8.355  0.00  0.00    +0.000 N 
ATOM     29  C   UNL     1      45.557   4.597   9.200  0.00  0.00    +0.000 A 
ATOM     30  O   UNL     1      46.222   5.557   8.827  0.00  0.00    +0.000 OA
ATOM     31  C   UNL     1      44.997   4.466  10.531  0.00  0.00    +0.000 A 
ATOM     32  H   UNL     1      45.650   3.618   7.422  0.00  0.00    +0.000 HD
ENDBRANCH  19  22
ENDBRANCH  17  18
ENDBRANCH   4  17
TORSDOF 7
ENDMDL
MODEL 7
REMARK VINA RESULT:    -6.757      1.800      2.031
REMARK INTER + INTRA:         -10.676
REMARK INTER:                  -9.825
REMARK INTRA:                  -0.850
REMARK UNBOUND:                -1.154
REMARK  Name = 
REMARK  7 active torsions:
REMARK  status: ('A' for Active; 'I' for Inactive)
REMARK    1  A    between atoms: C_2  and  C_3
REMARK    2  A    between atoms: C_2  and  C_25
REMARK    3  A    between atoms: C_3  and  C_4
REMARK    4  A    between atoms: C_4  and  C_5
REMARK    5  A    between atoms: C_8  and  C_9
REMARK    6  A    between atoms: C_9  and  N_10
REMARK    7  A    between atoms: C_11  and  C_13
REMARK                            x       y       z     vdW  Elec       q    Type
REMARK                         _______ _______ _______ _____ _____    ______ ____
ROOT
ATOM      1  C   UNL     1      45.097   4.643  11.887  0.00  0.00    +0.000 A 
ATOM      2  C   UNL     1      45.642   4.274  13.118  0.00  0.00    +0.000 A 
ATOM      3  C   UNL     1      46.547   5.119  13.758  0.00  0.00    +0.000 A 
ATOM      4  C   UNL     1      46.890   6.327  13.155  0.00  0.00    +0.000 A 
ATOM      5  N   UNL     1      46.389   6.698  11.951  0.00  0.00    +0.000 NA
ATOM      6  C   UNL     1      45.514   5.856  11.350  0.00  0.00    +0.000 A 
ENDROOT
BRANCH   1   7
ATOM      7  C   UNL     1      44.153   3.743  11.133  0.00  0.00    +0.000 C 
BRANCH   7   8
ATOM      8  C   UNL     1      44.851   2.796  10.150  0.00  0.00    +0.000 C 
BRANCH   8  10
ATOM      9  O   UNL     1      44.144   4.306   8.397  0.00  0.00    +0.000 OA
ATOM     10  C   UNL     1      44.893   3.398   8.756  0.00  0.00    +0.000 C 
BRANCH  10  11
ATOM     11  C   UNL     1      45.894   2.858   7.804  0.00  0.00    +0.000 A 
ATOM     12  C   UNL     1      46.425   1.592   8.003  0.00  0.00    +0.000 A 
ATOM     13  N   UNL     1      47.341   1.045   7.162  0.00  0.00    +0.000 NA
ATOM     14  C   UNL     1      47.701   1.823   6.116  0.00  0.00    +0.000 A 
ATOM     15  C   UNL     1      47.171   3.089   5.917  0.00  0.00    +0.000 A 
ATOM     16  N   UNL     1      46.255   3.637   6.751  0.00  0.00    +0.000 NA
ENDBRANCH  10  11
ENDBRANCH   8  10
ENDBRANCH   7   8
ENDBRANCH   1   7
BRANCH   4  17
ATOM     17  C   UNL     1      47.896   7.245  13.809  0.00  0.00    +0.000 C 
BRANCH  17  18
ATOM     18  N   UNL     1      48.606   6.574  14.877  0.00  0.00    +0.000 N 
ATOM     19  C   UNL     1      48.904   7.200  16.058  0.00  0.00    +0.000 C 
ATOM     20  O   UNL     1      48.524   8.342  16.304  0.00  0.00    +0.000 OA
ATOM     21  H   UNL     1      49.118   5.740  14.604  0.00  0.00    +0.000 HD
BRANCH  19  22
ATOM     22  C   UNL     1      49.640   6.413  17.057  0.00  0.00    +0.000 A 
ATOM     23  C   UNL     1      50.961   6.064  16.815  0.00  0.00    +0.000 A 
ATOM     24  S   UNL     1      51.686   5.196  18.092  0.00  0.00    +0.000 S 
ATOM     25  C   UNL     1      50.242   5.212  18.994  0.00  0.00    +0.000 A 
ATOM     26  N   UNL     1      50.169   4.603  20.207  0.00  0.00    +0.000 NA
ATOM     27  C   UNL     1      49.005   4.662  20.764  0.00  0.00    +0.000 A 
ATOM     28  N   UNL     1      47.911   5.282  20.220  0.00  0.00    +0.000 N 
ATOM     29  C   UNL     1      47.946   5.938  19.012  0.00  0.00    +0.000 A 
ATOM     30  O   UNL     1      46.962   6.523  18.574  0.00  0.00    +0.000 OA
ATOM     31  C   UNL     1      49.228   5.887  18.337  0.00  0.00    +0.000 A 
ATOM     32  H   UNL     1      47.028   5.302  20.710  0.00  0.00    +0.000 HD
ENDBRANCH  19  22
ENDBRANCH  17  18
ENDBRANCH   4  17
TORSDOF 7
ENDMDL
MODEL 8
REMARK VINA RESULT:    -6.654      3.433      8.188
REMARK INTER + INTRA:         -10.531
REMARK INTER:                  -9.332
REMARK INTRA:                  -1.199
REMARK UNBOUND:                -1.154
REMARK  Name = 
REMARK  7 active torsions:
REMARK  status: ('A' for Active; 'I' for Inactive)
REMARK    1  A    between atoms: C_2  and  C_3
REMARK    2  A    between atoms: C_2  and  C_25
REMARK    3  A    between atoms: C_3  and  C_4
REMARK    4  A    between atoms: C_4  and  C_5
REMARK    5  A    between atoms: C_8  and  C_9
REMARK    6  A    between atoms: C_9  and  N_10
REMARK    7  A    between atoms: C_11  and  C_13
REMARK                            x       y       z     vdW  Elec       q    Type
REMARK                         _______ _______ _______ _____ _____    ______ ____
ROOT
ATOM      1  C   UNL     1      50.390   7.142  15.619  0.00  0.00    +0.000 A 
ATOM      2  C   UNL     1      51.035   7.705  14.517  0.00  0.00    +0.000 A 
ATOM      3  C   UNL     1      50.292   8.107  13.408  0.00  0.00    +0.000 A 
ATOM      4  C   UNL     1      48.909   7.943  13.422  0.00  0.00    +0.000 A 
ATOM      5  N   UNL     1      48.262   7.381  14.473  0.00  0.00    +0.000 NA
ATOM      6  C   UNL     1      49.009   6.997  15.535  0.00  0.00    +0.000 A 
ENDROOT
BRANCH   1   7
ATOM      7  C   UNL     1      51.152   6.647  16.820  0.00  0.00    +0.000 C 
BRANCH   7   8
ATOM      8  C   UNL     1      50.301   6.527  18.089  0.00  0.00    +0.000 C 
BRANCH   8  10
ATOM      9  O   UNL     1      50.865   4.843  19.731  0.00  0.00    +0.000 OA
ATOM     10  C   UNL     1      50.355   5.115  18.645  0.00  0.00    +0.000 C 
BRANCH  10  11
ATOM     11  C   UNL     1      49.754   4.031  17.829  0.00  0.00    +0.000 A 
ATOM     12  C   UNL     1      50.529   2.951  17.433  0.00  0.00    +0.000 A 
ATOM     13  N   UNL     1      50.031   1.929  16.690  0.00  0.00    +0.000 NA
ATOM     14  C   UNL     1      48.724   2.040  16.359  0.00  0.00    +0.000 A 
ATOM     15  C   UNL     1      47.948   3.120  16.753  0.00  0.00    +0.000 A 
ATOM     16  N   UNL     1      48.440   4.140  17.498  0.00  0.00    +0.000 NA
ENDBRANCH  10  11
ENDBRANCH   8  10
ENDBRANCH   7   8
ENDBRANCH   1   7
BRANCH   4  17
ATOM     17  C   UNL     1      48.083   8.337  12.220  0.00  0.00    +0.000 C 
BRANCH  17  18
ATOM     18  N   UNL     1      47.461   7.183  11.607  0.00  0.00    +0.000 N 
ATOM     19  C   UNL     1      46.102   7.068  11.486  0.00  0.00    +0.000 C 
ATOM     20  O   UNL     1      45.339   7.969  11.826  0.00  0.00    +0.000 OA
ATOM     21  H   UNL     1      48.046   6.355  11.542  0.00  0.00    +0.000 HD
BRANCH  19  22
ATOM     22  C   UNL     1      45.594   5.842  10.856  0.00  0.00    +0.000 A 
ATOM     23  C   UNL     1      45.849   5.606   9.512  0.00  0.00    +0.000 A 
ATOM     24  S   UNL     1      45.236   4.118   8.948  0.00  0.00    +0.000 S 
ATOM     25  C   UNL     1      44.563   3.757  10.470  0.00  0.00    +0.000 A 
ATOM     26  N   UNL     1      43.861   2.610  10.669  0.00  0.00    +0.000 NA
ATOM     27  C   UNL     1      43.378   2.481  11.859  0.00  0.00    +0.000 A 
ATOM     28  N   UNL     1      43.541   3.393  12.870  0.00  0.00    +0.000 N 
ATOM     29  C   UNL     1      44.269   4.550  12.725  0.00  0.00    +0.000 A 
ATOM     30  O   UNL     1      44.435   5.322  13.662  0.00  0.00    +0.000 OA
ATOM     31  C   UNL     1      44.820   4.750  11.399  0.00  0.00    +0.000 A 
ATOM     32  H   UNL     1      43.144   3.229  13.784  0.00  0.00    +0.000 HD
ENDBRANCH  19  22
ENDBRANCH  17  18
ENDBRANCH   4  17
TORSDOF 7
ENDMDL
MODEL 9
REMARK VINA RESULT:    -6.431      3.914      8.097
REMARK INTER + INTRA:         -10.217
REMARK INTER:                  -8.529
REMARK INTRA:                  -1.688
REMARK UNBOUND:                -1.154
REMARK  Name = 
REMARK  7 active torsions:
REMARK  status: ('A' for Active; 'I' for Inactive)
REMARK    1  A    between atoms: C_2  and  C_3
REMARK    2  A    between atoms: C_2  and  C_25
REMARK    3  A    between atoms: C_3  and  C_4
REMARK    4  A    between atoms: C_4  and  C_5
REMARK    5  A    between atoms: C_8  and  C_9
REMARK    6  A    between atoms: C_9  and  N_10
REMARK    7  A    between atoms: C_11  and  C_13
REMARK                            x       y       z     vdW  Elec       q    Type
REMARK                         _______ _______ _______ _____ _____    ______ ____
ROOT
ATOM      1  C   UNL     1      51.013   7.208  17.286  0.00  0.00    +0.000 A 
ATOM      2  C   UNL     1      51.099   7.192  15.893  0.00  0.00    +0.000 A 
ATOM      3  C   UNL     1      50.157   7.882  15.130  0.00  0.00    +0.000 A 
ATOM      4  C   UNL     1      49.143   8.583  15.777  0.00  0.00    +0.000 A 
ATOM      5  N   UNL     1      49.026   8.597  17.129  0.00  0.00    +0.000 NA
ATOM      6  C   UNL     1      49.953   7.917  17.844  0.00  0.00    +0.000 A 
ENDROOT
BRANCH   1   7
ATOM      7  C   UNL     1      51.976   6.441  18.152  0.00  0.00    +0.000 C 
BRANCH   7   8
ATOM      8  C   UNL     1      51.303   5.418  19.073  0.00  0.00    +0.000 C 
BRANCH   8  10
ATOM      9  O   UNL     1      52.459   3.323  18.716  0.00  0.00    +0.000 OA
ATOM     10  C   UNL     1      51.457   4.010  18.523  0.00  0.00    +0.000 C 
BRANCH  10  11
ATOM     11  C   UNL     1      50.334   3.456  17.728  0.00  0.00    +0.000 A 
ATOM     12  C   UNL     1      50.513   2.290  16.996  0.00  0.00    +0.000 A 
ATOM     13  N   UNL     1      49.519   1.736  16.255  0.00  0.00    +0.000 NA
ATOM     14  C   UNL     1      48.342   2.402  16.276  0.00  0.00    +0.000 A 
ATOM     15  C   UNL     1      48.162   3.567  17.006  0.00  0.00    +0.000 A 
ATOM     16  N   UNL     1      49.150   4.122  17.751  0.00  0.00    +0.000 NA
ENDBRANCH  10  11
ENDBRANCH   8  10
ENDBRANCH   7   8
ENDBRANCH   1   7
BRANCH   4  17
ATOM     17  C   UNL     1      48.088   9.308  14.975  0.00  0.00    +0.000 C 
BRANCH  17  18
ATOM     18  N   UNL     1      47.148   8.382  14.380  0.00  0.00    +0.000 N 
ATOM     19  C   UNL     1      47.050   8.216  13.025  0.00  0.00    +0.000 C 
ATOM     20  O   UNL     1      47.802   8.791  12.241  0.00  0.00    +0.000 OA
ATOM     21  H   UNL     1      46.383   8.089  14.982  0.00  0.00    +0.000 HD
BRANCH  19  22
ATOM     22  C   UNL     1      46.047   7.254  12.546  0.00  0.00    +0.000 A 
ATOM     23  C   UNL     1      44.954   7.708  11.823  0.00  0.00    +0.000 A 
ATOM     24  S   UNL     1      43.913   6.463  11.299  0.00  0.00    +0.000 S 
ATOM     25  C   UNL     1      44.862   5.275  12.065  0.00  0.00    +0.000 A 
ATOM     26  N   UNL     1      44.505   3.963  12.025  0.00  0.00    +0.000 NA
ATOM     27  C   UNL     1      45.295   3.177  12.678  0.00  0.00    +0.000 A 
ATOM     28  N   UNL     1      46.413   3.583  13.358  0.00  0.00    +0.000 N 
ATOM     29  C   UNL     1      46.830   4.892  13.399  0.00  0.00    +0.000 A 
ATOM     30  O   UNL     1      47.860   5.217  13.977  0.00  0.00    +0.000 OA
ATOM     31  C   UNL     1      45.967   5.820  12.695  0.00  0.00    +0.000 A 
ATOM     32  H   UNL     1      46.996   2.916  13.843  0.00  0.00    +0.000 HD
ENDBRANCH  19  22
ENDBRANCH  17  18
ENDBRANCH   4  17
TORSDOF 7
ENDMDL
