MODEL 1
REMARK VINA RESULT:    -8.228      0.000      0.000
REMARK INTER + INTRA:         -15.604
REMARK INTER:                 -13.519
REMARK INTRA:                  -2.085
REMARK UNBOUND:                -2.085
REMARK  Name = 
REMARK  13 active torsions:
REMARK  status: ('A' for Active; 'I' for Inactive)
REMARK    1  A    between atoms: C_1  and  O_2
REMARK    2  A    between atoms: O_2  and  C_3
REMARK    3  A    between atoms: C_3  and  C_4
REMARK    4  A    between atoms: C_4  and  C_5
REMARK    5  A    between atoms: C_5  and  N_6
REMARK    6  A    between atoms: C_5  and  C_29
REMARK    7  A    between atoms: N_6  and  C_7
REMARK    8  A    between atoms: C_7  and  C_8
REMARK    9  A    between atoms: C_11  and  C_12
REMARK   10  A    between atoms: C_12  and  N_13
REMARK   11  A    between atoms: C_14  and  C_16
REMARK   12  A    between atoms: C_23  and  O_24
REMARK   13  A    between atoms: O_24  and  C_25
REMARK                            x       y       z     vdW  Elec       q    Type
REMARK                         _______ _______ _______ _____ _____    ______ ____
ROOT
ATOM      1  C   UNL     1      45.319   6.674  11.131  0.00  0.00    +0.000 A 
ATOM      2  C   UNL     1      44.812   7.693  11.948  0.00  0.00    +0.000 A 
ATOM      3  C   UNL     1      45.623   8.306  12.906  0.00  0.00    +0.000 A 
ATOM      4  C   UNL     1      46.957   7.909  13.069  0.00  0.00    +0.000 A 
ATOM      5  C   UNL     1      47.455   6.866  12.277  0.00  0.00    +0.000 A 
ATOM      6  C   UNL     1      46.646   6.259  11.315  0.00  0.00    +0.000 A 
ENDROOT
BRANCH   1   7
ATOM      7  C   UNL     1      44.452   6.009  10.085  0.00  0.00    +0.000 C 
BRANCH   7   8
ATOM      8  N   UNL     1      45.235   5.145   9.206  0.00  0.00    +0.000 NA
ATOM      9  H   UNL     1      45.168   5.467   8.243  0.00  0.00    +0.000 HD
BRANCH   8  10
ATOM     10  C   UNL     1      44.881   3.717   9.264  0.00  0.00    +0.000 C 
BRANCH  10  11
ATOM     11  C   UNL     1      45.700   2.925   8.236  0.00  0.00    +0.000 A 
ATOM     12  C   UNL     1      46.256   3.596   7.133  0.00  0.00    +0.000 A 
ATOM     13  C   UNL     1      47.082   2.925   6.228  0.00  0.00    +0.000 A 
ATOM     14  C   UNL     1      47.373   1.575   6.414  0.00  0.00    +0.000 A 
ATOM     15  C   UNL     1      46.829   0.894   7.497  0.00  0.00    +0.000 A 
ATOM     16  C   UNL     1      45.996   1.562   8.397  0.00  0.00    +0.000 A 
ENDBRANCH  10  11
BRANCH  10  17
ATOM     17  C   UNL     1      44.898   3.094  10.685  0.00  0.00    +0.000 C 
BRANCH  17  18
ATOM     18  C   UNL     1      43.532   2.851  11.324  0.00  0.00    +0.000 C 
BRANCH  18  20
ATOM     19  C   UNL     1      43.351   4.289  13.169  0.00  0.00    +0.000 C 
ATOM     20  O   UNL     1      43.598   2.952  12.742  0.00  0.00    +0.000 OA
ENDBRANCH  18  20
ENDBRANCH  17  18
ENDBRANCH  10  17
ENDBRANCH   8  10
ENDBRANCH   7   8
ENDBRANCH   1   7
BRANCH   4  21
ATOM     21  C   UNL     1      47.832   8.556  14.107  0.00  0.00    +0.000 C 
BRANCH  21  22
ATOM     22  N   UNL     1      48.080   7.656  15.205  0.00  0.00    +0.000 N 
ATOM     23  C   UNL     1      49.258   6.966  15.308  0.00  0.00    +0.000 C 
ATOM     24  O   UNL     1      50.180   7.135  14.513  0.00  0.00    +0.000 OA
ATOM     25  H   UNL     1      47.290   7.388  15.778  0.00  0.00    +0.000 HD
BRANCH  23  26
ATOM     26  C   UNL     1      49.392   6.065  16.458  0.00  0.00    +0.000 A 
ATOM     27  C   UNL     1      50.452   6.249  17.336  0.00  0.00    +0.000 A 
ATOM     28  S   UNL     1      50.439   5.170  18.650  0.00  0.00    +0.000 S 
ATOM     29  C   UNL     1      49.052   4.388  18.060  0.00  0.00    +0.000 A 
ATOM     30  N   UNL     1      48.536   3.350  18.739  0.00  0.00    +0.000 NA
ATOM     31  C   UNL     1      47.463   2.828  18.147  0.00  0.00    +0.000 A 
ATOM     32  N   UNL     1      46.897   3.226  17.002  0.00  0.00    +0.000 NA
ATOM     33  C   UNL     1      47.450   4.272  16.354  0.00  0.00    +0.000 A 
ATOM     34  C   UNL     1      48.574   4.931  16.875  0.00  0.00    +0.000 A 
BRANCH  33  35
ATOM     35  O   UNL     1      46.887   4.693  15.164  0.00  0.00    +0.000 OA
ATOM     36  C   UNL     1      47.012   3.750  14.103  0.00  0.00    +0.000 C 
ENDBRANCH  33  35
ENDBRANCH  23  26
ENDBRANCH  21  22
ENDBRANCH   4  21
TORSDOF 11
ENDMDL
MODEL 2
REMARK VINA RESULT:    -7.145      1.545      1.931
REMARK INTER + INTRA:         -13.825
REMARK INTER:                 -12.151
REMARK INTRA:                  -1.674
REMARK UNBOUND:                -2.085
REMARK  Name = 
REMARK  13 active torsions:
REMARK  status: ('A' for Active; 'I' for Inactive)
REMARK    1  A    between atoms: C_1  and  O_2
REMARK    2  A    between atoms: O_2  and  C_3
REMARK    3  A    between atoms: C_3  and  C_4
REMARK    4  A    between atoms: C_4  and  C_5
REMARK    5  A    between atoms: C_5  and  N_6
REMARK    6  A    between atoms: C_5  and  C_29
REMARK    7  A    between atoms: N_6  and  C_7
REMARK    8  A    between atoms: C_7  and  C_8
REMARK    9  A    between atoms: C_11  and  C_12
REMARK   10  A    between atoms: C_12  and  N_13
REMARK   11  A    between atoms: C_14  and  C_16
REMARK   12  A    between atoms: C_23  and  O_24
REMARK   13  A    between atoms: O_24  and  C_25
REMARK                            x       y       z     vdW  Elec       q    Type
REMARK                         _______ _______ _______ _____ _____    ______ ____
ROOT
ATOM      1  C   UNL     1      46.050   6.957  11.851  0.00  0.00    +0.000 A 
ATOM      2  C   UNL     1      47.194   6.223  12.190  0.00  0.00    +0.000 A 
ATOM      3  C   UNL     1      48.047   6.663  13.205  0.00  0.00    +0.000 A 
ATOM      4  C   UNL     1      47.775   7.850  13.898  0.00  0.00    +0.000 A 
ATOM      5  C   UNL     1      46.651   8.604  13.536  0.00  0.00    +0.000 A 
ATOM      6  C   UNL     1      45.795   8.158  12.527  0.00  0.00    +0.000 A 
ENDROOT
BRANCH   1   7
ATOM      7  C   UNL     1      45.115   6.484  10.760  0.00  0.00    +0.000 C 
BRANCH   7   8
ATOM      8  N   UNL     1      45.751   5.490   9.899  0.00  0.00    +0.000 NA
ATOM      9  H   UNL     1      45.894   5.871   8.967  0.00  0.00    +0.000 HD
BRANCH   8  10
ATOM     10  C   UNL     1      45.030   4.211   9.793  0.00  0.00    +0.000 C 
BRANCH  10  11
ATOM     11  C   UNL     1      45.658   3.337   8.700  0.00  0.00    +0.000 A 
ATOM     12  C   UNL     1      46.279   3.951   7.598  0.00  0.00    +0.000 A 
ATOM     13  C   UNL     1      46.940   3.189   6.632  0.00  0.00    +0.000 A 
ATOM     14  C   UNL     1      47.000   1.803   6.753  0.00  0.00    +0.000 A 
ATOM     15  C   UNL     1      46.389   1.177   7.834  0.00  0.00    +0.000 A 
ATOM     16  C   UNL     1      45.720   1.937   8.796  0.00  0.00    +0.000 A 
ENDBRANCH  10  11
BRANCH  10  17
ATOM     17  C   UNL     1      44.815   3.465  11.137  0.00  0.00    +0.000 C 
BRANCH  17  18
ATOM     18  C   UNL     1      43.362   3.240  11.551  0.00  0.00    +0.000 C 
BRANCH  18  20
ATOM     19  C   UNL     1      42.872   5.014  13.006  0.00  0.00    +0.000 C 
ATOM     20  O   UNL     1      42.669   4.474  11.703  0.00  0.00    +0.000 OA
ENDBRANCH  18  20
ENDBRANCH  17  18
ENDBRANCH  10  17
ENDBRANCH   8  10
ENDBRANCH   7   8
ENDBRANCH   1   7
BRANCH   4  21
ATOM     21  C   UNL     1      48.696   8.336  14.984  0.00  0.00    +0.000 C 
BRANCH  21  22
ATOM     22  N   UNL     1      49.537   7.268  15.461  0.00  0.00    +0.000 N 
ATOM     23  C   UNL     1      49.869   7.160  16.784  0.00  0.00    +0.000 C 
ATOM     24  O   UNL     1      49.413   7.923  17.632  0.00  0.00    +0.000 OA
ATOM     25  H   UNL     1      50.042   6.726  14.771  0.00  0.00    +0.000 HD
BRANCH  23  26
ATOM     26  C   UNL     1      50.745   6.041  17.152  0.00  0.00    +0.000 A 
ATOM     27  C   UNL     1      52.032   6.314  17.598  0.00  0.00    +0.000 A 
ATOM     28  S   UNL     1      52.904   4.924  18.043  0.00  0.00    +0.000 S 
ATOM     29  C   UNL     1      51.613   3.912  17.604  0.00  0.00    +0.000 A 
ATOM     30  N   UNL     1      51.739   2.581  17.736  0.00  0.00    +0.000 NA
ATOM     31  C   UNL     1      50.655   1.918  17.335  0.00  0.00    +0.000 A 
ATOM     32  N   UNL     1      49.527   2.437  16.838  0.00  0.00    +0.000 NA
ATOM     33  C   UNL     1      49.446   3.778  16.721  0.00  0.00    +0.000 A 
ATOM     34  C   UNL     1      50.508   4.603  17.125  0.00  0.00    +0.000 A 
BRANCH  33  35
ATOM     35  O   UNL     1      48.294   4.335  16.200  0.00  0.00    +0.000 OA
ATOM     36  C   UNL     1      47.114   4.001  16.926  0.00  0.00    +0.000 C 
ENDBRANCH  33  35
ENDBRANCH  23  26
ENDBRANCH  21  22
ENDBRANCH   4  21
TORSDOF 11
ENDMDL
MODEL 3
REMARK VINA RESULT:    -6.995      1.642      2.163
REMARK INTER + INTRA:         -13.579
REMARK INTER:                 -12.112
REMARK INTRA:                  -1.466
REMARK UNBOUND:                -2.085
REMARK  Name = 
REMARK  13 active torsions:
REMARK  status: ('A' for Active; 'I' for Inactive)
REMARK    1  A    between atoms: C_1  and  O_2
REMARK    2  A    between atoms: O_2  and  C_3
REMARK    3  A    between atoms: C_3  and  C_4
REMARK    4  A    between atoms: C_4  and  C_5
REMARK    5  A    between atoms: C_5  and  N_6
REMARK    6  A    between atoms: C_5  and  C_29
REMARK    7  A    between atoms: N_6  and  C_7
REMARK    8  A    between atoms: C_7  and  C_8
REMARK    9  A    between atoms: C_11  and  C_12
REMARK   10  A    between atoms: C_12  and  N_13
REMARK   11  A    between atoms: C_14  and  C_16
REMARK   12  A    between atoms: C_23  and  O_24
REMARK   13  A    between atoms: O_24  and  C_25
REMARK                            x       y       z     vdW  Elec       q    Type
REMARK                         _______ _______ _______ _____ _____    ______ ____
ROOT
ATOM      1  C   UNL     1      46.317   6.301  11.609  0.00  0.00    +0.000 A 
ATOM      2  C   UNL     1      46.574   5.769  12.879  0.00  0.00    +0.000 A 
ATOM      3  C   UNL     1      47.733   6.119  13.576  0.00  0.00    +0.000 A 
ATOM      4  C   UNL     1      48.661   7.005  13.013  0.00  0.00    +0.000 A 
ATOM      5  C   UNL     1      48.422   7.511  11.729  0.00  0.00    +0.000 A 
ATOM      6  C   UNL     1      47.260   7.166  11.037  0.00  0.00    +0.000 A 
ENDROOT
BRANCH   1   7
ATOM      7  C   UNL     1      45.060   5.935  10.850  0.00  0.00    +0.000 C 
BRANCH   7   8
ATOM      8  N   UNL     1      45.369   5.279   9.583  0.00  0.00    +0.000 NA
ATOM      9  H   UNL     1      44.972   5.805   8.808  0.00  0.00    +0.000 HD
BRANCH   8  10
ATOM     10  C   UNL     1      44.932   3.876   9.488  0.00  0.00    +0.000 C 
BRANCH  10  11
ATOM     11  C   UNL     1      45.757   3.134   8.430  0.00  0.00    +0.000 A 
ATOM     12  C   UNL     1      45.973   1.751   8.569  0.00  0.00    +0.000 A 
ATOM     13  C   UNL     1      46.642   1.027   7.579  0.00  0.00    +0.000 A 
ATOM     14  C   UNL     1      47.099   1.669   6.430  0.00  0.00    +0.000 A 
ATOM     15  C   UNL     1      46.898   3.036   6.276  0.00  0.00    +0.000 A 
ATOM     16  C   UNL     1      46.238   3.763   7.270  0.00  0.00    +0.000 A 
ENDBRANCH  10  11
BRANCH  10  17
ATOM     17  C   UNL     1      44.839   3.125  10.843  0.00  0.00    +0.000 C 
BRANCH  17  18
ATOM     18  C   UNL     1      43.449   3.052  11.472  0.00  0.00    +0.000 C 
BRANCH  18  20
ATOM     19  C   UNL     1      43.069   4.519  13.264  0.00  0.00    +0.000 C 
ATOM     20  O   UNL     1      43.510   3.218  12.884  0.00  0.00    +0.000 OA
ENDBRANCH  18  20
ENDBRANCH  17  18
ENDBRANCH  10  17
ENDBRANCH   8  10
ENDBRANCH   7   8
ENDBRANCH   1   7
BRANCH   4  21
ATOM     21  C   UNL     1      49.917   7.377  13.753  0.00  0.00    +0.000 C 
BRANCH  21  22
ATOM     22  N   UNL     1      49.662   7.510  15.165  0.00  0.00    +0.000 N 
ATOM     23  C   UNL     1      50.629   7.231  16.093  0.00  0.00    +0.000 C 
ATOM     24  O   UNL     1      51.772   6.924  15.765  0.00  0.00    +0.000 OA
ATOM     25  H   UNL     1      48.698   7.610  15.459  0.00  0.00    +0.000 HD
BRANCH  23  26
ATOM     26  C   UNL     1      50.249   7.385  17.502  0.00  0.00    +0.000 A 
ATOM     27  C   UNL     1      51.015   8.207  18.318  0.00  0.00    +0.000 A 
ATOM     28  S   UNL     1      50.418   8.334  19.905  0.00  0.00    +0.000 S 
ATOM     29  C   UNL     1      49.152   7.254  19.569  0.00  0.00    +0.000 A 
ATOM     30  N   UNL     1      48.279   6.932  20.538  0.00  0.00    +0.000 NA
ATOM     31  C   UNL     1      47.355   6.062  20.133  0.00  0.00    +0.000 A 
ATOM     32  N   UNL     1      47.237   5.515  18.918  0.00  0.00    +0.000 NA
ATOM     33  C   UNL     1      48.136   5.866  17.977  0.00  0.00    +0.000 A 
ATOM     34  C   UNL     1      49.154   6.790  18.260  0.00  0.00    +0.000 A 
BRANCH  33  35
ATOM     35  O   UNL     1      48.039   5.304  16.718  0.00  0.00    +0.000 OA
ATOM     36  C   UNL     1      47.830   3.895  16.731  0.00  0.00    +0.000 C 
ENDBRANCH  33  35
ENDBRANCH  23  26
ENDBRANCH  21  22
ENDBRANCH   4  21
TORSDOF 11
ENDMDL
MODEL 4
REMARK VINA RESULT:    -6.892      2.313      2.512
REMARK INTER + INTRA:         -13.409
REMARK INTER:                 -11.900
REMARK INTRA:                  -1.509
REMARK UNBOUND:                -2.085
REMARK  Name = 
REMARK  13 active torsions:
REMARK  status: ('A' for Active; 'I' for Inactive)
REMARK    1  A    between atoms: C_1  and  O_2
REMARK    2  A    between atoms: O_2  and  C_3
REMARK    3  A    between atoms: C_3  and  C_4
REMARK    4  A    between atoms: C_4  and  C_5
REMARK    5  A    between atoms: C_5  and  N_6
REMARK    6  A    between atoms: C_5  and  C_29
REMARK    7  A    between atoms: N_6  and  C_7
REMARK    8  A    between atoms: C_7  and  C_8
REMARK    9  A    between atoms: C_11  and  C_12
REMARK   10  A    between atoms: C_12  and  N_13
REMARK   11  A    between atoms: C_14  and  C_16
REMARK   12  A    between atoms: C_23  and  O_24
REMARK   13  A    between atoms: O_24  and  C_25
REMARK                            x       y       z     vdW  Elec       q    Type
REMARK                         _______ _______ _______ _____ _____    ______ ____
ROOT
ATOM      1  C   UNL     1      45.720   6.765  11.491  0.00  0.00    +0.000 A 
ATOM      2  C   UNL     1      45.275   8.054  11.814  0.00  0.00    +0.000 A 
ATOM      3  C   UNL     1      46.025   8.874  12.661  0.00  0.00    +0.000 A 
ATOM      4  C   UNL     1      47.233   8.418  13.207  0.00  0.00    +0.000 A 
ATOM      5  C   UNL     1      47.660   7.117  12.913  0.00  0.00    +0.000 A 
ATOM      6  C   UNL     1      46.914   6.302  12.060  0.00  0.00    +0.000 A 
ENDROOT
BRANCH   1   7
ATOM      7  C   UNL     1      44.920   5.873  10.567  0.00  0.00    +0.000 C 
BRANCH   7   8
ATOM      8  N   UNL     1      45.443   4.510  10.549  0.00  0.00    +0.000 NA
ATOM      9  H   UNL     1      46.403   4.504  10.212  0.00  0.00    +0.000 HD
BRANCH   8  10
ATOM     10  C   UNL     1      44.649   3.552   9.762  0.00  0.00    +0.000 C 
BRANCH  10  11
ATOM     11  C   UNL     1      45.490   2.983   8.613  0.00  0.00    +0.000 A 
ATOM     12  C   UNL     1      45.961   3.848   7.609  0.00  0.00    +0.000 A 
ATOM     13  C   UNL     1      46.804   3.381   6.599  0.00  0.00    +0.000 A 
ATOM     14  C   UNL     1      47.199   2.045   6.577  0.00  0.00    +0.000 A 
ATOM     15  C   UNL     1      46.742   1.174   7.559  0.00  0.00    +0.000 A 
ATOM     16  C   UNL     1      45.890   1.637   8.565  0.00  0.00    +0.000 A 
ENDBRANCH  10  11
BRANCH  10  17
ATOM     17  C   UNL     1      43.919   2.464  10.595  0.00  0.00    +0.000 C 
BRANCH  17  18
ATOM     18  C   UNL     1      43.505   2.871  12.008  0.00  0.00    +0.000 C 
BRANCH  18  20
ATOM     19  C   UNL     1      42.987   4.777  13.274  0.00  0.00    +0.000 C 
ATOM     20  O   UNL     1      42.844   4.132  12.011  0.00  0.00    +0.000 OA
ENDBRANCH  18  20
ENDBRANCH  17  18
ENDBRANCH  10  17
ENDBRANCH   8  10
ENDBRANCH   7   8
ENDBRANCH   1   7
BRANCH   4  21
ATOM     21  C   UNL     1      48.038   9.290  14.130  0.00  0.00    +0.000 C 
BRANCH  21  22
ATOM     22  N   UNL     1      47.742   8.991  15.508  0.00  0.00    +0.000 N 
ATOM     23  C   UNL     1      48.365   9.655  16.531  0.00  0.00    +0.000 C 
ATOM     24  O   UNL     1      49.148  10.579  16.323  0.00  0.00    +0.000 OA
ATOM     25  H   UNL     1      47.224   8.144  15.702  0.00  0.00    +0.000 HD
BRANCH  23  26
ATOM     26  C   UNL     1      47.996   9.254  17.894  0.00  0.00    +0.000 A 
ATOM     27  C   UNL     1      47.605  10.232  18.799  0.00  0.00    +0.000 A 
ATOM     28  S   UNL     1      47.151   9.610  20.315  0.00  0.00    +0.000 S 
ATOM     29  C   UNL     1      47.513   8.024  19.829  0.00  0.00    +0.000 A 
ATOM     30  N   UNL     1      47.345   7.010  20.694  0.00  0.00    +0.000 NA
ATOM     31  C   UNL     1      47.687   5.830  20.179  0.00  0.00    +0.000 A 
ATOM     32  N   UNL     1      48.158   5.590  18.951  0.00  0.00    +0.000 NA
ATOM     33  C   UNL     1      48.311   6.637  18.117  0.00  0.00    +0.000 A 
ATOM     34  C   UNL     1      47.971   7.938  18.521  0.00  0.00    +0.000 A 
BRANCH  33  35
ATOM     35  O   UNL     1      48.807   6.413  16.846  0.00  0.00    +0.000 OA
ATOM     36  C   UNL     1      48.265   5.256  16.213  0.00  0.00    +0.000 C 
ENDBRANCH  33  35
ENDBRANCH  23  26
ENDBRANCH  21  22
ENDBRANCH   4  21
TORSDOF 11
ENDMDL
MODEL 5
REMARK VINA RESULT:    -6.518      1.759      2.385
REMARK INTER + INTRA:         -12.794
REMARK INTER:                 -11.174
REMARK INTRA:                  -1.620
REMARK UNBOUND:                -2.085
REMARK  Name = 
REMARK  13 active torsions:
REMARK  status: ('A' for Active; 'I' for Inactive)
REMARK    1  A    between atoms: C_1  and  O_2
REMARK    2  A    between atoms: O_2  and  C_3
REMARK    3  A    between atoms: C_3  and  C_4
REMARK    4  A    between atoms: C_4  and  C_5
REMARK    5  A    between atoms: C_5  and  N_6
REMARK    6  A    between atoms: C_5  and  C_29
REMARK    7  A    between atoms: N_6  and  C_7
REMARK    8  A    between atoms: C_7  and  C_8
REMARK    9  A    between atoms: C_11  and  C_12
REMARK   10  A    between atoms: C_12  and  N_13
REMARK   11  A    between atoms: C_14  and  C_16
REMARK   12  A    between atoms: C_23  and  O_24
REMARK   13  A    between atoms: O_24  and  C_25
REMARK                            x       y       z     vdW  Elec       q    Type
REMARK                         _______ _______ _______ _____ _____    ______ ____
ROOT
ATOM      1  C   UNL     1      46.725   6.844  11.682  0.00  0.00    +0.000 A 
ATOM      2  C   UNL     1      45.888   7.727  12.375  0.00  0.00    +0.000 A 
ATOM      3  C   UNL     1      46.402   8.562  13.371  0.00  0.00    +0.000 A 
ATOM      4  C   UNL     1      47.764   8.526  13.696  0.00  0.00    +0.000 A 
ATOM      5  C   UNL     1      48.596   7.618  13.028  0.00  0.00    +0.000 A 
ATOM      6  C   UNL     1      48.083   6.790  12.028  0.00  0.00    +0.000 A 
ENDROOT
BRANCH   1   7
ATOM      7  C   UNL     1      46.180   5.942  10.597  0.00  0.00    +0.000 C 
BRANCH   7   8
ATOM      8  N   UNL     1      44.748   6.146  10.396  0.00  0.00    +0.000 NA
ATOM      9  H   UNL     1      44.329   6.552  11.229  0.00  0.00    +0.000 HD
BRANCH   8  10
ATOM     10  C   UNL     1      43.997   4.937  10.018  0.00  0.00    +0.000 C 
BRANCH  10  11
ATOM     11  C   UNL     1      44.891   3.988   9.211  0.00  0.00    +0.000 A 
ATOM     12  C   UNL     1      44.890   2.614   9.513  0.00  0.00    +0.000 A 
ATOM     13  C   UNL     1      45.621   1.710   8.740  0.00  0.00    +0.000 A 
ATOM     14  C   UNL     1      46.360   2.159   7.647  0.00  0.00    +0.000 A 
ATOM     15  C   UNL     1      46.377   3.513   7.335  0.00  0.00    +0.000 A 
ATOM     16  C   UNL     1      45.654   4.420   8.113  0.00  0.00    +0.000 A 
ENDBRANCH  10  11
BRANCH  10  17
ATOM     17  C   UNL     1      43.245   4.240  11.183  0.00  0.00    +0.000 C 
BRANCH  17  18
ATOM     18  C   UNL     1      42.570   5.168  12.191  0.00  0.00    +0.000 C 
BRANCH  18  20
ATOM     19  C   UNL     1      44.415   4.446  13.447  0.00  0.00    +0.000 C 
ATOM     20  O   UNL     1      43.435   5.466  13.282  0.00  0.00    +0.000 OA
ENDBRANCH  18  20
ENDBRANCH  17  18
ENDBRANCH  10  17
ENDBRANCH   8  10
ENDBRANCH   7   8
ENDBRANCH   1   7
BRANCH   4  21
ATOM     21  C   UNL     1      48.322   9.413  14.775  0.00  0.00    +0.000 C 
BRANCH  21  22
ATOM     22  N   UNL     1      49.046   8.640  15.753  0.00  0.00    +0.000 N 
ATOM     23  C   UNL     1      48.687   8.647  17.074  0.00  0.00    +0.000 C 
ATOM     24  O   UNL     1      47.695   9.253  17.473  0.00  0.00    +0.000 OA
ATOM     25  H   UNL     1      49.943   8.261  15.478  0.00  0.00    +0.000 HD
BRANCH  23  26
ATOM     26  C   UNL     1      49.507   7.835  17.981  0.00  0.00    +0.000 A 
ATOM     27  C   UNL     1      50.022   8.423  19.129  0.00  0.00    +0.000 A 
ATOM     28  S   UNL     1      50.897   7.345  20.109  0.00  0.00    +0.000 S 
ATOM     29  C   UNL     1      50.663   6.074  19.007  0.00  0.00    +0.000 A 
ATOM     30  N   UNL     1      51.187   4.865  19.267  0.00  0.00    +0.000 NA
ATOM     31  C   UNL     1      50.938   3.976  18.306  0.00  0.00    +0.000 A 
ATOM     32  N   UNL     1      50.255   4.180  17.174  0.00  0.00    +0.000 NA
ATOM     33  C   UNL     1      49.748   5.409  16.954  0.00  0.00    +0.000 A 
ATOM     34  C   UNL     1      49.917   6.439  17.893  0.00  0.00    +0.000 A 
BRANCH  33  35
ATOM     35  O   UNL     1      49.048   5.644  15.785  0.00  0.00    +0.000 OA
ATOM     36  C   UNL     1      47.739   5.081  15.775  0.00  0.00    +0.000 C 
ENDBRANCH  33  35
ENDBRANCH  23  26
ENDBRANCH  21  22
ENDBRANCH   4  21
TORSDOF 11
ENDMDL
MODEL 6
REMARK VINA RESULT:    -5.984      2.893      4.191
REMARK INTER + INTRA:         -11.916
REMARK INTER:                 -10.367
REMARK INTRA:                  -1.550
REMARK UNBOUND:                -2.085
REMARK  Name = 
REMARK  13 active torsions:
REMARK  status: ('A' for Active; 'I' for Inactive)
REMARK    1  A    between atoms: C_1  and  O_2
REMARK    2  A    between atoms: O_2  and  C_3
REMARK    3  A    between atoms: C_3  and  C_4
REMARK    4  A    between atoms: C_4  and  C_5
REMARK    5  A    between atoms: C_5  and  N_6
REMARK    6  A    between atoms: C_5  and  C_29
REMARK    7  A    between atoms: N_6  and  C_7
REMARK    8  A    between atoms: C_7  and  C_8
REMARK    9  A    between atoms: C_11  and  C_12
REMARK   10  A    between atoms: C_12  and  N_13
REMARK   11  A    between atoms: C_14  and  C_16
REMARK   12  A    between atoms: C_23  and  O_24
REMARK   13  A    between atoms: O_24  and  C_25
REMARK                            x       y       z     vdW  Elec       q    Type
REMARK                         _______ _______ _______ _____ _____    ______ ____
ROOT
ATOM      1  C   UNL     1      47.016   4.504  14.177  0.00  0.00    +0.000 A 
ATOM      2  C   UNL     1      47.141   4.123  15.519  0.00  0.00    +0.000 A 
ATOM      3  C   UNL     1      47.846   4.922  16.423  0.00  0.00    +0.000 A 
ATOM      4  C   UNL     1      48.444   6.117  16.000  0.00  0.00    +0.000 A 
ATOM      5  C   UNL     1      48.349   6.481  14.650  0.00  0.00    +0.000 A 
ATOM      6  C   UNL     1      47.638   5.685  13.750  0.00  0.00    +0.000 A 
ENDROOT
BRANCH   1   7
ATOM      7  C   UNL     1      46.247   3.650  13.192  0.00  0.00    +0.000 C 
BRANCH   7   8
ATOM      8  N   UNL     1      44.959   4.247  12.853  0.00  0.00    +0.000 NA
ATOM      9  H   UNL     1      44.268   3.520  12.681  0.00  0.00    +0.000 HD
BRANCH   8  10
ATOM     10  C   UNL     1      44.986   5.169  11.705  0.00  0.00    +0.000 C 
BRANCH  10  11
ATOM     11  C   UNL     1      45.003   4.379  10.390  0.00  0.00    +0.000 A 
ATOM     12  C   UNL     1      45.652   4.923   9.268  0.00  0.00    +0.000 A 
ATOM     13  C   UNL     1      45.766   4.193   8.082  0.00  0.00    +0.000 A 
ATOM     14  C   UNL     1      45.242   2.905   8.000  0.00  0.00    +0.000 A 
ATOM     15  C   UNL     1      44.594   2.351   9.098  0.00  0.00    +0.000 A 
ATOM     16  C   UNL     1      44.471   3.084  10.281  0.00  0.00    +0.000 A 
ENDBRANCH  10  11
BRANCH  10  17
ATOM     17  C   UNL     1      43.915   6.292  11.741  0.00  0.00    +0.000 C 
BRANCH  17  18
ATOM     18  C   UNL     1      44.388   7.678  11.307  0.00  0.00    +0.000 C 
BRANCH  18  20
ATOM     19  C   UNL     1      45.669   8.777  12.937  0.00  0.00    +0.000 C 
ATOM     20  O   UNL     1      45.704   7.949  11.778  0.00  0.00    +0.000 OA
ENDBRANCH  18  20
ENDBRANCH  17  18
ENDBRANCH  10  17
ENDBRANCH   8  10
ENDBRANCH   7   8
ENDBRANCH   1   7
BRANCH   4  21
ATOM     21  C   UNL     1      49.214   6.976  16.965  0.00  0.00    +0.000 C 
BRANCH  21  22
ATOM     22  N   UNL     1      50.321   6.247  17.530  0.00  0.00    +0.000 N 
ATOM     23  C   UNL     1      50.317   5.848  18.840  0.00  0.00    +0.000 C 
ATOM     24  O   UNL     1      49.345   6.030  19.570  0.00  0.00    +0.000 OA
ATOM     25  H   UNL     1      51.183   6.220  17.000  0.00  0.00    +0.000 HD
BRANCH  23  26
ATOM     26  C   UNL     1      51.505   5.128  19.310  0.00  0.00    +0.000 A 
ATOM     27  C   UNL     1      52.256   5.672  20.344  0.00  0.00    +0.000 A 
ATOM     28  S   UNL     1      53.564   4.696  20.820  0.00  0.00    +0.000 S 
ATOM     29  C   UNL     1      53.203   3.543  19.627  0.00  0.00    +0.000 A 
ATOM     30  N   UNL     1      53.974   2.450  19.505  0.00  0.00    +0.000 NA
ATOM     31  C   UNL     1      53.581   1.648  18.517  0.00  0.00    +0.000 A 
ATOM     32  N   UNL     1      52.549   1.834  17.686  0.00  0.00    +0.000 NA
ATOM     33  C   UNL     1      51.803   2.945  17.845  0.00  0.00    +0.000 A 
ATOM     34  C   UNL     1      52.091   3.870  18.861  0.00  0.00    +0.000 A 
BRANCH  33  35
ATOM     35  O   UNL     1      50.737   3.162  16.991  0.00  0.00    +0.000 OA
ATOM     36  C   UNL     1      49.835   2.062  16.905  0.00  0.00    +0.000 C 
ENDBRANCH  33  35
ENDBRANCH  23  26
ENDBRANCH  21  22
ENDBRANCH   4  21
TORSDOF 11
ENDMDL
MODEL 7
REMARK VINA RESULT:    -5.935      2.949      5.139
REMARK INTER + INTRA:         -11.836
REMARK INTER:                  -9.911
REMARK INTRA:                  -1.925
REMARK UNBOUND:                -2.085
REMARK  Name = 
REMARK  13 active torsions:
REMARK  status: ('A' for Active; 'I' for Inactive)
REMARK    1  A    between atoms: C_1  and  O_2
REMARK    2  A    between atoms: O_2  and  C_3
REMARK    3  A    between atoms: C_3  and  C_4
REMARK    4  A    between atoms: C_4  and  C_5
REMARK    5  A    between atoms: C_5  and  N_6
REMARK    6  A    between atoms: C_5  and  C_29
REMARK    7  A    between atoms: N_6  and  C_7
REMARK    8  A    between atoms: C_7  and  C_8
REMARK    9  A    between atoms: C_11  and  C_12
REMARK   10  A    between atoms: C_12  and  N_13
REMARK   11  A    between atoms: C_14  and  C_16
REMARK   12  A    between atoms: C_23  and  O_24
REMARK   13  A    between atoms: O_24  and  C_25
REMARK                            x       y       z     vdW  Elec       q    Type
REMARK                         _______ _______ _______ _____ _____    ______ ____
ROOT
ATOM      1  C   UNL     1      47.131   5.580  14.043  0.00  0.00    +0.000 A 
ATOM      2  C   UNL     1      47.322   5.140  15.359  0.00  0.00    +0.000 A 
ATOM      3  C   UNL     1      48.375   5.638  16.130  0.00  0.00    +0.000 A 
ATOM      4  C   UNL     1      49.262   6.584  15.597  0.00  0.00    +0.000 A 
ATOM      5  C   UNL     1      49.093   6.998  14.270  0.00  0.00    +0.000 A 
ATOM      6  C   UNL     1      48.036   6.505  13.503  0.00  0.00    +0.000 A 
ENDROOT
BRANCH   1   7
ATOM      7  C   UNL     1      45.989   5.054  13.203  0.00  0.00    +0.000 C 
BRANCH   7   8
ATOM      8  N   UNL     1      44.894   6.016  13.119  0.00  0.00    +0.000 NA
ATOM      9  H   UNL     1      44.058   5.638  13.558  0.00  0.00    +0.000 HD
BRANCH   8  10
ATOM     10  C   UNL     1      44.563   6.461  11.755  0.00  0.00    +0.000 C 
BRANCH  10  11
ATOM     11  C   UNL     1      44.812   7.968  11.614  0.00  0.00    +0.000 A 
ATOM     12  C   UNL     1      43.844   8.771  10.986  0.00  0.00    +0.000 A 
ATOM     13  C   UNL     1      43.996  10.159  10.921  0.00  0.00    +0.000 A 
ATOM     14  C   UNL     1      45.112  10.768  11.490  0.00  0.00    +0.000 A 
ATOM     15  C   UNL     1      46.081   9.991  12.112  0.00  0.00    +0.000 A 
ATOM     16  C   UNL     1      45.935   8.603  12.169  0.00  0.00    +0.000 A 
ENDBRANCH  10  11
BRANCH  10  17
ATOM     17  C   UNL     1      45.197   5.618  10.617  0.00  0.00    +0.000 C 
BRANCH  17  18
ATOM     18  C   UNL     1      44.367   4.437  10.119  0.00  0.00    +0.000 C 
BRANCH  18  20
ATOM     19  C   UNL     1      43.364   2.935  11.617  0.00  0.00    +0.000 C 
ATOM     20  O   UNL     1      43.247   4.197  10.965  0.00  0.00    +0.000 OA
ENDBRANCH  18  20
ENDBRANCH  17  18
ENDBRANCH  10  17
ENDBRANCH   8  10
ENDBRANCH   7   8
ENDBRANCH   1   7
BRANCH   4  21
ATOM     21  C   UNL     1      50.405   7.115  16.418  0.00  0.00    +0.000 C 
BRANCH  21  22
ATOM     22  N   UNL     1      51.263   6.044  16.859  0.00  0.00    +0.000 N 
ATOM     23  C   UNL     1      51.323   5.677  18.176  0.00  0.00    +0.000 C 
ATOM     24  O   UNL     1      50.603   6.194  19.027  0.00  0.00    +0.000 OA
ATOM     25  H   UNL     1      51.967   5.712  16.212  0.00  0.00    +0.000 HD
BRANCH  23  26
ATOM     26  C   UNL     1      52.244   4.585  18.511  0.00  0.00    +0.000 A 
ATOM     27  C   UNL     1      53.367   4.864  19.280  0.00  0.00    +0.000 A 
ATOM     28  S   UNL     1      54.303   3.490  19.636  0.00  0.00    +0.000 S 
ATOM     29  C   UNL     1      53.271   2.489  18.732  0.00  0.00    +0.000 A 
ATOM     30  N   UNL     1      53.539   1.177  18.633  0.00  0.00    +0.000 NA
ATOM     31  C   UNL     1      52.655   0.525  17.878  0.00  0.00    +0.000 A 
ATOM     32  N   UNL     1      51.593   1.041  17.248  0.00  0.00    +0.000 NA
ATOM     33  C   UNL     1      51.365   2.364  17.375  0.00  0.00    +0.000 A 
ATOM     34  C   UNL     1      52.205   3.170  18.158  0.00  0.00    +0.000 A 
BRANCH  33  35
ATOM     35  O   UNL     1      50.280   2.920  16.723  0.00  0.00    +0.000 OA
ATOM     36  C   UNL     1      49.095   2.131  16.802  0.00  0.00    +0.000 C 
ENDBRANCH  33  35
ENDBRANCH  23  26
ENDBRANCH  21  22
ENDBRANCH   4  21
TORSDOF 11
ENDMDL
MODEL 8
REMARK VINA RESULT:    -5.912      4.343      9.847
REMARK INTER + INTRA:         -11.799
REMARK INTER:                 -10.132
REMARK INTRA:                  -1.667
REMARK UNBOUND:                -2.085
REMARK  Name = 
REMARK  13 active torsions:
REMARK  status: ('A' for Active; 'I' for Inactive)
REMARK    1  A    between atoms: C_1  and  O_2
REMARK    2  A    between atoms: O_2  and  C_3
REMARK    3  A    between atoms: C_3  and  C_4
REMARK    4  A    between atoms: C_4  and  C_5
REMARK    5  A    between atoms: C_5  and  N_6
REMARK    6  A    between atoms: C_5  and  C_29
REMARK    7  A    between atoms: N_6  and  C_7
REMARK    8  A    between atoms: C_7  and  C_8
REMARK    9  A    between atoms: C_11  and  C_12
REMARK   10  A    between atoms: C_12  and  N_13
REMARK   11  A    between atoms: C_14  and  C_16
REMARK   12  A    between atoms: C_23  and  O_24
REMARK   13  A    between atoms: O_24  and  C_25
REMARK                            x       y       z     vdW  Elec       q    Type
REMARK                         _______ _______ _______ _____ _____    ______ ____
ROOT
ATOM      1  C   UNL     1      51.295   3.849  17.941  0.00  0.00    +0.000 A 
ATOM      2  C   UNL     1      50.855   2.623  17.427  0.00  0.00    +0.000 A 
ATOM      3  C   UNL     1      49.529   2.456  17.019  0.00  0.00    +0.000 A 
ATOM      4  C   UNL     1      48.615   3.514  17.121  0.00  0.00    +0.000 A 
ATOM      5  C   UNL     1      49.045   4.730  17.668  0.00  0.00    +0.000 A 
ATOM      6  C   UNL     1      50.372   4.897  18.068  0.00  0.00    +0.000 A 
ENDROOT
BRANCH   1   7
ATOM      7  C   UNL     1      52.730   4.042  18.377  0.00  0.00    +0.000 C 
BRANCH   7   8
ATOM      8  N   UNL     1      53.054   3.224  19.542  0.00  0.00    +0.000 NA
ATOM      9  H   UNL     1      52.865   3.739  20.399  0.00  0.00    +0.000 HD
BRANCH   8  10
ATOM     10  C   UNL     1      54.435   2.716  19.579  0.00  0.00    +0.000 C 
BRANCH  10  11
ATOM     11  C   UNL     1      54.711   1.838  18.352  0.00  0.00    +0.000 A 
ATOM     12  C   UNL     1      53.976   0.653  18.173  0.00  0.00    +0.000 A 
ATOM     13  C   UNL     1      54.136  -0.122  17.022  0.00  0.00    +0.000 A 
ATOM     14  C   UNL     1      55.026   0.276  16.027  0.00  0.00    +0.000 A 
ATOM     15  C   UNL     1      55.764   1.443  16.187  0.00  0.00    +0.000 A 
ATOM     16  C   UNL     1      55.612   2.215  17.342  0.00  0.00    +0.000 A 
ENDBRANCH  10  11
BRANCH  10  17
ATOM     17  C   UNL     1      55.524   3.793  19.829  0.00  0.00    +0.000 C 
BRANCH  17  18
ATOM     18  C   UNL     1      55.254   4.760  20.980  0.00  0.00    +0.000 C 
BRANCH  18  20
ATOM     19  C   UNL     1      55.727   6.189  19.179  0.00  0.00    +0.000 C 
ATOM     20  O   UNL     1      55.387   6.115  20.561  0.00  0.00    +0.000 OA
ENDBRANCH  18  20
ENDBRANCH  17  18
ENDBRANCH  10  17
ENDBRANCH   8  10
ENDBRANCH   7   8
ENDBRANCH   1   7
BRANCH   4  21
ATOM     21  C   UNL     1      47.183   3.338  16.696  0.00  0.00    +0.000 C 
BRANCH  21  22
ATOM     22  N   UNL     1      46.779   4.395  15.804  0.00  0.00    +0.000 N 
ATOM     23  C   UNL     1      46.870   4.254  14.445  0.00  0.00    +0.000 C 
ATOM     24  O   UNL     1      47.231   3.202  13.925  0.00  0.00    +0.000 OA
ATOM     25  H   UNL     1      46.626   5.312  16.205  0.00  0.00    +0.000 HD
BRANCH  23  26
ATOM     26  C   UNL     1      46.445   5.404  13.637  0.00  0.00    +0.000 A 
ATOM     27  C   UNL     1      47.288   6.504  13.538  0.00  0.00    +0.000 A 
ATOM     28  S   UNL     1      46.689   7.727  12.521  0.00  0.00    +0.000 S 
ATOM     29  C   UNL     1      45.264   6.853  12.224  0.00  0.00    +0.000 A 
ATOM     30  N   UNL     1      44.320   7.375  11.424  0.00  0.00    +0.000 NA
ATOM     31  C   UNL     1      43.254   6.585  11.300  0.00  0.00    +0.000 A 
ATOM     32  N   UNL     1      43.059   5.394  11.876  0.00  0.00    +0.000 NA
ATOM     33  C   UNL     1      44.033   4.910  12.672  0.00  0.00    +0.000 A 
ATOM     34  C   UNL     1      45.221   5.627  12.876  0.00  0.00    +0.000 A 
BRANCH  33  35
ATOM     35  O   UNL     1      43.847   3.685  13.285  0.00  0.00    +0.000 OA
ATOM     36  C   UNL     1      43.582   2.620  12.375  0.00  0.00    +0.000 C 
ENDBRANCH  33  35
ENDBRANCH  23  26
ENDBRANCH  21  22
ENDBRANCH   4  21
TORSDOF 11
ENDMDL
MODEL 9
REMARK VINA RESULT:    -5.796      3.568      8.477
REMARK INTER + INTRA:         -11.607
REMARK INTER:                  -9.070
REMARK INTRA:                  -2.538
REMARK UNBOUND:                -2.085
REMARK  Name = 
REMARK  13 active torsions:
REMARK  status: ('A' for Active; 'I' for Inactive)
REMARK    1  A    between atoms: C_1  and  O_2
REMARK    2  A    between atoms: O_2  and  C_3
REMARK    3  A    between atoms: C_3  and  C_4
REMARK    4  A    between atoms: C_4  and  C_5
REMARK    5  A    between atoms: C_5  and  N_6
REMARK    6  A    between atoms: C_5  and  C_29
REMARK    7  A    between atoms: N_6  and  C_7
REMARK    8  A    between atoms: C_7  and  C_8
REMARK    9  A    between atoms: C_11  and  C_12
REMARK   10  A    between atoms: C_12  and  N_13
REMARK   11  A    between atoms: C_14  and  C_16
REMARK   12  A    between atoms: C_23  and  O_24
REMARK   13  A    between atoms: O_24  and  C_25
REMARK                            x       y       z     vdW  Elec       q    Type
REMARK                         _______ _______ _______ _____ _____    ______ ____
ROOT
ATOM      1  C   UNL     1      50.792   7.148  17.733  0.00  0.00    +0.000 A 
ATOM      2  C   UNL     1      51.252   6.927  16.429  0.00  0.00    +0.000 A 
ATOM      3  C   UNL     1      50.506   7.355  15.328  0.00  0.00    +0.000 A 
ATOM      4  C   UNL     1      49.280   8.010  15.511  0.00  0.00    +0.000 A 
ATOM      5  C   UNL     1      48.801   8.199  16.814  0.00  0.00    +0.000 A 
ATOM      6  C   UNL     1      49.552   7.778  17.913  0.00  0.00    +0.000 A 
ENDROOT
BRANCH   1   7
ATOM      7  C   UNL     1      51.597   6.696  18.931  0.00  0.00    +0.000 C 
BRANCH   7   8
ATOM      8  N   UNL     1      50.842   5.767  19.768  0.00  0.00    +0.000 NA
ATOM      9  H   UNL     1      51.203   5.775  20.719  0.00  0.00    +0.000 HD
BRANCH   8  10
ATOM     10  C   UNL     1      50.806   4.379  19.277  0.00  0.00    +0.000 C 
BRANCH  10  11
ATOM     11  C   UNL     1      49.514   4.129  18.490  0.00  0.00    +0.000 A 
ATOM     12  C   UNL     1      48.333   4.789  18.874  0.00  0.00    +0.000 A 
ATOM     13  C   UNL     1      47.161   4.655  18.126  0.00  0.00    +0.000 A 
ATOM     14  C   UNL     1      47.150   3.867  16.977  0.00  0.00    +0.000 A 
ATOM     15  C   UNL     1      48.306   3.203  16.583  0.00  0.00    +0.000 A 
ATOM     16  C   UNL     1      49.476   3.329  17.336  0.00  0.00    +0.000 A 
ENDBRANCH  10  11
BRANCH  10  17
ATOM     17  C   UNL     1      52.086   3.913  18.534  0.00  0.00    +0.000 C 
BRANCH  17  18
ATOM     18  C   UNL     1      53.191   3.328  19.411  0.00  0.00    +0.000 C 
BRANCH  18  20
ATOM     19  C   UNL     1      52.717   1.585  17.913  0.00  0.00    +0.000 C 
ATOM     20  O   UNL     1      53.532   2.007  19.003  0.00  0.00    +0.000 OA
ENDBRANCH  18  20
ENDBRANCH  17  18
ENDBRANCH  10  17
ENDBRANCH   8  10
ENDBRANCH   7   8
ENDBRANCH   1   7
BRANCH   4  21
ATOM     21  C   UNL     1      48.465   8.462  14.331  0.00  0.00    +0.000 C 
BRANCH  21  22
ATOM     22  N   UNL     1      47.452   7.491  14.003  0.00  0.00    +0.000 N 
ATOM     23  C   UNL     1      47.717   6.441  13.165  0.00  0.00    +0.000 C 
ATOM     24  O   UNL     1      48.842   6.240  12.714  0.00  0.00    +0.000 OA
ATOM     25  H   UNL     1      46.494   7.718  14.236  0.00  0.00    +0.000 HD
BRANCH  23  26
ATOM     26  C   UNL     1      46.605   5.525  12.890  0.00  0.00    +0.000 A 
ATOM     27  C   UNL     1      46.747   4.180  13.206  0.00  0.00    +0.000 A 
ATOM     28  S   UNL     1      45.356   3.257  12.887  0.00  0.00    +0.000 S 
ATOM     29  C   UNL     1      44.538   4.610  12.267  0.00  0.00    +0.000 A 
ATOM     30  N   UNL     1      43.284   4.474  11.807  0.00  0.00    +0.000 NA
ATOM     31  C   UNL     1      42.781   5.614  11.336  0.00  0.00    +0.000 A 
ATOM     32  N   UNL     1      43.387   6.805  11.282  0.00  0.00    +0.000 NA
ATOM     33  C   UNL     1      44.647   6.894  11.754  0.00  0.00    +0.000 A 
ATOM     34  C   UNL     1      45.295   5.775  12.299  0.00  0.00    +0.000 A 
BRANCH  33  35
ATOM     35  O   UNL     1      45.297   8.113  11.698  0.00  0.00    +0.000 OA
ATOM     36  C   UNL     1      44.446   9.204  11.354  0.00  0.00    +0.000 C 
ENDBRANCH  33  35
ENDBRANCH  23  26
ENDBRANCH  21  22
ENDBRANCH   4  21
TORSDOF 11
ENDMDL
