MODEL 1
REMARK VINA RESULT:    -8.861      0.000      0.000
REMARK INTER + INTRA:         -13.101
REMARK INTER:                 -12.228
REMARK INTRA:                  -0.873
REMARK UNBOUND:                -0.873
REMARK  Name = 
REMARK  9 active torsions:
REMARK  status: ('A' for Active; 'I' for Inactive)
REMARK    1  A    between atoms: C_1  and  C_2
REMARK    2  A    between atoms: C_4  and  O_5
REMARK    3  A    between atoms: O_5  and  C_6
REMARK    4  A    between atoms: C_6  and  C_7
REMARK    5  A    between atoms: C_7  and  C_8
REMARK    6  A    between atoms: C_7  and  C_10
REMARK    7  A    between atoms: C_14  and  C_15
REMARK    8  A    between atoms: C_21  and  C_22
REMARK    9  A    between atoms: C_22  and  N_23
REMARK                            x       y       z     vdW  Elec       q    Type
REMARK                         _______ _______ _______ _____ _____    ______ ____
ROOT
ATOM      1  C   UNL     1      43.779   4.336  12.169  0.00  0.00    +0.000 C 
ATOM      2  C   UNL     1      43.077   5.462  11.408  0.00  0.00    +0.000 C 
ATOM      3  F   UNL     1      42.956   4.025  13.230  0.00  0.00    +0.000 F 
ENDROOT
BRANCH   1   4
ATOM      4  C   UNL     1      45.163   4.753  12.660  0.00  0.00    +0.000 A 
ATOM      5  C   UNL     1      45.856   5.740  11.977  0.00  0.00    +0.000 A 
ATOM      6  C   UNL     1      47.096   6.083  12.467  0.00  0.00    +0.000 A 
ATOM      7  N   UNL     1      47.640   5.528  13.559  0.00  0.00    +0.000 NA
ATOM      8  C   UNL     1      46.893   4.591  14.170  0.00  0.00    +0.000 A 
ATOM      9  N   UNL     1      45.670   4.167  13.771  0.00  0.00    +0.000 NA
BRANCH   8  10
ATOM     10  C   UNL     1      47.453   3.957  15.424  0.00  0.00    +0.000 C 
ATOM     11  N   UNL     1      47.301   4.675  16.586  0.00  0.00    +0.000 N 
ATOM     12  O   UNL     1      48.024   2.871  15.444  0.00  0.00    +0.000 OA
ATOM     13  H   UNL     1      46.874   5.596  16.569  0.00  0.00    +0.000 HD
ATOM     14  H   UNL     1      47.707   4.310  17.435  0.00  0.00    +0.000 HD
ENDBRANCH   8  10
ENDBRANCH   1   4
BRANCH   1  15
ATOM     15  C   UNL     1      43.871   3.064  11.313  0.00  0.00    +0.000 C 
BRANCH  15  16
ATOM     16  O   UNL     1      43.693   3.336   9.921  0.00  0.00    +0.000 OA
BRANCH  16  20
ATOM     17  C   UNL     1      46.732   0.076   7.789  0.00  0.00    +0.000 C 
ATOM     18  C   UNL     1      46.300   1.507   7.980  0.00  0.00    +0.000 A 
ATOM     19  C   UNL     1      45.214   1.738   8.846  0.00  0.00    +0.000 A 
ATOM     20  C   UNL     1      44.746   3.027   9.105  0.00  0.00    +0.000 A 
ATOM     21  C   UNL     1      45.377   4.106   8.501  0.00  0.00    +0.000 A 
ATOM     22  C   UNL     1      46.460   3.897   7.641  0.00  0.00    +0.000 A 
ATOM     23  C   UNL     1      46.938   2.601   7.363  0.00  0.00    +0.000 A 
BRANCH  23  24
ATOM     24  C   UNL     1      48.145   2.473   6.459  0.00  0.00    +0.000 C 
BRANCH  24  25
ATOM     25  N   UNL     1      47.840   2.792   5.067  0.00  0.00    +0.000 NA
ATOM     26  H   UNL     1      48.500   2.303   4.462  0.00  0.00    +0.000 HD
ATOM     27  H   UNL     1      47.988   3.786   4.911  0.00  0.00    +0.000 HD
ENDBRANCH  24  25
ENDBRANCH  23  24
ENDBRANCH  16  20
ENDBRANCH  15  16
ENDBRANCH   1  15
TORSDOF 7
ENDMDL
MODEL 2
REMARK VINA RESULT:    -8.507      1.209      1.788
REMARK INTER + INTRA:         -12.612
REMARK INTER:                 -11.781
REMARK INTRA:                  -0.831
REMARK UNBOUND:                -0.873
REMARK  Name = 
REMARK  9 active torsions:
REMARK  status: ('A' for Active; 'I' for Inactive)
REMARK    1  A    between atoms: C_1  and  C_2
REMARK    2  A    between atoms: C_4  and  O_5
REMARK    3  A    between atoms: O_5  and  C_6
REMARK    4  A    between atoms: C_6  and  C_7
REMARK    5  A    between atoms: C_7  and  C_8
REMARK    6  A    between atoms: C_7  and  C_10
REMARK    7  A    between atoms: C_14  and  C_15
REMARK    8  A    between atoms: C_21  and  C_22
REMARK    9  A    between atoms: C_22  and  N_23
REMARK                            x       y       z     vdW  Elec       q    Type
REMARK                         _______ _______ _______ _____ _____    ______ ____
ROOT
ATOM      1  C   UNL     1      43.644   5.409  12.179  0.00  0.00    +0.000 C 
ATOM      2  C   UNL     1      43.254   6.701  11.459  0.00  0.00    +0.000 C 
ATOM      3  F   UNL     1      42.792   5.305  13.258  0.00  0.00    +0.000 F 
ENDROOT
BRANCH   1   4
ATOM      4  C   UNL     1      45.100   5.426  12.638  0.00  0.00    +0.000 A 
ATOM      5  C   UNL     1      46.000   6.270  12.006  0.00  0.00    +0.000 A 
ATOM      6  C   UNL     1      47.298   6.251  12.463  0.00  0.00    +0.000 A 
ATOM      7  N   UNL     1      47.714   5.482  13.480  0.00  0.00    +0.000 NA
ATOM      8  C   UNL     1      46.771   4.706  14.047  0.00  0.00    +0.000 A 
ATOM      9  N   UNL     1      45.472   4.635  13.672  0.00  0.00    +0.000 NA
BRANCH   8  10
ATOM     10  C   UNL     1      47.187   3.843  15.218  0.00  0.00    +0.000 C 
ATOM     11  N   UNL     1      46.790   4.276  16.460  0.00  0.00    +0.000 N 
ATOM     12  O   UNL     1      47.846   2.814  15.108  0.00  0.00    +0.000 OA
ATOM     13  H   UNL     1      46.288   5.152  16.564  0.00  0.00    +0.000 HD
ATOM     14  H   UNL     1      47.092   3.755  17.271  0.00  0.00    +0.000 HD
ENDBRANCH   8  10
ENDBRANCH   1   4
BRANCH   1  15
ATOM     15  C   UNL     1      43.369   4.181  11.299  0.00  0.00    +0.000 C 
BRANCH  15  16
ATOM     16  O   UNL     1      43.514   4.471   9.907  0.00  0.00    +0.000 OA
BRANCH  16  20
ATOM     17  C   UNL     1      47.038   3.895   6.493  0.00  0.00    +0.000 C 
ATOM     18  C   UNL     1      46.172   3.294   7.570  0.00  0.00    +0.000 A 
ATOM     19  C   UNL     1      45.269   4.157   8.220  0.00  0.00    +0.000 A 
ATOM     20  C   UNL     1      44.409   3.698   9.219  0.00  0.00    +0.000 A 
ATOM     21  C   UNL     1      44.440   2.355   9.570  0.00  0.00    +0.000 A 
ATOM     22  C   UNL     1      45.327   1.482   8.932  0.00  0.00    +0.000 A 
ATOM     23  C   UNL     1      46.207   1.932   7.928  0.00  0.00    +0.000 A 
BRANCH  23  24
ATOM     24  C   UNL     1      47.098   0.908   7.258  0.00  0.00    +0.000 C 
BRANCH  24  25
ATOM     25  N   UNL     1      46.823  -0.454   7.709  0.00  0.00    +0.000 NA
ATOM     26  H   UNL     1      45.980  -0.793   7.245  0.00  0.00    +0.000 HD
ATOM     27  H   UNL     1      46.619  -0.442   8.705  0.00  0.00    +0.000 HD
ENDBRANCH  24  25
ENDBRANCH  23  24
ENDBRANCH  16  20
ENDBRANCH  15  16
ENDBRANCH   1  15
TORSDOF 7
ENDMDL
MODEL 3
REMARK VINA RESULT:    -8.151      2.008      2.506
REMARK INTER + INTRA:         -12.121
REMARK INTER:                 -11.348
REMARK INTRA:                  -0.773
REMARK UNBOUND:                -0.873
REMARK  Name = 
REMARK  9 active torsions:
REMARK  status: ('A' for Active; 'I' for Inactive)
REMARK    1  A    between atoms: C_1  and  C_2
REMARK    2  A    between atoms: C_4  and  O_5
REMARK    3  A    between atoms: O_5  and  C_6
REMARK    4  A    between atoms: C_6  and  C_7
REMARK    5  A    between atoms: C_7  and  C_8
REMARK    6  A    between atoms: C_7  and  C_10
REMARK    7  A    between atoms: C_14  and  C_15
REMARK    8  A    between atoms: C_21  and  C_22
REMARK    9  A    between atoms: C_22  and  N_23
REMARK                            x       y       z     vdW  Elec       q    Type
REMARK                         _______ _______ _______ _____ _____    ______ ____
ROOT
ATOM      1  C   UNL     1      43.636   4.415  12.208  0.00  0.00    +0.000 C 
ATOM      2  C   UNL     1      42.681   5.311  11.417  0.00  0.00    +0.000 C 
ATOM      3  F   UNL     1      42.929   3.987  13.311  0.00  0.00    +0.000 F 
ENDROOT
BRANCH   1   4
ATOM      4  C   UNL     1      44.901   5.158  12.630  0.00  0.00    +0.000 A 
ATOM      5  C   UNL     1      45.973   4.439  13.134  0.00  0.00    +0.000 A 
ATOM      6  C   UNL     1      47.092   5.157  13.493  0.00  0.00    +0.000 A 
ATOM      7  N   UNL     1      47.191   6.488  13.363  0.00  0.00    +0.000 NA
ATOM      8  C   UNL     1      46.110   7.105  12.849  0.00  0.00    +0.000 A 
ATOM      9  N   UNL     1      44.956   6.503  12.476  0.00  0.00    +0.000 NA
BRANCH   8  10
ATOM     10  C   UNL     1      46.185   8.603  12.656  0.00  0.00    +0.000 C 
ATOM     11  N   UNL     1      45.046   9.311  12.955  0.00  0.00    +0.000 N 
ATOM     12  O   UNL     1      47.184   9.190  12.250  0.00  0.00    +0.000 OA
ATOM     13  H   UNL     1      44.201   8.827  13.244  0.00  0.00    +0.000 HD
ATOM     14  H   UNL     1      45.040  10.307  12.790  0.00  0.00    +0.000 HD
ENDBRANCH   8  10
ENDBRANCH   1   4
BRANCH   1  15
ATOM     15  C   UNL     1      43.994   3.150  11.414  0.00  0.00    +0.000 C 
BRANCH  15  16
ATOM     16  O   UNL     1      43.733   3.299  10.016  0.00  0.00    +0.000 OA
BRANCH  16  20
ATOM     17  C   UNL     1      46.674   0.038   7.752  0.00  0.00    +0.000 C 
ATOM     18  C   UNL     1      46.271   1.471   7.983  0.00  0.00    +0.000 A 
ATOM     19  C   UNL     1      45.206   1.700   8.875  0.00  0.00    +0.000 A 
ATOM     20  C   UNL     1      44.766   2.990   9.173  0.00  0.00    +0.000 A 
ATOM     21  C   UNL     1      45.404   4.073   8.582  0.00  0.00    +0.000 A 
ATOM     22  C   UNL     1      46.467   3.865   7.696  0.00  0.00    +0.000 A 
ATOM     23  C   UNL     1      46.916   2.568   7.379  0.00  0.00    +0.000 A 
BRANCH  23  24
ATOM     24  C   UNL     1      48.104   2.440   6.450  0.00  0.00    +0.000 C 
BRANCH  24  25
ATOM     25  N   UNL     1      47.790   2.842   5.081  0.00  0.00    +0.000 NA
ATOM     26  H   UNL     1      48.654   2.878   4.540  0.00  0.00    +0.000 HD
ATOM     27  H   UNL     1      47.414   3.787   5.087  0.00  0.00    +0.000 HD
ENDBRANCH  24  25
ENDBRANCH  23  24
ENDBRANCH  16  20
ENDBRANCH  15  16
ENDBRANCH   1  15
TORSDOF 7
ENDMDL
MODEL 4
REMARK VINA RESULT:    -7.976      1.922      2.640
REMARK INTER + INTRA:         -11.880
REMARK INTER:                 -11.013
REMARK INTRA:                  -0.867
REMARK UNBOUND:                -0.873
REMARK  Name = 
REMARK  9 active torsions:
REMARK  status: ('A' for Active; 'I' for Inactive)
REMARK    1  A    between atoms: C_1  and  C_2
REMARK    2  A    between atoms: C_4  and  O_5
REMARK    3  A    between atoms: O_5  and  C_6
REMARK    4  A    between atoms: C_6  and  C_7
REMARK    5  A    between atoms: C_7  and  C_8
REMARK    6  A    between atoms: C_7  and  C_10
REMARK    7  A    between atoms: C_14  and  C_15
REMARK    8  A    between atoms: C_21  and  C_22
REMARK    9  A    between atoms: C_22  and  N_23
REMARK                            x       y       z     vdW  Elec       q    Type
REMARK                         _______ _______ _______ _____ _____    ______ ____
ROOT
ATOM      1  C   UNL     1      43.513   5.300  12.093  0.00  0.00    +0.000 C 
ATOM      2  C   UNL     1      43.177   6.645  11.446  0.00  0.00    +0.000 C 
ATOM      3  F   UNL     1      42.577   5.114  13.088  0.00  0.00    +0.000 F 
ENDROOT
BRANCH   1   4
ATOM      4  C   UNL     1      44.927   5.278  12.669  0.00  0.00    +0.000 A 
ATOM      5  C   UNL     1      45.525   4.060  12.950  0.00  0.00    +0.000 A 
ATOM      6  C   UNL     1      46.803   4.097  13.460  0.00  0.00    +0.000 A 
ATOM      7  N   UNL     1      47.483   5.233  13.675  0.00  0.00    +0.000 NA
ATOM      8  C   UNL     1      46.833   6.368  13.358  0.00  0.00    +0.000 A 
ATOM      9  N   UNL     1      45.575   6.451  12.864  0.00  0.00    +0.000 NA
BRANCH   8  10
ATOM     10  C   UNL     1      47.571   7.674  13.555  0.00  0.00    +0.000 C 
ATOM     11  N   UNL     1      46.854   8.693  14.137  0.00  0.00    +0.000 N 
ATOM     12  O   UNL     1      48.738   7.857  13.221  0.00  0.00    +0.000 OA
ATOM     13  H   UNL     1      45.874   8.565  14.370  0.00  0.00    +0.000 HD
ATOM     14  H   UNL     1      47.295   9.595  14.238  0.00  0.00    +0.000 HD
ENDBRANCH   8  10
ENDBRANCH   1   4
BRANCH   1  15
ATOM     15  C   UNL     1      43.316   4.144  11.101  0.00  0.00    +0.000 C 
BRANCH  15  16
ATOM     16  O   UNL     1      43.624   4.527   9.759  0.00  0.00    +0.000 OA
BRANCH  16  20
ATOM     17  C   UNL     1      46.975   3.709   6.221  0.00  0.00    +0.000 C 
ATOM     18  C   UNL     1      46.160   3.184   7.375  0.00  0.00    +0.000 A 
ATOM     19  C   UNL     1      45.293   4.093   8.012  0.00  0.00    +0.000 A 
ATOM     20  C   UNL     1      44.482   3.705   9.079  0.00  0.00    +0.000 A 
ATOM     21  C   UNL     1      44.523   2.387   9.512  0.00  0.00    +0.000 A 
ATOM     22  C   UNL     1      45.374   1.468   8.889  0.00  0.00    +0.000 A 
ATOM     23  C   UNL     1      46.206   1.847   7.816  0.00  0.00    +0.000 A 
BRANCH  23  24
ATOM     24  C   UNL     1      47.058   0.776   7.170  0.00  0.00    +0.000 C 
BRANCH  24  25
ATOM     25  N   UNL     1      46.878  -0.533   7.792  0.00  0.00    +0.000 NA
ATOM     26  H   UNL     1      47.589  -0.660   8.512  0.00  0.00    +0.000 HD
ATOM     27  H   UNL     1      47.039  -1.259   7.098  0.00  0.00    +0.000 HD
ENDBRANCH  24  25
ENDBRANCH  23  24
ENDBRANCH  16  20
ENDBRANCH  15  16
ENDBRANCH   1  15
TORSDOF 7
ENDMDL
MODEL 5
REMARK VINA RESULT:    -7.047      3.210      4.215
REMARK INTER + INTRA:         -10.598
REMARK INTER:                  -9.991
REMARK INTRA:                  -0.606
REMARK UNBOUND:                -0.873
REMARK  Name = 
REMARK  9 active torsions:
REMARK  status: ('A' for Active; 'I' for Inactive)
REMARK    1  A    between atoms: C_1  and  C_2
REMARK    2  A    between atoms: C_4  and  O_5
REMARK    3  A    between atoms: O_5  and  C_6
REMARK    4  A    between atoms: C_6  and  C_7
REMARK    5  A    between atoms: C_7  and  C_8
REMARK    6  A    between atoms: C_7  and  C_10
REMARK    7  A    between atoms: C_14  and  C_15
REMARK    8  A    between atoms: C_21  and  C_22
REMARK    9  A    between atoms: C_22  and  N_23
REMARK                            x       y       z     vdW  Elec       q    Type
REMARK                         _______ _______ _______ _____ _____    ______ ____
ROOT
ATOM      1  C   UNL     1      44.137   5.695  12.103  0.00  0.00    +0.000 C 
ATOM      2  C   UNL     1      42.713   5.573  11.559  0.00  0.00    +0.000 C 
ATOM      3  F   UNL     1      44.090   5.226  13.399  0.00  0.00    +0.000 F 
ENDROOT
BRANCH   1   4
ATOM      4  C   UNL     1      44.642   7.136  12.067  0.00  0.00    +0.000 A 
ATOM      5  C   UNL     1      45.818   7.458  12.726  0.00  0.00    +0.000 A 
ATOM      6  C   UNL     1      46.232   8.769  12.656  0.00  0.00    +0.000 A 
ATOM      7  N   UNL     1      45.571   9.719  11.980  0.00  0.00    +0.000 NA
ATOM      8  C   UNL     1      44.449   9.316  11.355  0.00  0.00    +0.000 A 
ATOM      9  N   UNL     1      43.942   8.060  11.368  0.00  0.00    +0.000 NA
BRANCH   8  10
ATOM     10  C   UNL     1      43.684  10.347  10.555  0.00  0.00    +0.000 C 
ATOM     11  N   UNL     1      43.635  10.144   9.196  0.00  0.00    +0.000 N 
ATOM     12  O   UNL     1      43.134  11.326  11.050  0.00  0.00    +0.000 OA
ATOM     13  H   UNL     1      44.129   9.364   8.774  0.00  0.00    +0.000 HD
ATOM     14  H   UNL     1      43.178  10.837   8.622  0.00  0.00    +0.000 HD
ENDBRANCH   8  10
ENDBRANCH   1   4
BRANCH   1  15
ATOM     15  C   UNL     1      45.099   4.767  11.348  0.00  0.00    +0.000 C 
BRANCH  15  16
ATOM     16  O   UNL     1      44.413   3.901  10.442  0.00  0.00    +0.000 OA
BRANCH  16  20
ATOM     17  C   UNL     1      46.489   0.267   7.815  0.00  0.00    +0.000 C 
ATOM     18  C   UNL     1      46.192   1.735   7.980  0.00  0.00    +0.000 A 
ATOM     19  C   UNL     1      45.451   2.115   9.115  0.00  0.00    +0.000 A 
ATOM     20  C   UNL     1      45.137   3.450   9.372  0.00  0.00    +0.000 A 
ATOM     21  C   UNL     1      45.578   4.427   8.489  0.00  0.00    +0.000 A 
ATOM     22  C   UNL     1      46.319   4.070   7.357  0.00  0.00    +0.000 A 
ATOM     23  C   UNL     1      46.636   2.725   7.081  0.00  0.00    +0.000 A 
BRANCH  23  24
ATOM     24  C   UNL     1      47.484   2.436   5.861  0.00  0.00    +0.000 C 
BRANCH  24  25
ATOM     25  N   UNL     1      48.915   2.481   6.149  0.00  0.00    +0.000 NA
ATOM     26  H   UNL     1      49.426   2.596   5.274  0.00  0.00    +0.000 HD
ATOM     27  H   UNL     1      49.207   1.589   6.540  0.00  0.00    +0.000 HD
ENDBRANCH  24  25
ENDBRANCH  23  24
ENDBRANCH  16  20
ENDBRANCH  15  16
ENDBRANCH   1  15
TORSDOF 7
ENDMDL
MODEL 6
REMARK VINA RESULT:    -6.844      2.404      2.806
REMARK INTER + INTRA:         -10.318
REMARK INTER:                  -9.772
REMARK INTRA:                  -0.546
REMARK UNBOUND:                -0.873
REMARK  Name = 
REMARK  9 active torsions:
REMARK  status: ('A' for Active; 'I' for Inactive)
REMARK    1  A    between atoms: C_1  and  C_2
REMARK    2  A    between atoms: C_4  and  O_5
REMARK    3  A    between atoms: O_5  and  C_6
REMARK    4  A    between atoms: C_6  and  C_7
REMARK    5  A    between atoms: C_7  and  C_8
REMARK    6  A    between atoms: C_7  and  C_10
REMARK    7  A    between atoms: C_14  and  C_15
REMARK    8  A    between atoms: C_21  and  C_22
REMARK    9  A    between atoms: C_22  and  N_23
REMARK                            x       y       z     vdW  Elec       q    Type
REMARK                         _______ _______ _______ _____ _____    ______ ____
ROOT
ATOM      1  C   UNL     1      44.552   5.854  12.001  0.00  0.00    +0.000 C 
ATOM      2  C   UNL     1      43.283   6.126  11.192  0.00  0.00    +0.000 C 
ATOM      3  F   UNL     1      44.129   5.533  13.273  0.00  0.00    +0.000 F 
ENDROOT
BRANCH   1   4
ATOM      4  C   UNL     1      45.484   7.063  12.029  0.00  0.00    +0.000 A 
ATOM      5  C   UNL     1      44.941   8.338  11.998  0.00  0.00    +0.000 A 
ATOM      6  C   UNL     1      45.825   9.393  12.033  0.00  0.00    +0.000 A 
ATOM      7  N   UNL     1      47.155   9.242  12.111  0.00  0.00    +0.000 NA
ATOM      8  C   UNL     1      47.596   7.970  12.153  0.00  0.00    +0.000 A 
ATOM      9  N   UNL     1      46.820   6.861  12.112  0.00  0.00    +0.000 NA
BRANCH   8  10
ATOM     10  C   UNL     1      49.087   7.751  12.270  0.00  0.00    +0.000 C 
ATOM     11  N   UNL     1      49.606   7.784  13.542  0.00  0.00    +0.000 N 
ATOM     12  O   UNL     1      49.827   7.559  11.310  0.00  0.00    +0.000 OA
ATOM     13  H   UNL     1      49.009   7.991  14.337  0.00  0.00    +0.000 HD
ATOM     14  H   UNL     1      50.605   7.693  13.658  0.00  0.00    +0.000 HD
ENDBRANCH   8  10
ENDBRANCH   1   4
BRANCH   1  15
ATOM     15  C   UNL     1      45.291   4.616  11.472  0.00  0.00    +0.000 C 
BRANCH  15  16
ATOM     16  O   UNL     1      44.507   3.882  10.529  0.00  0.00    +0.000 OA
BRANCH  16  20
ATOM     17  C   UNL     1      46.485   0.274   7.794  0.00  0.00    +0.000 C 
ATOM     18  C   UNL     1      46.161   1.736   7.965  0.00  0.00    +0.000 A 
ATOM     19  C   UNL     1      45.494   2.109   9.148  0.00  0.00    +0.000 A 
ATOM     20  C   UNL     1      45.163   3.438   9.413  0.00  0.00    +0.000 A 
ATOM     21  C   UNL     1      45.512   4.416   8.491  0.00  0.00    +0.000 A 
ATOM     22  C   UNL     1      46.178   4.065   7.312  0.00  0.00    +0.000 A 
ATOM     23  C   UNL     1      46.511   2.726   7.026  0.00  0.00    +0.000 A 
BRANCH  23  24
ATOM     24  C   UNL     1      47.276   2.445   5.751  0.00  0.00    +0.000 C 
BRANCH  24  25
ATOM     25  N   UNL     1      48.638   1.985   6.005  0.00  0.00    +0.000 NA
ATOM     26  H   UNL     1      48.681   1.571   6.936  0.00  0.00    +0.000 HD
ATOM     27  H   UNL     1      49.266   2.786   6.016  0.00  0.00    +0.000 HD
ENDBRANCH  24  25
ENDBRANCH  23  24
ENDBRANCH  16  20
ENDBRANCH  15  16
ENDBRANCH   1  15
TORSDOF 7
ENDMDL
MODEL 7
REMARK VINA RESULT:    -6.683      2.739      6.367
REMARK INTER + INTRA:         -10.096
REMARK INTER:                  -9.102
REMARK INTRA:                  -0.994
REMARK UNBOUND:                -0.873
REMARK  Name = 
REMARK  9 active torsions:
REMARK  status: ('A' for Active; 'I' for Inactive)
REMARK    1  A    between atoms: C_1  and  C_2
REMARK    2  A    between atoms: C_4  and  O_5
REMARK    3  A    between atoms: O_5  and  C_6
REMARK    4  A    between atoms: C_6  and  C_7
REMARK    5  A    between atoms: C_7  and  C_8
REMARK    6  A    between atoms: C_7  and  C_10
REMARK    7  A    between atoms: C_14  and  C_15
REMARK    8  A    between atoms: C_21  and  C_22
REMARK    9  A    between atoms: C_22  and  N_23
REMARK                            x       y       z     vdW  Elec       q    Type
REMARK                         _______ _______ _______ _____ _____    ______ ____
ROOT
ATOM      1  C   UNL     1      44.161   3.441  11.267  0.00  0.00    +0.000 C 
ATOM      2  C   UNL     1      43.400   2.121  11.409  0.00  0.00    +0.000 C 
ATOM      3  F   UNL     1      43.207   4.435  11.309  0.00  0.00    +0.000 F 
ENDROOT
BRANCH   1   4
ATOM      4  C   UNL     1      44.956   3.507   9.965  0.00  0.00    +0.000 A 
ATOM      5  C   UNL     1      45.162   4.736   9.359  0.00  0.00    +0.000 A 
ATOM      6  C   UNL     1      45.891   4.741   8.191  0.00  0.00    +0.000 A 
ATOM      7  N   UNL     1      46.411   3.635   7.639  0.00  0.00    +0.000 NA
ATOM      8  C   UNL     1      46.177   2.487   8.302  0.00  0.00    +0.000 A 
ATOM      9  N   UNL     1      45.464   2.364   9.447  0.00  0.00    +0.000 NA
BRANCH   8  10
ATOM     10  C   UNL     1      46.768   1.217   7.732  0.00  0.00    +0.000 C 
ATOM     11  N   UNL     1      47.831   1.375   6.876  0.00  0.00    +0.000 N 
ATOM     12  O   UNL     1      46.348   0.092   7.988  0.00  0.00    +0.000 OA
ATOM     13  H   UNL     1      48.153   2.304   6.620  0.00  0.00    +0.000 HD
ATOM     14  H   UNL     1      48.221   0.554   6.435  0.00  0.00    +0.000 HD
ENDBRANCH   8  10
ENDBRANCH   1   4
BRANCH   1  15
ATOM     15  C   UNL     1      45.081   3.681  12.473  0.00  0.00    +0.000 C 
BRANCH  15  16
ATOM     16  O   UNL     1      44.773   4.901  13.152  0.00  0.00    +0.000 OA
BRANCH  16  20
ATOM     17  C   UNL     1      49.233   6.932  12.522  0.00  0.00    +0.000 C 
ATOM     18  C   UNL     1      47.733   7.081  12.519  0.00  0.00    +0.000 A 
ATOM     19  C   UNL     1      46.976   5.935  12.829  0.00  0.00    +0.000 A 
ATOM     20  C   UNL     1      45.582   5.969  12.872  0.00  0.00    +0.000 A 
ATOM     21  C   UNL     1      44.929   7.167  12.612  0.00  0.00    +0.000 A 
ATOM     22  C   UNL     1      45.664   8.317  12.306  0.00  0.00    +0.000 A 
ATOM     23  C   UNL     1      47.072   8.296  12.251  0.00  0.00    +0.000 A 
BRANCH  23  24
ATOM     24  C   UNL     1      47.787   9.598  11.961  0.00  0.00    +0.000 C 
BRANCH  24  25
ATOM     25  N   UNL     1      47.886  10.456  13.138  0.00  0.00    +0.000 NA
ATOM     26  H   UNL     1      48.296  11.349  12.864  0.00  0.00    +0.000 HD
ATOM     27  H   UNL     1      48.530  10.037  13.806  0.00  0.00    +0.000 HD
ENDBRANCH  24  25
ENDBRANCH  23  24
ENDBRANCH  16  20
ENDBRANCH  15  16
ENDBRANCH   1  15
TORSDOF 7
ENDMDL
MODEL 8
REMARK VINA RESULT:    -6.450      4.036      6.224
REMARK INTER + INTRA:          -9.774
REMARK INTER:                  -9.134
REMARK INTRA:                  -0.640
REMARK UNBOUND:                -0.873
REMARK  Name = 
REMARK  9 active torsions:
REMARK  status: ('A' for Active; 'I' for Inactive)
REMARK    1  A    between atoms: C_1  and  C_2
REMARK    2  A    between atoms: C_4  and  O_5
REMARK    3  A    between atoms: O_5  and  C_6
REMARK    4  A    between atoms: C_6  and  C_7
REMARK    5  A    between atoms: C_7  and  C_8
REMARK    6  A    between atoms: C_7  and  C_10
REMARK    7  A    between atoms: C_14  and  C_15
REMARK    8  A    between atoms: C_21  and  C_22
REMARK    9  A    between atoms: C_22  and  N_23
REMARK                            x       y       z     vdW  Elec       q    Type
REMARK                         _______ _______ _______ _____ _____    ______ ____
ROOT
ATOM      1  C   UNL     1      47.973   3.442  16.471  0.00  0.00    +0.000 C 
ATOM      2  C   UNL     1      47.006   3.040  17.587  0.00  0.00    +0.000 C 
ATOM      3  F   UNL     1      47.900   2.441  15.526  0.00  0.00    +0.000 F 
ENDROOT
BRANCH   1   4
ATOM      4  C   UNL     1      49.403   3.603  16.981  0.00  0.00    +0.000 A 
ATOM      5  C   UNL     1      49.851   4.859  17.358  0.00  0.00    +0.000 A 
ATOM      6  C   UNL     1      51.145   4.946  17.818  0.00  0.00    +0.000 A 
ATOM      7  N   UNL     1      51.964   3.891  17.929  0.00  0.00    +0.000 NA
ATOM      8  C   UNL     1      51.443   2.707  17.557  0.00  0.00    +0.000 A 
ATOM      9  N   UNL     1      50.191   2.506  17.080  0.00  0.00    +0.000 NA
BRANCH   8  10
ATOM     10  C   UNL     1      52.320   1.482  17.693  0.00  0.00    +0.000 C 
ATOM     11  N   UNL     1      51.686   0.321  18.066  0.00  0.00    +0.000 N 
ATOM     12  O   UNL     1      53.532   1.485  17.499  0.00  0.00    +0.000 OA
ATOM     13  H   UNL     1      50.693   0.322  18.277  0.00  0.00    +0.000 HD
ATOM     14  H   UNL     1      52.245  -0.506  18.218  0.00  0.00    +0.000 HD
ENDBRANCH   8  10
ENDBRANCH   1   4
BRANCH   1  15
ATOM     15  C   UNL     1      47.503   4.725  15.769  0.00  0.00    +0.000 C 
BRANCH  15  16
ATOM     16  O   UNL     1      47.835   4.732  14.379  0.00  0.00    +0.000 OA
BRANCH  16  20
ATOM     17  C   UNL     1      44.835   7.452  11.549  0.00  0.00    +0.000 C 
ATOM     18  C   UNL     1      45.253   6.097  12.059  0.00  0.00    +0.000 A 
ATOM     19  C   UNL     1      46.333   6.059  12.962  0.00  0.00    +0.000 A 
ATOM     20  C   UNL     1      46.788   4.858  13.508  0.00  0.00    +0.000 A 
ATOM     21  C   UNL     1      46.150   3.675  13.159  0.00  0.00    +0.000 A 
ATOM     22  C   UNL     1      45.072   3.694  12.267  0.00  0.00    +0.000 A 
ATOM     23  C   UNL     1      44.608   4.898  11.701  0.00  0.00    +0.000 A 
BRANCH  23  24
ATOM     24  C   UNL     1      43.405   4.829  10.785  0.00  0.00    +0.000 C 
BRANCH  24  25
ATOM     25  N   UNL     1      43.778   4.678   9.381  0.00  0.00    +0.000 NA
ATOM     26  H   UNL     1      43.962   5.600   8.985  0.00  0.00    +0.000 HD
ATOM     27  H   UNL     1      42.991   4.294   8.864  0.00  0.00    +0.000 HD
ENDBRANCH  24  25
ENDBRANCH  23  24
ENDBRANCH  16  20
ENDBRANCH  15  16
ENDBRANCH   1  15
TORSDOF 7
ENDMDL
MODEL 9
REMARK VINA RESULT:    -6.361      3.321      5.163
REMARK INTER + INTRA:          -9.652
REMARK INTER:                  -8.913
REMARK INTRA:                  -0.739
REMARK UNBOUND:                -0.873
REMARK  Name = 
REMARK  9 active torsions:
REMARK  status: ('A' for Active; 'I' for Inactive)
REMARK    1  A    between atoms: C_1  and  C_2
REMARK    2  A    between atoms: C_4  and  O_5
REMARK    3  A    between atoms: O_5  and  C_6
REMARK    4  A    between atoms: C_6  and  C_7
REMARK    5  A    between atoms: C_7  and  C_8
REMARK    6  A    between atoms: C_7  and  C_10
REMARK    7  A    between atoms: C_14  and  C_15
REMARK    8  A    between atoms: C_21  and  C_22
REMARK    9  A    between atoms: C_22  and  N_23
REMARK                            x       y       z     vdW  Elec       q    Type
REMARK                         _______ _______ _______ _____ _____    ______ ____
ROOT
ATOM      1  C   UNL     1      48.651   7.692  14.293  0.00  0.00    +0.000 C 
ATOM      2  C   UNL     1      50.028   8.303  14.031  0.00  0.00    +0.000 C 
ATOM      3  F   UNL     1      47.782   8.755  14.418  0.00  0.00    +0.000 F 
ENDROOT
BRANCH   1   4
ATOM      4  C   UNL     1      48.636   6.829  15.553  0.00  0.00    +0.000 A 
ATOM      5  C   UNL     1      48.958   7.405  16.772  0.00  0.00    +0.000 A 
ATOM      6  C   UNL     1      48.922   6.586  17.877  0.00  0.00    +0.000 A 
ATOM      7  N   UNL     1      48.581   5.290  17.827  0.00  0.00    +0.000 NA
ATOM      8  C   UNL     1      48.266   4.817  16.607  0.00  0.00    +0.000 A 
ATOM      9  N   UNL     1      48.280   5.527  15.453  0.00  0.00    +0.000 NA
BRANCH   8  10
ATOM     10  C   UNL     1      47.845   3.368  16.505  0.00  0.00    +0.000 C 
ATOM     11  N   UNL     1      46.978   2.920  17.472  0.00  0.00    +0.000 N 
ATOM     12  O   UNL     1      48.239   2.601  15.631  0.00  0.00    +0.000 OA
ATOM     13  H   UNL     1      46.687   3.533  18.227  0.00  0.00    +0.000 HD
ATOM     14  H   UNL     1      46.714   1.945  17.469  0.00  0.00    +0.000 HD
ENDBRANCH   8  10
ENDBRANCH   1   4
BRANCH   1  15
ATOM     15  C   UNL     1      48.164   6.884  13.081  0.00  0.00    +0.000 C 
BRANCH  15  16
ATOM     16  O   UNL     1      46.786   7.124  12.790  0.00  0.00    +0.000 OA
BRANCH  16  20
ATOM     17  C   UNL     1      45.354   4.619   8.780  0.00  0.00    +0.000 C 
ATOM     18  C   UNL     1      45.349   4.770  10.279  0.00  0.00    +0.000 A 
ATOM     19  C   UNL     1      46.063   5.859  10.815  0.00  0.00    +0.000 A 
ATOM     20  C   UNL     1      46.107   6.099  12.188  0.00  0.00    +0.000 A 
ATOM     21  C   UNL     1      45.420   5.248  13.044  0.00  0.00    +0.000 A 
ATOM     22  C   UNL     1      44.702   4.164  12.530  0.00  0.00    +0.000 A 
ATOM     23  C   UNL     1      44.655   3.903  11.146  0.00  0.00    +0.000 A 
BRANCH  23  24
ATOM     24  C   UNL     1      43.814   2.736  10.675  0.00  0.00    +0.000 C 
BRANCH  24  25
ATOM     25  N   UNL     1      43.051   2.123  11.759  0.00  0.00    +0.000 NA
ATOM     26  H   UNL     1      42.398   1.446  11.363  0.00  0.00    +0.000 HD
ATOM     27  H   UNL     1      42.486   2.834  12.216  0.00  0.00    +0.000 HD
ENDBRANCH  24  25
ENDBRANCH  23  24
ENDBRANCH  16  20
ENDBRANCH  15  16
ENDBRANCH   1  15
TORSDOF 7
ENDMDL
