MODEL 1
REMARK VINA RESULT:    -7.159      0.000      0.000
REMARK INTER + INTRA:         -12.285
REMARK INTER:                 -10.926
REMARK INTRA:                  -1.359
REMARK UNBOUND:                -1.359
REMARK  Name = 
REMARK  10 active torsions:
REMARK  status: ('A' for Active; 'I' for Inactive)
REMARK    1  A    between atoms: C_2  and  C_3
REMARK    2  A    between atoms: N_7  and  C_8
REMARK    3  A    between atoms: C_8  and  C_9
REMARK    4  A    between atoms: C_9  and  C_10
REMARK    5  A    between atoms: C_9  and  C_12
REMARK    6  A    between atoms: C_10  and  O_11
REMARK    7  A    between atoms: C_14  and  S_15
REMARK    8  A    between atoms: S_15  and  C_16
REMARK    9  A    between atoms: C_16  and  C_17
REMARK   10  A    between atoms: C_20  and  O_21
REMARK                            x       y       z     vdW  Elec       q    Type
REMARK                         _______ _______ _______ _____ _____    ______ ____
ROOT
ATOM      1  C   UNL     1      44.026   4.996  12.205  0.00  0.00    +0.000 C 
ENDROOT
BRANCH   1   2
ATOM      2  C   UNL     1      45.399   5.350  12.751  0.00  0.00    +0.000 A 
ATOM      3  C   UNL     1      46.301   6.165  12.062  0.00  0.00    +0.000 A 
ATOM      4  C   UNL     1      47.573   6.389  12.590  0.00  0.00    +0.000 A 
ATOM      5  C   UNL     1      47.910   5.779  13.795  0.00  0.00    +0.000 A 
ATOM      6  C   UNL     1      46.964   4.985  14.420  0.00  0.00    +0.000 A 
ATOM      7  N   UNL     1      45.729   4.758  13.927  0.00  0.00    +0.000 NA
BRANCH   4   8
ATOM      8  S   UNL     1      48.851   7.233  11.672  0.00  0.00    +0.000 S 
BRANCH   8   9
ATOM      9  C   UNL     1      48.861   8.932  12.410  0.00  0.00    +0.000 C 
ATOM     10  C   UNL     1      49.394   8.957  13.863  0.00  0.00    +0.000 C 
ATOM     11  C   UNL     1      48.109   9.685  14.310  0.00  0.00    +0.000 C 
ATOM     12  C   UNL     1      47.444   9.237  12.992  0.00  0.00    +0.000 C 
BRANCH   9  13
ATOM     13  C   UNL     1      49.377   9.995  11.456  0.00  0.00    +0.000 C 
ATOM     14  F   UNL     1      48.339  10.802  11.093  0.00  0.00    +0.000 F 
ENDBRANCH   9  13
BRANCH  11  15
ATOM     15  O   UNL     1      47.512   9.182  15.519  0.00  0.00    +0.000 OA
ATOM     16  H   UNL     1      46.612   8.912  15.269  0.00  0.00    +0.000 HD
ENDBRANCH  11  15
ENDBRANCH   8   9
ENDBRANCH   4   8
ENDBRANCH   1   2
BRANCH   1  17
ATOM     17  C   UNL     1      43.890   5.049  10.672  0.00  0.00    +0.000 C 
BRANCH  17  22
ATOM     18  C   UNL     1      46.543   2.458   7.510  0.00  0.00    +0.000 A 
ATOM     19  C   UNL     1      45.809   1.600   8.289  0.00  0.00    +0.000 A 
ATOM     20  N   UNL     1      44.840   2.005   9.144  0.00  0.00    +0.000 NA
ATOM     21  C   UNL     1      44.593   3.318   9.200  0.00  0.00    +0.000 A 
ATOM     22  N   UNL     1      43.622   3.731  10.103  0.00  0.00    +0.000 N 
ATOM     23  N   UNL     1      45.244   4.228   8.459  0.00  0.00    +0.000 NA
ATOM     24  C   UNL     1      46.212   3.783   7.633  0.00  0.00    +0.000 A 
ATOM     25  H   UNL     1      43.508   2.974  10.770  0.00  0.00    +0.000 HD
BRANCH  18  27
ATOM     26  N   UNL     1      48.448   1.661   5.961  0.00  0.00    +0.000 NA
ATOM     27  C   UNL     1      47.586   2.017   6.653  0.00  0.00    +0.000 C 
ENDBRANCH  18  27
ENDBRANCH  17  22
ENDBRANCH   1  17
BRANCH   1  28
ATOM     28  C   UNL     1      43.631   3.597  12.707  0.00  0.00    +0.000 C 
BRANCH  28  29
ATOM     29  O   UNL     1      44.663   2.642  12.459  0.00  0.00    +0.000 OA
ATOM     30  H   UNL     1      44.314   1.991  11.826  0.00  0.00    +0.000 HD
ENDBRANCH  28  29
ENDBRANCH   1  28
TORSDOF 10
ENDMDL
MODEL 2
REMARK VINA RESULT:    -7.122      1.762      2.096
REMARK INTER + INTRA:         -12.228
REMARK INTER:                 -10.950
REMARK INTRA:                  -1.278
REMARK UNBOUND:                -1.359
REMARK  Name = 
REMARK  10 active torsions:
REMARK  status: ('A' for Active; 'I' for Inactive)
REMARK    1  A    between atoms: C_2  and  C_3
REMARK    2  A    between atoms: N_7  and  C_8
REMARK    3  A    between atoms: C_8  and  C_9
REMARK    4  A    between atoms: C_9  and  C_10
REMARK    5  A    between atoms: C_9  and  C_12
REMARK    6  A    between atoms: C_10  and  O_11
REMARK    7  A    between atoms: C_14  and  S_15
REMARK    8  A    between atoms: S_15  and  C_16
REMARK    9  A    between atoms: C_16  and  C_17
REMARK   10  A    between atoms: C_20  and  O_21
REMARK                            x       y       z     vdW  Elec       q    Type
REMARK                         _______ _______ _______ _____ _____    ______ ____
ROOT
ATOM      1  C   UNL     1      43.904   5.652  11.837  0.00  0.00    +0.000 C 
ENDROOT
BRANCH   1   2
ATOM      2  C   UNL     1      45.093   5.183  12.659  0.00  0.00    +0.000 A 
ATOM      3  C   UNL     1      45.990   6.067  13.266  0.00  0.00    +0.000 A 
ATOM      4  C   UNL     1      47.101   5.567  13.945  0.00  0.00    +0.000 A 
ATOM      5  C   UNL     1      47.288   4.187  13.988  0.00  0.00    +0.000 A 
ATOM      6  C   UNL     1      46.358   3.375  13.364  0.00  0.00    +0.000 A 
ATOM      7  N   UNL     1      45.276   3.839  12.704  0.00  0.00    +0.000 NA
BRANCH   4   8
ATOM      8  S   UNL     1      48.402   6.626  14.556  0.00  0.00    +0.000 S 
BRANCH   8   9
ATOM      9  C   UNL     1      48.653   7.838  13.178  0.00  0.00    +0.000 C 
ATOM     10  C   UNL     1      48.882   7.157  11.807  0.00  0.00    +0.000 C 
ATOM     11  C   UNL     1      50.182   7.970  11.633  0.00  0.00    +0.000 C 
ATOM     12  C   UNL     1      50.156   8.262  13.148  0.00  0.00    +0.000 C 
BRANCH   9  13
ATOM     13  C   UNL     1      47.684   9.007  13.226  0.00  0.00    +0.000 C 
ATOM     14  F   UNL     1      47.453   9.439  11.954  0.00  0.00    +0.000 F 
ENDBRANCH   9  13
BRANCH  11  15
ATOM     15  O   UNL     1      51.313   7.219  11.155  0.00  0.00    +0.000 OA
ATOM     16  H   UNL     1      51.131   7.052  10.214  0.00  0.00    +0.000 HD
ENDBRANCH  11  15
ENDBRANCH   8   9
ENDBRANCH   4   8
ENDBRANCH   1   2
BRANCH   1  17
ATOM     17  C   UNL     1      44.007   5.402  10.322  0.00  0.00    +0.000 C 
BRANCH  17  22
ATOM     18  C   UNL     1      46.617   2.519   7.385  0.00  0.00    +0.000 A 
ATOM     19  C   UNL     1      46.011   1.750   8.346  0.00  0.00    +0.000 A 
ATOM     20  N   UNL     1      45.078   2.222   9.207  0.00  0.00    +0.000 NA
ATOM     21  C   UNL     1      44.734   3.508   9.080  0.00  0.00    +0.000 A 
ATOM     22  N   UNL     1      43.802   3.995   9.986  0.00  0.00    +0.000 N 
ATOM     23  N   UNL     1      45.257   4.329   8.156  0.00  0.00    +0.000 NA
ATOM     24  C   UNL     1      46.194   3.822   7.330  0.00  0.00    +0.000 A 
ATOM     25  H   UNL     1      43.796   3.349  10.770  0.00  0.00    +0.000 HD
BRANCH  18  27
ATOM     26  N   UNL     1      48.458   1.617   5.816  0.00  0.00    +0.000 NA
ATOM     27  C   UNL     1      47.627   2.016   6.522  0.00  0.00    +0.000 C 
ENDBRANCH  18  27
ENDBRANCH  17  22
ENDBRANCH   1  17
BRANCH   1  28
ATOM     28  C   UNL     1      42.625   4.992  12.382  0.00  0.00    +0.000 C 
BRANCH  28  29
ATOM     29  O   UNL     1      42.631   4.941  13.808  0.00  0.00    +0.000 OA
ATOM     30  H   UNL     1      42.114   5.699  14.131  0.00  0.00    +0.000 HD
ENDBRANCH  28  29
ENDBRANCH   1  28
TORSDOF 10
ENDMDL
MODEL 3
REMARK VINA RESULT:    -6.749      1.991      2.538
REMARK INTER + INTRA:         -11.658
REMARK INTER:                 -10.948
REMARK INTRA:                  -0.710
REMARK UNBOUND:                -1.359
REMARK  Name = 
REMARK  10 active torsions:
REMARK  status: ('A' for Active; 'I' for Inactive)
REMARK    1  A    between atoms: C_2  and  C_3
REMARK    2  A    between atoms: N_7  and  C_8
REMARK    3  A    between atoms: C_8  and  C_9
REMARK    4  A    between atoms: C_9  and  C_10
REMARK    5  A    between atoms: C_9  and  C_12
REMARK    6  A    between atoms: C_10  and  O_11
REMARK    7  A    between atoms: C_14  and  S_15
REMARK    8  A    between atoms: S_15  and  C_16
REMARK    9  A    between atoms: C_16  and  C_17
REMARK   10  A    between atoms: C_20  and  O_21
REMARK                            x       y       z     vdW  Elec       q    Type
REMARK                         _______ _______ _______ _____ _____    ______ ____
ROOT
ATOM      1  C   UNL     1      44.675   5.242  12.050  0.00  0.00    +0.000 C 
ENDROOT
BRANCH   1   2
ATOM      2  C   UNL     1      45.543   6.465  12.292  0.00  0.00    +0.000 A 
ATOM      3  C   UNL     1      46.932   6.393  12.428  0.00  0.00    +0.000 A 
ATOM      4  C   UNL     1      47.660   7.546  12.721  0.00  0.00    +0.000 A 
ATOM      5  C   UNL     1      46.969   8.745  12.882  0.00  0.00    +0.000 A 
ATOM      6  C   UNL     1      45.594   8.740  12.733  0.00  0.00    +0.000 A 
ATOM      7  N   UNL     1      44.872   7.635  12.447  0.00  0.00    +0.000 NA
BRANCH   4   8
ATOM      8  S   UNL     1      49.399   7.500  13.123  0.00  0.00    +0.000 S 
BRANCH   8   9
ATOM      9  C   UNL     1      49.420   7.691  14.965  0.00  0.00    +0.000 C 
ATOM     10  C   UNL     1      50.661   7.043  15.626  0.00  0.00    +0.000 C 
ATOM     11  C   UNL     1      49.730   6.245  16.563  0.00  0.00    +0.000 C 
ATOM     12  C   UNL     1      48.564   6.551  15.600  0.00  0.00    +0.000 C 
BRANCH   9  13
ATOM     13  C   UNL     1      49.029   9.085  15.426  0.00  0.00    +0.000 C 
ATOM     14  F   UNL     1      47.799   9.026  16.012  0.00  0.00    +0.000 F 
ENDBRANCH   9  13
BRANCH  11  15
ATOM     15  O   UNL     1      50.069   4.855  16.721  0.00  0.00    +0.000 OA
ATOM     16  H   UNL     1      50.532   4.799  17.574  0.00  0.00    +0.000 HD
ENDBRANCH  11  15
ENDBRANCH   8   9
ENDBRANCH   4   8
ENDBRANCH   1   2
BRANCH   1  17
ATOM     17  C   UNL     1      44.033   5.152  10.654  0.00  0.00    +0.000 C 
BRANCH  17  22
ATOM     18  C   UNL     1      46.556   2.453   7.476  0.00  0.00    +0.000 A 
ATOM     19  C   UNL     1      45.978   1.627   8.406  0.00  0.00    +0.000 A 
ATOM     20  N   UNL     1      45.070   2.045   9.320  0.00  0.00    +0.000 NA
ATOM     21  C   UNL     1      44.723   3.336   9.280  0.00  0.00    +0.000 A 
ATOM     22  N   UNL     1      43.818   3.767  10.241  0.00  0.00    +0.000 N 
ATOM     23  N   UNL     1      45.219   4.212   8.393  0.00  0.00    +0.000 NA
ATOM     24  C   UNL     1      46.132   3.756   7.511  0.00  0.00    +0.000 A 
ATOM     25  H   UNL     1      43.835   3.075  10.985  0.00  0.00    +0.000 HD
BRANCH  18  27
ATOM     26  N   UNL     1      48.353   1.637   5.812  0.00  0.00    +0.000 NA
ATOM     27  C   UNL     1      47.540   2.004   6.555  0.00  0.00    +0.000 C 
ENDBRANCH  18  27
ENDBRANCH  17  22
ENDBRANCH   1  17
BRANCH   1  28
ATOM     28  C   UNL     1      45.506   3.975  12.316  0.00  0.00    +0.000 C 
BRANCH  28  29
ATOM     29  O   UNL     1      44.691   2.908  12.800  0.00  0.00    +0.000 OA
ATOM     30  H   UNL     1      43.792   3.259  12.924  0.00  0.00    +0.000 HD
ENDBRANCH  28  29
ENDBRANCH   1  28
TORSDOF 10
ENDMDL
MODEL 4
REMARK VINA RESULT:    -6.682      1.876      2.344
REMARK INTER + INTRA:         -11.557
REMARK INTER:                 -10.595
REMARK INTRA:                  -0.962
REMARK UNBOUND:                -1.359
REMARK  Name = 
REMARK  10 active torsions:
REMARK  status: ('A' for Active; 'I' for Inactive)
REMARK    1  A    between atoms: C_2  and  C_3
REMARK    2  A    between atoms: N_7  and  C_8
REMARK    3  A    between atoms: C_8  and  C_9
REMARK    4  A    between atoms: C_9  and  C_10
REMARK    5  A    between atoms: C_9  and  C_12
REMARK    6  A    between atoms: C_10  and  O_11
REMARK    7  A    between atoms: C_14  and  S_15
REMARK    8  A    between atoms: S_15  and  C_16
REMARK    9  A    between atoms: C_16  and  C_17
REMARK   10  A    between atoms: C_20  and  O_21
REMARK                            x       y       z     vdW  Elec       q    Type
REMARK                         _______ _______ _______ _____ _____    ______ ____
ROOT
ATOM      1  C   UNL     1      44.322   4.871  11.752  0.00  0.00    +0.000 C 
ENDROOT
BRANCH   1   2
ATOM      2  C   UNL     1      45.020   6.193  12.022  0.00  0.00    +0.000 A 
ATOM      3  C   UNL     1      46.245   6.280  12.690  0.00  0.00    +0.000 A 
ATOM      4  C   UNL     1      46.793   7.532  12.968  0.00  0.00    +0.000 A 
ATOM      5  C   UNL     1      46.089   8.668  12.577  0.00  0.00    +0.000 A 
ATOM      6  C   UNL     1      44.883   8.504  11.920  0.00  0.00    +0.000 A 
ATOM      7  N   UNL     1      44.337   7.302  11.640  0.00  0.00    +0.000 NA
BRANCH   4   8
ATOM      8  S   UNL     1      48.235   7.733  14.002  0.00  0.00    +0.000 S 
BRANCH   8   9
ATOM      9  C   UNL     1      49.375   8.752  12.957  0.00  0.00    +0.000 C 
ATOM     10  C   UNL     1      49.432   8.279  11.484  0.00  0.00    +0.000 C 
ATOM     11  C   UNL     1      50.968   8.186  11.585  0.00  0.00    +0.000 C 
ATOM     12  C   UNL     1      50.830   8.209  13.122  0.00  0.00    +0.000 C 
BRANCH   9  13
ATOM     13  C   UNL     1      49.243  10.245  13.209  0.00  0.00    +0.000 C 
ATOM     14  F   UNL     1      48.694  10.829  12.106  0.00  0.00    +0.000 F 
ENDBRANCH   9  13
BRANCH  11  15
ATOM     15  O   UNL     1      51.546   6.994  11.022  0.00  0.00    +0.000 OA
ATOM     16  H   UNL     1      52.408   6.894  11.463  0.00  0.00    +0.000 HD
ENDBRANCH  11  15
ENDBRANCH   8   9
ENDBRANCH   4   8
ENDBRANCH   1   2
BRANCH   1  17
ATOM     17  C   UNL     1      43.806   4.676  10.314  0.00  0.00    +0.000 C 
BRANCH  17  22
ATOM     18  C   UNL     1      46.696   2.379   7.132  0.00  0.00    +0.000 A 
ATOM     19  C   UNL     1      46.269   1.483   8.078  0.00  0.00    +0.000 A 
ATOM     20  N   UNL     1      45.316   1.761   9.000  0.00  0.00    +0.000 NA
ATOM     21  C   UNL     1      44.765   2.979   8.951  0.00  0.00    +0.000 A 
ATOM     22  N   UNL     1      43.813   3.270   9.919  0.00  0.00    +0.000 N 
ATOM     23  N   UNL     1      45.103   3.912   8.048  0.00  0.00    +0.000 NA
ATOM     24  C   UNL     1      46.068   3.598   7.159  0.00  0.00    +0.000 A 
ATOM     25  H   UNL     1      43.949   2.599  10.669  0.00  0.00    +0.000 HD
BRANCH  18  27
ATOM     26  N   UNL     1      48.582   1.851   5.450  0.00  0.00    +0.000 NA
ATOM     27  C   UNL     1      47.729   2.083   6.204  0.00  0.00    +0.000 C 
ENDBRANCH  18  27
ENDBRANCH  17  22
ENDBRANCH   1  17
BRANCH   1  28
ATOM     28  C   UNL     1      45.273   3.717  12.117  0.00  0.00    +0.000 C 
BRANCH  28  29
ATOM     29  O   UNL     1      44.556   2.590  12.620  0.00  0.00    +0.000 OA
ATOM     30  H   UNL     1      43.935   2.304  11.928  0.00  0.00    +0.000 HD
ENDBRANCH  28  29
ENDBRANCH   1  28
TORSDOF 10
ENDMDL
MODEL 5
REMARK VINA RESULT:    -6.515      2.734      3.430
REMARK INTER + INTRA:         -11.302
REMARK INTER:                 -10.186
REMARK INTRA:                  -1.117
REMARK UNBOUND:                -1.359
REMARK  Name = 
REMARK  10 active torsions:
REMARK  status: ('A' for Active; 'I' for Inactive)
REMARK    1  A    between atoms: C_2  and  C_3
REMARK    2  A    between atoms: N_7  and  C_8
REMARK    3  A    between atoms: C_8  and  C_9
REMARK    4  A    between atoms: C_9  and  C_10
REMARK    5  A    between atoms: C_9  and  C_12
REMARK    6  A    between atoms: C_10  and  O_11
REMARK    7  A    between atoms: C_14  and  S_15
REMARK    8  A    between atoms: S_15  and  C_16
REMARK    9  A    between atoms: C_16  and  C_17
REMARK   10  A    between atoms: C_20  and  O_21
REMARK                            x       y       z     vdW  Elec       q    Type
REMARK                         _______ _______ _______ _____ _____    ______ ____
ROOT
ATOM      1  C   UNL     1      45.018   6.659  12.119  0.00  0.00    +0.000 C 
ENDROOT
BRANCH   1   2
ATOM      2  C   UNL     1      46.462   6.866  12.545  0.00  0.00    +0.000 A 
ATOM      3  C   UNL     1      46.827   7.186  13.855  0.00  0.00    +0.000 A 
ATOM      4  C   UNL     1      48.165   7.433  14.160  0.00  0.00    +0.000 A 
ATOM      5  C   UNL     1      49.104   7.363  13.135  0.00  0.00    +0.000 A 
ATOM      6  C   UNL     1      48.669   7.040  11.861  0.00  0.00    +0.000 A 
ATOM      7  N   UNL     1      47.379   6.796  11.547  0.00  0.00    +0.000 NA
BRANCH   4   8
ATOM      8  S   UNL     1      48.681   8.057  15.751  0.00  0.00    +0.000 S 
BRANCH   8   9
ATOM      9  C   UNL     1      49.147   6.526  16.684  0.00  0.00    +0.000 C 
ATOM     10  C   UNL     1      48.254   5.310  16.336  0.00  0.00    +0.000 C 
ATOM     11  C   UNL     1      47.952   5.117  17.836  0.00  0.00    +0.000 C 
ATOM     12  C   UNL     1      48.453   6.556  18.082  0.00  0.00    +0.000 C 
BRANCH   9  13
ATOM     13  C   UNL     1      50.648   6.298  16.746  0.00  0.00    +0.000 C 
ATOM     14  F   UNL     1      51.208   6.740  15.584  0.00  0.00    +0.000 F 
ENDBRANCH   9  13
BRANCH  11  15
ATOM     15  O   UNL     1      46.571   4.869  18.154  0.00  0.00    +0.000 OA
ATOM     16  H   UNL     1      46.151   5.746  18.180  0.00  0.00    +0.000 HD
ENDBRANCH  11  15
ENDBRANCH   8   9
ENDBRANCH   4   8
ENDBRANCH   1   2
BRANCH   1  17
ATOM     17  C   UNL     1      44.800   6.405  10.616  0.00  0.00    +0.000 C 
BRANCH  17  22
ATOM     18  C   UNL     1      46.439   2.754   7.835  0.00  0.00    +0.000 A 
ATOM     19  C   UNL     1      45.666   2.238   8.843  0.00  0.00    +0.000 A 
ATOM     20  N   UNL     1      44.921   2.997   9.682  0.00  0.00    +0.000 NA
ATOM     21  C   UNL     1      44.944   4.319   9.482  0.00  0.00    +0.000 A 
ATOM     22  N   UNL     1      44.206   5.095  10.365  0.00  0.00    +0.000 N 
ATOM     23  N   UNL     1      45.653   4.911   8.508  0.00  0.00    +0.000 NA
ATOM     24  C   UNL     1      46.393   4.119   7.707  0.00  0.00    +0.000 A 
ATOM     25  H   UNL     1      44.039   4.519  11.185  0.00  0.00    +0.000 HD
BRANCH  18  27
ATOM     26  N   UNL     1      47.910   1.291   6.299  0.00  0.00    +0.000 NA
ATOM     27  C   UNL     1      47.249   1.944   6.996  0.00  0.00    +0.000 C 
ENDBRANCH  18  27
ENDBRANCH  17  22
ENDBRANCH   1  17
BRANCH   1  28
ATOM     28  C   UNL     1      44.417   5.497  12.929  0.00  0.00    +0.000 C 
BRANCH  28  29
ATOM     29  O   UNL     1      43.067   5.768  13.306  0.00  0.00    +0.000 OA
ATOM     30  H   UNL     1      42.584   6.026  12.503  0.00  0.00    +0.000 HD
ENDBRANCH  28  29
ENDBRANCH   1  28
TORSDOF 10
ENDMDL
MODEL 6
REMARK VINA RESULT:    -6.161      4.037      8.356
REMARK INTER + INTRA:         -10.762
REMARK INTER:                  -9.896
REMARK INTRA:                  -0.865
REMARK UNBOUND:                -1.359
REMARK  Name = 
REMARK  10 active torsions:
REMARK  status: ('A' for Active; 'I' for Inactive)
REMARK    1  A    between atoms: C_2  and  C_3
REMARK    2  A    between atoms: N_7  and  C_8
REMARK    3  A    between atoms: C_8  and  C_9
REMARK    4  A    between atoms: C_9  and  C_10
REMARK    5  A    between atoms: C_9  and  C_12
REMARK    6  A    between atoms: C_10  and  O_11
REMARK    7  A    between atoms: C_14  and  S_15
REMARK    8  A    between atoms: S_15  and  C_16
REMARK    9  A    between atoms: C_16  and  C_17
REMARK   10  A    between atoms: C_20  and  O_21
REMARK                            x       y       z     vdW  Elec       q    Type
REMARK                         _______ _______ _______ _____ _____    ______ ____
ROOT
ATOM      1  C   UNL     1      45.928   5.518  13.541  0.00  0.00    +0.000 C 
ENDROOT
BRANCH   1   2
ATOM      2  C   UNL     1      45.135   4.660  12.570  0.00  0.00    +0.000 A 
ATOM      3  C   UNL     1      45.301   4.734  11.185  0.00  0.00    +0.000 A 
ATOM      4  C   UNL     1      44.487   3.970  10.349  0.00  0.00    +0.000 A 
ATOM      5  C   UNL     1      43.517   3.156  10.928  0.00  0.00    +0.000 A 
ATOM      6  C   UNL     1      43.411   3.134  12.308  0.00  0.00    +0.000 A 
ATOM      7  N   UNL     1      44.190   3.865  13.133  0.00  0.00    +0.000 NA
BRANCH   4   8
ATOM      8  S   UNL     1      44.488   4.168   8.574  0.00  0.00    +0.000 S 
BRANCH   8   9
ATOM      9  C   UNL     1      45.720   2.910   8.000  0.00  0.00    +0.000 C 
ATOM     10  C   UNL     1      47.067   3.536   7.566  0.00  0.00    +0.000 C 
ATOM     11  C   UNL     1      46.954   2.810   6.209  0.00  0.00    +0.000 C 
ATOM     12  C   UNL     1      45.453   2.594   6.495  0.00  0.00    +0.000 C 
BRANCH   9  13
ATOM     13  C   UNL     1      45.774   1.679   8.889  0.00  0.00    +0.000 C 
ATOM     14  F   UNL     1      44.606   0.988   8.754  0.00  0.00    +0.000 F 
ENDBRANCH   9  13
BRANCH  11  15
ATOM     15  O   UNL     1      47.266   3.615   5.058  0.00  0.00    +0.000 OA
ATOM     16  H   UNL     1      47.373   4.520   5.398  0.00  0.00    +0.000 HD
ENDBRANCH  11  15
ENDBRANCH   8   9
ENDBRANCH   4   8
ENDBRANCH   1   2
BRANCH   1  17
ATOM     17  C   UNL     1      47.286   4.940  13.979  0.00  0.00    +0.000 C 
BRANCH  17  22
ATOM     18  C   UNL     1      48.398   4.218  18.668  0.00  0.00    +0.000 A 
ATOM     19  C   UNL     1      47.372   3.379  18.317  0.00  0.00    +0.000 A 
ATOM     20  N   UNL     1      46.946   3.207  17.042  0.00  0.00    +0.000 NA
ATOM     21  C   UNL     1      47.592   3.891  16.091  0.00  0.00    +0.000 A 
ATOM     22  N   UNL     1      47.130   3.736  14.792  0.00  0.00    +0.000 N 
ATOM     23  N   UNL     1      48.621   4.716  16.339  0.00  0.00    +0.000 NA
ATOM     24  C   UNL     1      49.001   4.870  17.624  0.00  0.00    +0.000 A 
ATOM     25  H   UNL     1      46.186   3.368  14.862  0.00  0.00    +0.000 HD
BRANCH  18  27
ATOM     26  N   UNL     1      49.129   4.596  21.115  0.00  0.00    +0.000 NA
ATOM     27  C   UNL     1      48.799   4.419  20.016  0.00  0.00    +0.000 C 
ENDBRANCH  18  27
ENDBRANCH  17  22
ENDBRANCH   1  17
BRANCH   1  28
ATOM     28  C   UNL     1      46.138   6.912  12.924  0.00  0.00    +0.000 C 
BRANCH  28  29
ATOM     29  O   UNL     1      44.914   7.642  12.856  0.00  0.00    +0.000 OA
ATOM     30  H   UNL     1      44.249   7.063  12.445  0.00  0.00    +0.000 HD
ENDBRANCH  28  29
ENDBRANCH   1  28
TORSDOF 10
ENDMDL
MODEL 7
REMARK VINA RESULT:    -5.970      1.948      2.265
REMARK INTER + INTRA:         -10.470
REMARK INTER:                  -9.913
REMARK INTRA:                  -0.557
REMARK UNBOUND:                -1.359
REMARK  Name = 
REMARK  10 active torsions:
REMARK  status: ('A' for Active; 'I' for Inactive)
REMARK    1  A    between atoms: C_2  and  C_3
REMARK    2  A    between atoms: N_7  and  C_8
REMARK    3  A    between atoms: C_8  and  C_9
REMARK    4  A    between atoms: C_9  and  C_10
REMARK    5  A    between atoms: C_9  and  C_12
REMARK    6  A    between atoms: C_10  and  O_11
REMARK    7  A    between atoms: C_14  and  S_15
REMARK    8  A    between atoms: S_15  and  C_16
REMARK    9  A    between atoms: C_16  and  C_17
REMARK   10  A    between atoms: C_20  and  O_21
REMARK                            x       y       z     vdW  Elec       q    Type
REMARK                         _______ _______ _______ _____ _____    ______ ____
ROOT
ATOM      1  C   UNL     1      44.529   5.635  12.271  0.00  0.00    +0.000 C 
ENDROOT
BRANCH   1   2
ATOM      2  C   UNL     1      45.993   5.978  12.490  0.00  0.00    +0.000 A 
ATOM      3  C   UNL     1      46.619   5.865  13.734  0.00  0.00    +0.000 A 
ATOM      4  C   UNL     1      47.947   6.267  13.879  0.00  0.00    +0.000 A 
ATOM      5  C   UNL     1      48.610   6.784  12.769  0.00  0.00    +0.000 A 
ATOM      6  C   UNL     1      47.925   6.865  11.570  0.00  0.00    +0.000 A 
ATOM      7  N   UNL     1      46.641   6.480  11.409  0.00  0.00    +0.000 NA
BRANCH   4   8
ATOM      8  S   UNL     1      48.747   6.357  15.473  0.00  0.00    +0.000 S 
BRANCH   8   9
ATOM      9  C   UNL     1      49.455   8.069  15.502  0.00  0.00    +0.000 C 
ATOM     10  C   UNL     1      49.485   8.687  16.921  0.00  0.00    +0.000 C 
ATOM     11  C   UNL     1      48.724   9.919  16.387  0.00  0.00    +0.000 C 
ATOM     12  C   UNL     1      48.326   9.088  15.150  0.00  0.00    +0.000 C 
BRANCH   9  13
ATOM     13  C   UNL     1      50.704   8.213  14.649  0.00  0.00    +0.000 C 
ATOM     14  F   UNL     1      51.800   8.045  15.442  0.00  0.00    +0.000 F 
ENDBRANCH   9  13
BRANCH  11  15
ATOM     15  O   UNL     1      47.639  10.372  17.217  0.00  0.00    +0.000 OA
ATOM     16  H   UNL     1      48.023  11.059  17.790  0.00  0.00    +0.000 HD
ENDBRANCH  11  15
ENDBRANCH   8   9
ENDBRANCH   4   8
ENDBRANCH   1   2
BRANCH   1  17
ATOM     17  C   UNL     1      44.077   5.567  10.801  0.00  0.00    +0.000 C 
BRANCH  17  22
ATOM     18  C   UNL     1      46.408   2.540   7.776  0.00  0.00    +0.000 A 
ATOM     19  C   UNL     1      45.703   1.803   8.693  0.00  0.00    +0.000 A 
ATOM     20  N   UNL     1      44.812   2.338   9.561  0.00  0.00    +0.000 NA
ATOM     21  C   UNL     1      44.614   3.659   9.487  0.00  0.00    +0.000 A 
ATOM     22  N   UNL     1      43.725   4.207  10.401  0.00  0.00    +0.000 N 
ATOM     23  N   UNL     1      45.241   4.455   8.608  0.00  0.00    +0.000 NA
ATOM     24  C   UNL     1      46.132   3.883   7.773  0.00  0.00    +0.000 A 
ATOM     25  H   UNL     1      43.633   3.533  11.155  0.00  0.00    +0.000 HD
BRANCH  18  27
ATOM     26  N   UNL     1      48.169   1.503   6.199  0.00  0.00    +0.000 NA
ATOM     27  C   UNL     1      47.372   1.965   6.905  0.00  0.00    +0.000 C 
ENDBRANCH  18  27
ENDBRANCH  17  22
ENDBRANCH   1  17
BRANCH   1  28
ATOM     28  C   UNL     1      44.217   4.298  12.967  0.00  0.00    +0.000 C 
BRANCH  28  29
ATOM     29  O   UNL     1      45.184   3.301  12.639  0.00  0.00    +0.000 OA
ATOM     30  H   UNL     1      44.849   2.808  11.871  0.00  0.00    +0.000 HD
ENDBRANCH  28  29
ENDBRANCH   1  28
TORSDOF 10
ENDMDL
MODEL 8
REMARK VINA RESULT:    -5.814      4.356      7.954
REMARK INTER + INTRA:         -10.233
REMARK INTER:                  -8.432
REMARK INTRA:                  -1.800
REMARK UNBOUND:                -1.359
REMARK  Name = 
REMARK  10 active torsions:
REMARK  status: ('A' for Active; 'I' for Inactive)
REMARK    1  A    between atoms: C_2  and  C_3
REMARK    2  A    between atoms: N_7  and  C_8
REMARK    3  A    between atoms: C_8  and  C_9
REMARK    4  A    between atoms: C_9  and  C_10
REMARK    5  A    between atoms: C_9  and  C_12
REMARK    6  A    between atoms: C_10  and  O_11
REMARK    7  A    between atoms: C_14  and  S_15
REMARK    8  A    between atoms: S_15  and  C_16
REMARK    9  A    between atoms: C_16  and  C_17
REMARK   10  A    between atoms: C_20  and  O_21
REMARK                            x       y       z     vdW  Elec       q    Type
REMARK                         _______ _______ _______ _____ _____    ______ ____
ROOT
ATOM      1  C   UNL     1      48.654   8.623  15.764  0.00  0.00    +0.000 C 
ENDROOT
BRANCH   1   2
ATOM      2  C   UNL     1      48.313   8.128  14.369  0.00  0.00    +0.000 A 
ATOM      3  C   UNL     1      47.045   8.279  13.801  0.00  0.00    +0.000 A 
ATOM      4  C   UNL     1      46.781   7.735  12.544  0.00  0.00    +0.000 A 
ATOM      5  C   UNL     1      47.798   7.042  11.893  0.00  0.00    +0.000 A 
ATOM      6  C   UNL     1      49.028   6.932  12.517  0.00  0.00    +0.000 A 
ATOM      7  N   UNL     1      49.303   7.453  13.732  0.00  0.00    +0.000 NA
BRANCH   4   8
ATOM      8  S   UNL     1      45.138   7.697  11.848  0.00  0.00    +0.000 S 
BRANCH   8   9
ATOM      9  C   UNL     1      44.699   5.897  11.879  0.00  0.00    +0.000 C 
ATOM     10  C   UNL     1      45.335   5.099  10.715  0.00  0.00    +0.000 C 
ATOM     11  C   UNL     1      43.937   4.570  10.330  0.00  0.00    +0.000 C 
ATOM     12  C   UNL     1      43.319   5.703  11.175  0.00  0.00    +0.000 C 
BRANCH   9  13
ATOM     13  C   UNL     1      44.773   5.288  13.269  0.00  0.00    +0.000 C 
ATOM     14  F   UNL     1      45.941   4.594  13.382  0.00  0.00    +0.000 F 
ENDBRANCH   9  13
BRANCH  11  15
ATOM     15  O   UNL     1      43.640   4.600   8.923  0.00  0.00    +0.000 OA
ATOM     16  H   UNL     1      43.001   3.880   8.779  0.00  0.00    +0.000 HD
ENDBRANCH  11  15
ENDBRANCH   8   9
ENDBRANCH   4   8
ENDBRANCH   1   2
BRANCH   1  17
ATOM     17  C   UNL     1      48.625   7.555  16.872  0.00  0.00    +0.000 C 
BRANCH  17  22
ATOM     18  C   UNL     1      51.200   3.474  17.554  0.00  0.00    +0.000 A 
ATOM     19  C   UNL     1      49.896   3.142  17.289  0.00  0.00    +0.000 A 
ATOM     20  N   UNL     1      48.963   4.035  16.881  0.00  0.00    +0.000 NA
ATOM     21  C   UNL     1      49.366   5.300  16.718  0.00  0.00    +0.000 A 
ATOM     22  N   UNL     1      48.397   6.216  16.333  0.00  0.00    +0.000 N 
ATOM     23  N   UNL     1      50.625   5.711  16.932  0.00  0.00    +0.000 NA
ATOM     24  C   UNL     1      51.518   4.792  17.352  0.00  0.00    +0.000 A 
ATOM     25  H   UNL     1      47.499   5.797  16.552  0.00  0.00    +0.000 HD
BRANCH  18  27
ATOM     26  N   UNL     1      52.922   1.751  18.410  0.00  0.00    +0.000 NA
ATOM     27  C   UNL     1      52.153   2.531  18.024  0.00  0.00    +0.000 C 
ENDBRANCH  18  27
ENDBRANCH  17  22
ENDBRANCH   1  17
BRANCH   1  28
ATOM     28  C   UNL     1      50.038   9.294  15.735  0.00  0.00    +0.000 C 
BRANCH  28  29
ATOM     29  O   UNL     1      51.069   8.381  16.108  0.00  0.00    +0.000 OA
ATOM     30  H   UNL     1      51.614   8.215  15.319  0.00  0.00    +0.000 HD
ENDBRANCH  28  29
ENDBRANCH   1  28
TORSDOF 10
ENDMDL
MODEL 9
REMARK VINA RESULT:    -5.748      3.801      6.425
REMARK INTER + INTRA:         -10.132
REMARK INTER:                  -8.644
REMARK INTRA:                  -1.489
REMARK UNBOUND:                -1.359
REMARK  Name = 
REMARK  10 active torsions:
REMARK  status: ('A' for Active; 'I' for Inactive)
REMARK    1  A    between atoms: C_2  and  C_3
REMARK    2  A    between atoms: N_7  and  C_8
REMARK    3  A    between atoms: C_8  and  C_9
REMARK    4  A    between atoms: C_9  and  C_10
REMARK    5  A    between atoms: C_9  and  C_12
REMARK    6  A    between atoms: C_10  and  O_11
REMARK    7  A    between atoms: C_14  and  S_15
REMARK    8  A    between atoms: S_15  and  C_16
REMARK    9  A    between atoms: C_16  and  C_17
REMARK   10  A    between atoms: C_20  and  O_21
REMARK                            x       y       z     vdW  Elec       q    Type
REMARK                         _______ _______ _______ _____ _____    ______ ____
ROOT
ATOM      1  C   UNL     1      49.492   8.508  13.868  0.00  0.00    +0.000 C 
ENDROOT
BRANCH   1   2
ATOM      2  C   UNL     1      49.559   8.032  15.309  0.00  0.00    +0.000 A 
ATOM      3  C   UNL     1      50.287   6.906  15.701  0.00  0.00    +0.000 A 
ATOM      4  C   UNL     1      50.246   6.483  17.030  0.00  0.00    +0.000 A 
ATOM      5  C   UNL     1      49.463   7.200  17.931  0.00  0.00    +0.000 A 
ATOM      6  C   UNL     1      48.770   8.305  17.471  0.00  0.00    +0.000 A 
ATOM      7  N   UNL     1      48.799   8.731  16.190  0.00  0.00    +0.000 NA
BRANCH   4   8
ATOM      8  S   UNL     1      50.967   4.939  17.562  0.00  0.00    +0.000 S 
BRANCH   8   9
ATOM      9  C   UNL     1      49.554   3.745  17.459  0.00  0.00    +0.000 C 
ATOM     10  C   UNL     1      48.340   4.311  16.684  0.00  0.00    +0.000 C 
ATOM     11  C   UNL     1      47.432   3.980  17.887  0.00  0.00    +0.000 C 
ATOM     12  C   UNL     1      48.699   3.864  18.760  0.00  0.00    +0.000 C 
BRANCH   9  13
ATOM     13  C   UNL     1      49.993   2.327  17.137  0.00  0.00    +0.000 C 
ATOM     14  F   UNL     1      49.039   1.738  16.360  0.00  0.00    +0.000 F 
ENDBRANCH   9  13
BRANCH  11  15
ATOM     15  O   UNL     1      46.506   5.018  18.256  0.00  0.00    +0.000 OA
ATOM     16  H   UNL     1      46.900   5.844  17.927  0.00  0.00    +0.000 HD
ENDBRANCH  11  15
ENDBRANCH   8   9
ENDBRANCH   4   8
ENDBRANCH   1   2
BRANCH   1  17
ATOM     17  C   UNL     1      48.433   7.816  12.990  0.00  0.00    +0.000 C 
BRANCH  17  22
ATOM     18  C   UNL     1      45.134   4.466  11.709  0.00  0.00    +0.000 A 
ATOM     19  C   UNL     1      45.377   4.364  13.055  0.00  0.00    +0.000 A 
ATOM     20  N   UNL     1      46.110   5.263  13.756  0.00  0.00    +0.000 NA
ATOM     21  C   UNL     1      46.597   6.307  13.076  0.00  0.00    +0.000 A 
ATOM     22  N   UNL     1      47.375   7.206  13.792  0.00  0.00    +0.000 N 
ATOM     23  N   UNL     1      46.391   6.500  11.764  0.00  0.00    +0.000 NA
ATOM     24  C   UNL     1      45.670   5.573  11.103  0.00  0.00    +0.000 A 
ATOM     25  H   UNL     1      47.678   6.722  14.632  0.00  0.00    +0.000 HD
BRANCH  18  27
ATOM     26  N   UNL     1      43.789   2.694  10.398  0.00  0.00    +0.000 NA
ATOM     27  C   UNL     1      44.401   3.489  10.984  0.00  0.00    +0.000 C 
ENDBRANCH  18  27
ENDBRANCH  17  22
ENDBRANCH   1  17
BRANCH   1  28
ATOM     28  C   UNL     1      49.258  10.029  13.852  0.00  0.00    +0.000 C 
BRANCH  28  29
ATOM     29  O   UNL     1      47.866  10.343  13.821  0.00  0.00    +0.000 OA
ATOM     30  H   UNL     1      47.425   9.666  13.279  0.00  0.00    +0.000 HD
ENDBRANCH  28  29
ENDBRANCH   1  28
TORSDOF 10
ENDMDL
