MODEL 1
REMARK VINA RESULT:    -8.684      0.000      0.000
REMARK INTER + INTRA:         -12.601
REMARK INTER:                 -11.730
REMARK INTRA:                  -0.871
REMARK UNBOUND:                -0.871
REMARK  Name = 
REMARK  9 active torsions:
REMARK  status: ('A' for Active; 'I' for Inactive)
REMARK    1  A    between atoms: C_1  and  C_2
REMARK    2  A    between atoms: C_2  and  N_3
REMARK    3  A    between atoms: N_6  and  C_7
REMARK    4  A    between atoms: C_11  and  C_12
REMARK    5  A    between atoms: C_12  and  C_13
REMARK    6  A    between atoms: C_12  and  C_14
REMARK    7  A    between atoms: C_12  and  C_15
REMARK    8  A    between atoms: C_15  and  N_16
REMARK    9  A    between atoms: C_20  and  C_21
REMARK                            x       y       z     vdW  Elec       q    Type
REMARK                         _______ _______ _______ _____ _____    ______ ____
ROOT
ATOM      1  C   UNL     1      44.002   4.697  12.096  0.00  0.00    +0.000 C 
ATOM      2  C   UNL     1      44.041   3.212  12.526  0.00  0.00    +0.000 C 
ATOM      3  C   UNL     1      42.834   5.377  12.851  0.00  0.00    +0.000 C 
ENDROOT
BRANCH   1   8
ATOM      4  C   UNL     1      47.244   5.522  14.073  0.00  0.00    +0.000 A 
ATOM      5  C   UNL     1      47.866   6.409  13.198  0.00  0.00    +0.000 A 
ATOM      6  C   UNL     1      47.245   6.787  12.003  0.00  0.00    +0.000 A 
ATOM      7  C   UNL     1      45.998   6.262  11.653  0.00  0.00    +0.000 A 
ATOM      8  C   UNL     1      45.324   5.381  12.509  0.00  0.00    +0.000 A 
ATOM      9  C   UNL     1      45.953   5.091  13.730  0.00  0.00    +0.000 A 
BRANCH   4  13
ATOM     10  N   UNL     1      48.004   4.692  18.148  0.00  0.00    +0.000 NA
ATOM     11  C   UNL     1      47.033   3.946  17.305  0.00  0.00    +0.000 C 
ATOM     12  C   UNL     1      47.456   3.748  15.831  0.00  0.00    +0.000 C 
ATOM     13  N   UNL     1      47.845   5.015  15.211  0.00  0.00    +0.000 N 
ATOM     14  C   UNL     1      48.704   5.918  16.007  0.00  0.00    +0.000 C 
ATOM     15  C   UNL     1      48.248   5.993  17.482  0.00  0.00    +0.000 C 
BRANCH  10  17
ATOM     16  C   UNL     1      50.349   4.661  19.059  0.00  0.00    +0.000 C 
ATOM     17  C   UNL     1      49.224   3.902  18.365  0.00  0.00    +0.000 C 
ENDBRANCH  10  17
ENDBRANCH   4  13
ENDBRANCH   1   8
BRANCH   1  18
ATOM     18  C   UNL     1      43.707   4.698  10.546  0.00  0.00    +0.000 C 
BRANCH  18  19
ATOM     19  N   UNL     1      43.753   3.364   9.945  0.00  0.00    +0.000 N 
ATOM     20  C   UNL     1      44.724   3.127   8.994  0.00  0.00    +0.000 A 
ATOM     21  N   UNL     1      45.172   1.865   8.896  0.00  0.00    +0.000 NA
ATOM     22  C   UNL     1      46.192   1.638   8.037  0.00  0.00    +0.000 A 
ATOM     23  C   UNL     1      46.709   2.607   7.213  0.00  0.00    +0.000 A 
ATOM     24  C   UNL     1      46.148   3.851   7.351  0.00  0.00    +0.000 A 
ATOM     25  N   UNL     1      45.166   4.128   8.231  0.00  0.00    +0.000 NA
ATOM     26  H   UNL     1      42.872   3.073   9.537  0.00  0.00    +0.000 HD
BRANCH  23  27
ATOM     27  C   UNL     1      47.809   2.306   6.288  0.00  0.00    +0.000 C 
ATOM     28  N   UNL     1      47.876   3.025   5.127  0.00  0.00    +0.000 N 
ATOM     29  O   UNL     1      48.618   1.424   6.536  0.00  0.00    +0.000 OA
ATOM     30  H   UNL     1      47.114   3.584   4.769  0.00  0.00    +0.000 HD
ATOM     31  H   UNL     1      48.587   2.738   4.466  0.00  0.00    +0.000 HD
ENDBRANCH  23  27
ENDBRANCH  18  19
ENDBRANCH   1  18
TORSDOF 6
ENDMDL
MODEL 2
REMARK VINA RESULT:    -7.781      1.823      2.271
REMARK INTER + INTRA:         -11.381
REMARK INTER:                 -10.772
REMARK INTRA:                  -0.609
REMARK UNBOUND:                -0.871
REMARK  Name = 
REMARK  9 active torsions:
REMARK  status: ('A' for Active; 'I' for Inactive)
REMARK    1  A    between atoms: C_1  and  C_2
REMARK    2  A    between atoms: C_2  and  N_3
REMARK    3  A    between atoms: N_6  and  C_7
REMARK    4  A    between atoms: C_11  and  C_12
REMARK    5  A    between atoms: C_12  and  C_13
REMARK    6  A    between atoms: C_12  and  C_14
REMARK    7  A    between atoms: C_12  and  C_15
REMARK    8  A    between atoms: C_15  and  N_16
REMARK    9  A    between atoms: C_20  and  C_21
REMARK                            x       y       z     vdW  Elec       q    Type
REMARK                         _______ _______ _______ _____ _____    ______ ____
ROOT
ATOM      1  C   UNL     1      44.411   5.276  12.117  0.00  0.00    +0.000 C 
ATOM      2  C   UNL     1      45.287   4.023  12.351  0.00  0.00    +0.000 C 
ATOM      3  C   UNL     1      43.199   5.190  13.077  0.00  0.00    +0.000 C 
ENDROOT
BRANCH   1   8
ATOM      4  C   UNL     1      47.276   7.544  13.438  0.00  0.00    +0.000 A 
ATOM      5  C   UNL     1      46.898   8.777  12.912  0.00  0.00    +0.000 A 
ATOM      6  C   UNL     1      45.715   8.908  12.178  0.00  0.00    +0.000 A 
ATOM      7  C   UNL     1      44.900   7.797  11.938  0.00  0.00    +0.000 A 
ATOM      8  C   UNL     1      45.229   6.540  12.463  0.00  0.00    +0.000 A 
ATOM      9  C   UNL     1      46.385   6.475  13.255  0.00  0.00    +0.000 A 
BRANCH   4  13
ATOM     10  N   UNL     1      50.532   7.990  16.098  0.00  0.00    +0.000 NA
ATOM     11  C   UNL     1      49.261   7.295  16.434  0.00  0.00    +0.000 C 
ATOM     12  C   UNL     1      48.621   6.495  15.276  0.00  0.00    +0.000 C 
ATOM     13  N   UNL     1      48.484   7.315  14.071  0.00  0.00    +0.000 N 
ATOM     14  C   UNL     1      49.637   8.164  13.701  0.00  0.00    +0.000 C 
ATOM     15  C   UNL     1      50.255   8.863  14.934  0.00  0.00    +0.000 C 
BRANCH  10  17
ATOM     16  C   UNL     1      51.889   6.093  17.042  0.00  0.00    +0.000 C 
ATOM     17  C   UNL     1      51.612   7.020  15.865  0.00  0.00    +0.000 C 
ENDBRANCH  10  17
ENDBRANCH   4  13
ENDBRANCH   1   8
BRANCH   1  18
ATOM     18  C   UNL     1      43.914   5.192  10.622  0.00  0.00    +0.000 C 
BRANCH  18  19
ATOM     19  N   UNL     1      43.824   3.821  10.115  0.00  0.00    +0.000 N 
ATOM     20  C   UNL     1      44.733   3.438   9.152  0.00  0.00    +0.000 A 
ATOM     21  N   UNL     1      45.069   2.138   9.128  0.00  0.00    +0.000 NA
ATOM     22  C   UNL     1      46.031   1.766   8.255  0.00  0.00    +0.000 A 
ATOM     23  C   UNL     1      46.596   2.629   7.347  0.00  0.00    +0.000 A 
ATOM     24  C   UNL     1      46.147   3.923   7.416  0.00  0.00    +0.000 A 
ATOM     25  N   UNL     1      45.227   4.343   8.305  0.00  0.00    +0.000 NA
ATOM     26  H   UNL     1      42.906   3.581   9.759  0.00  0.00    +0.000 HD
BRANCH  23  27
ATOM     27  C   UNL     1      47.629   2.171   6.410  0.00  0.00    +0.000 C 
ATOM     28  N   UNL     1      47.889   2.956   5.321  0.00  0.00    +0.000 N 
ATOM     29  O   UNL     1      48.215   1.113   6.584  0.00  0.00    +0.000 OA
ATOM     30  H   UNL     1      47.282   3.701   5.008  0.00  0.00    +0.000 HD
ATOM     31  H   UNL     1      48.539   2.576   4.643  0.00  0.00    +0.000 HD
ENDBRANCH  23  27
ENDBRANCH  18  19
ENDBRANCH   1  18
TORSDOF 6
ENDMDL
MODEL 3
REMARK VINA RESULT:    -7.235      3.094      8.163
REMARK INTER + INTRA:         -10.644
REMARK INTER:                  -9.651
REMARK INTRA:                  -0.993
REMARK UNBOUND:                -0.871
REMARK  Name = 
REMARK  9 active torsions:
REMARK  status: ('A' for Active; 'I' for Inactive)
REMARK    1  A    between atoms: C_1  and  C_2
REMARK    2  A    between atoms: C_2  and  N_3
REMARK    3  A    between atoms: N_6  and  C_7
REMARK    4  A    between atoms: C_11  and  C_12
REMARK    5  A    between atoms: C_12  and  C_13
REMARK    6  A    between atoms: C_12  and  C_14
REMARK    7  A    between atoms: C_12  and  C_15
REMARK    8  A    between atoms: C_15  and  N_16
REMARK    9  A    between atoms: C_20  and  C_21
REMARK                            x       y       z     vdW  Elec       q    Type
REMARK                         _______ _______ _______ _____ _____    ______ ____
ROOT
ATOM      1  C   UNL     1      49.423   8.504  12.543  0.00  0.00    +0.000 C 
ATOM      2  C   UNL     1      50.133   8.064  11.241  0.00  0.00    +0.000 C 
ATOM      3  C   UNL     1      49.711  10.011  12.752  0.00  0.00    +0.000 C 
ENDROOT
BRANCH   1   8
ATOM      4  C   UNL     1      45.995   6.812  11.843  0.00  0.00    +0.000 A 
ATOM      5  C   UNL     1      45.121   7.793  12.302  0.00  0.00    +0.000 A 
ATOM      6  C   UNL     1      45.605   9.011  12.790  0.00  0.00    +0.000 A 
ATOM      7  C   UNL     1      46.980   9.256  12.850  0.00  0.00    +0.000 A 
ATOM      8  C   UNL     1      47.899   8.308  12.383  0.00  0.00    +0.000 A 
ATOM      9  C   UNL     1      47.362   7.134  11.832  0.00  0.00    +0.000 A 
BRANCH   4  13
ATOM     10  N   UNL     1      43.505   3.568  10.773  0.00  0.00    +0.000 NA
ATOM     11  C   UNL     1      43.945   4.634   9.835  0.00  0.00    +0.000 C 
ATOM     12  C   UNL     1      45.382   5.158  10.061  0.00  0.00    +0.000 C 
ATOM     13  N   UNL     1      45.598   5.545  11.456  0.00  0.00    +0.000 N 
ATOM     14  C   UNL     1      45.080   4.630  12.496  0.00  0.00    +0.000 C 
ATOM     15  C   UNL     1      43.670   4.100  12.145  0.00  0.00    +0.000 C 
BRANCH  10  17
ATOM     16  C   UNL     1      44.581   2.063   9.067  0.00  0.00    +0.000 C 
ATOM     17  C   UNL     1      44.244   2.320  10.532  0.00  0.00    +0.000 C 
ENDBRANCH  10  17
ENDBRANCH   4  13
ENDBRANCH   1   8
BRANCH   1  18
ATOM     18  C   UNL     1      50.083   7.669  13.708  0.00  0.00    +0.000 C 
BRANCH  18  19
ATOM     19  N   UNL     1      49.480   7.921  15.018  0.00  0.00    +0.000 N 
ATOM     20  C   UNL     1      48.906   6.850  15.670  0.00  0.00    +0.000 A 
ATOM     21  N   UNL     1      48.915   6.892  17.013  0.00  0.00    +0.000 NA
ATOM     22  C   UNL     1      48.445   5.806  17.667  0.00  0.00    +0.000 A 
ATOM     23  C   UNL     1      47.885   4.728  17.025  0.00  0.00    +0.000 A 
ATOM     24  C   UNL     1      47.875   4.804  15.655  0.00  0.00    +0.000 A 
ATOM     25  N   UNL     1      48.379   5.847  14.967  0.00  0.00    +0.000 NA
ATOM     26  H   UNL     1      48.787   8.660  15.008  0.00  0.00    +0.000 HD
BRANCH  23  27
ATOM     27  C   UNL     1      47.376   3.577  17.782  0.00  0.00    +0.000 C 
ATOM     28  N   UNL     1      48.044   3.221  18.920  0.00  0.00    +0.000 N 
ATOM     29  O   UNL     1      46.405   2.944  17.391  0.00  0.00    +0.000 OA
ATOM     30  H   UNL     1      48.970   3.551  19.153  0.00  0.00    +0.000 HD
ATOM     31  H   UNL     1      47.730   2.372  19.374  0.00  0.00    +0.000 HD
ENDBRANCH  23  27
ENDBRANCH  18  19
ENDBRANCH   1  18
TORSDOF 6
ENDMDL
MODEL 4
REMARK VINA RESULT:    -7.184      2.976      3.746
REMARK INTER + INTRA:         -10.575
REMARK INTER:                 -10.018
REMARK INTRA:                  -0.558
REMARK UNBOUND:                -0.871
REMARK  Name = 
REMARK  9 active torsions:
REMARK  status: ('A' for Active; 'I' for Inactive)
REMARK    1  A    between atoms: C_1  and  C_2
REMARK    2  A    between atoms: C_2  and  N_3
REMARK    3  A    between atoms: N_6  and  C_7
REMARK    4  A    between atoms: C_11  and  C_12
REMARK    5  A    between atoms: C_12  and  C_13
REMARK    6  A    between atoms: C_12  and  C_14
REMARK    7  A    between atoms: C_12  and  C_15
REMARK    8  A    between atoms: C_15  and  N_16
REMARK    9  A    between atoms: C_20  and  C_21
REMARK                            x       y       z     vdW  Elec       q    Type
REMARK                         _______ _______ _______ _____ _____    ______ ____
ROOT
ATOM      1  C   UNL     1      44.570   5.607  11.870  0.00  0.00    +0.000 C 
ATOM      2  C   UNL     1      45.644   4.506  12.030  0.00  0.00    +0.000 C 
ATOM      3  C   UNL     1      43.517   5.404  12.988  0.00  0.00    +0.000 C 
ENDROOT
BRANCH   1   8
ATOM      4  C   UNL     1      47.293   8.350  12.270  0.00  0.00    +0.000 A 
ATOM      5  C   UNL     1      46.523   9.503  12.144  0.00  0.00    +0.000 A 
ATOM      6  C   UNL     1      45.137   9.422  11.978  0.00  0.00    +0.000 A 
ATOM      7  C   UNL     1      44.500   8.180  11.913  0.00  0.00    +0.000 A 
ATOM      8  C   UNL     1      45.229   6.991  12.054  0.00  0.00    +0.000 A 
ATOM      9  C   UNL     1      46.605   7.126  12.294  0.00  0.00    +0.000 A 
BRANCH   4  13
ATOM     10  N   UNL     1      51.243   9.301  13.440  0.00  0.00    +0.000 NA
ATOM     11  C   UNL     1      50.375   8.313  14.135  0.00  0.00    +0.000 C 
ATOM     12  C   UNL     1      49.449   7.486  13.214  0.00  0.00    +0.000 C 
ATOM     13  N   UNL     1      48.675   8.347  12.319  0.00  0.00    +0.000 N 
ATOM     14  C   UNL     1      49.397   9.461  11.667  0.00  0.00    +0.000 C 
ATOM     15  C   UNL     1      50.353  10.179  12.647  0.00  0.00    +0.000 C 
BRANCH  10  17
ATOM     16  C   UNL     1      53.471   8.130  13.435  0.00  0.00    +0.000 C 
ATOM     17  C   UNL     1      52.268   8.620  12.636  0.00  0.00    +0.000 C 
ENDBRANCH  10  17
ENDBRANCH   4  13
ENDBRANCH   1   8
BRANCH   1  18
ATOM     18  C   UNL     1      43.902   5.368  10.461  0.00  0.00    +0.000 C 
BRANCH  18  19
ATOM     19  N   UNL     1      43.845   3.956  10.076  0.00  0.00    +0.000 N 
ATOM     20  C   UNL     1      44.747   3.519   9.128  0.00  0.00    +0.000 A 
ATOM     21  N   UNL     1      45.124   2.232   9.209  0.00  0.00    +0.000 NA
ATOM     22  C   UNL     1      46.080   1.814   8.349  0.00  0.00    +0.000 A 
ATOM     23  C   UNL     1      46.599   2.612   7.359  0.00  0.00    +0.000 A 
ATOM     24  C   UNL     1      46.111   3.894   7.326  0.00  0.00    +0.000 A 
ATOM     25  N   UNL     1      45.196   4.361   8.197  0.00  0.00    +0.000 NA
ATOM     26  H   UNL     1      42.929   3.659   9.762  0.00  0.00    +0.000 HD
BRANCH  23  27
ATOM     27  C   UNL     1      47.627   2.107   6.441  0.00  0.00    +0.000 C 
ATOM     28  N   UNL     1      47.860   2.816   5.296  0.00  0.00    +0.000 N 
ATOM     29  O   UNL     1      48.234   1.072   6.681  0.00  0.00    +0.000 OA
ATOM     30  H   UNL     1      47.235   3.527   4.940  0.00  0.00    +0.000 HD
ATOM     31  H   UNL     1      48.507   2.400   4.637  0.00  0.00    +0.000 HD
ENDBRANCH  23  27
ENDBRANCH  18  19
ENDBRANCH   1  18
TORSDOF 6
ENDMDL
MODEL 5
REMARK VINA RESULT:    -6.631      3.980      8.527
REMARK INTER + INTRA:          -9.827
REMARK INTER:                  -9.134
REMARK INTRA:                  -0.693
REMARK UNBOUND:                -0.871
REMARK  Name = 
REMARK  9 active torsions:
REMARK  status: ('A' for Active; 'I' for Inactive)
REMARK    1  A    between atoms: C_1  and  C_2
REMARK    2  A    between atoms: C_2  and  N_3
REMARK    3  A    between atoms: N_6  and  C_7
REMARK    4  A    between atoms: C_11  and  C_12
REMARK    5  A    between atoms: C_12  and  C_13
REMARK    6  A    between atoms: C_12  and  C_14
REMARK    7  A    between atoms: C_12  and  C_15
REMARK    8  A    between atoms: C_15  and  N_16
REMARK    9  A    between atoms: C_20  and  C_21
REMARK                            x       y       z     vdW  Elec       q    Type
REMARK                         _______ _______ _______ _____ _____    ______ ____
ROOT
ATOM      1  C   UNL     1      49.558   8.830  12.132  0.00  0.00    +0.000 C 
ATOM      2  C   UNL     1      50.151   7.611  11.386  0.00  0.00    +0.000 C 
ATOM      3  C   UNL     1      50.068  10.110  11.424  0.00  0.00    +0.000 C 
ENDROOT
BRANCH   1   8
ATOM      4  C   UNL     1      45.932   7.451  11.911  0.00  0.00    +0.000 A 
ATOM      5  C   UNL     1      45.196   8.618  12.093  0.00  0.00    +0.000 A 
ATOM      6  C   UNL     1      45.839   9.852  12.240  0.00  0.00    +0.000 A 
ATOM      7  C   UNL     1      47.234   9.933  12.230  0.00  0.00    +0.000 A 
ATOM      8  C   UNL     1      48.018   8.788  12.031  0.00  0.00    +0.000 A 
ATOM      9  C   UNL     1      47.327   7.587  11.813  0.00  0.00    +0.000 A 
BRANCH   4  13
ATOM     10  N   UNL     1      43.037   4.372  11.806  0.00  0.00    +0.000 NA
ATOM     11  C   UNL     1      43.522   5.110  10.610  0.00  0.00    +0.000 C 
ATOM     12  C   UNL     1      45.020   5.494  10.636  0.00  0.00    +0.000 C 
ATOM     13  N   UNL     1      45.374   6.186  11.876  0.00  0.00    +0.000 N 
ATOM     14  C   UNL     1      44.835   5.627  13.135  0.00  0.00    +0.000 C 
ATOM     15  C   UNL     1      43.356   5.203  12.989  0.00  0.00    +0.000 C 
BRANCH  10  17
ATOM     16  C   UNL     1      44.080   2.484  10.510  0.00  0.00    +0.000 C 
ATOM     17  C   UNL     1      43.619   3.023  11.859  0.00  0.00    +0.000 C 
ENDBRANCH  10  17
ENDBRANCH   4  13
ENDBRANCH   1   8
BRANCH   1  18
ATOM     18  C   UNL     1      50.132   8.769  13.600  0.00  0.00    +0.000 C 
BRANCH  18  19
ATOM     19  N   UNL     1      50.242   7.407  14.125  0.00  0.00    +0.000 N 
ATOM     20  C   UNL     1      49.664   7.149  15.351  0.00  0.00    +0.000 A 
ATOM     21  N   UNL     1      49.222   5.897  15.554  0.00  0.00    +0.000 NA
ATOM     22  C   UNL     1      48.567   5.654  16.711  0.00  0.00    +0.000 A 
ATOM     23  C   UNL     1      48.423   6.593  17.704  0.00  0.00    +0.000 A 
ATOM     24  C   UNL     1      48.955   7.826  17.422  0.00  0.00    +0.000 A 
ATOM     25  N   UNL     1      49.571   8.120  16.261  0.00  0.00    +0.000 NA
ATOM     26  H   UNL     1      51.195   7.069  14.178  0.00  0.00    +0.000 HD
BRANCH  23  27
ATOM     27  C   UNL     1      47.713   6.276  18.949  0.00  0.00    +0.000 C 
ATOM     28  N   UNL     1      46.547   5.569  18.852  0.00  0.00    +0.000 N 
ATOM     29  O   UNL     1      48.138   6.655  20.031  0.00  0.00    +0.000 OA
ATOM     30  H   UNL     1      46.038   5.443  17.988  0.00  0.00    +0.000 HD
ATOM     31  H   UNL     1      46.030   5.441  19.714  0.00  0.00    +0.000 HD
ENDBRANCH  23  27
ENDBRANCH  18  19
ENDBRANCH   1  18
TORSDOF 6
ENDMDL
MODEL 6
REMARK VINA RESULT:    -6.453      3.627      6.251
REMARK INTER + INTRA:          -9.588
REMARK INTER:                  -8.873
REMARK INTRA:                  -0.715
REMARK UNBOUND:                -0.871
REMARK  Name = 
REMARK  9 active torsions:
REMARK  status: ('A' for Active; 'I' for Inactive)
REMARK    1  A    between atoms: C_1  and  C_2
REMARK    2  A    between atoms: C_2  and  N_3
REMARK    3  A    between atoms: N_6  and  C_7
REMARK    4  A    between atoms: C_11  and  C_12
REMARK    5  A    between atoms: C_12  and  C_13
REMARK    6  A    between atoms: C_12  and  C_14
REMARK    7  A    between atoms: C_12  and  C_15
REMARK    8  A    between atoms: C_15  and  N_16
REMARK    9  A    between atoms: C_20  and  C_21
REMARK                            x       y       z     vdW  Elec       q    Type
REMARK                         _______ _______ _______ _____ _____    ______ ____
ROOT
ATOM      1  C   UNL     1      48.268   4.509  16.889  0.00  0.00    +0.000 C 
ATOM      2  C   UNL     1      48.042   2.980  16.825  0.00  0.00    +0.000 C 
ATOM      3  C   UNL     1      47.424   5.061  18.064  0.00  0.00    +0.000 C 
ENDROOT
BRANCH   1   8
ATOM      4  C   UNL     1      52.002   3.934  17.800  0.00  0.00    +0.000 A 
ATOM      5  C   UNL     1      52.544   5.175  17.477  0.00  0.00    +0.000 A 
ATOM      6  C   UNL     1      51.728   6.213  17.014  0.00  0.00    +0.000 A 
ATOM      7  C   UNL     1      50.355   6.016  16.845  0.00  0.00    +0.000 A 
ATOM      8  C   UNL     1      49.760   4.791  17.175  0.00  0.00    +0.000 A 
ATOM      9  C   UNL     1      50.606   3.806  17.706  0.00  0.00    +0.000 A 
BRANCH   4  13
ATOM     10  N   UNL     1      54.581   0.601  17.470  0.00  0.00    +0.000 NA
ATOM     11  C   UNL     1      55.040   2.009  17.596  0.00  0.00    +0.000 C 
ATOM     12  C   UNL     1      54.174   2.905  18.512  0.00  0.00    +0.000 C 
ATOM     13  N   UNL     1      52.758   2.830  18.150  0.00  0.00    +0.000 N 
ATOM     14  C   UNL     1      52.207   1.489  17.862  0.00  0.00    +0.000 C 
ATOM     15  C   UNL     1      53.176   0.642  17.004  0.00  0.00    +0.000 C 
BRANCH  10  17
ATOM     16  C   UNL     1      54.161  -1.525  18.750  0.00  0.00    +0.000 C 
ATOM     17  C   UNL     1      54.762  -0.124  18.736  0.00  0.00    +0.000 C 
ENDBRANCH  10  17
ENDBRANCH   4  13
ENDBRANCH   1   8
BRANCH   1  18
ATOM     18  C   UNL     1      47.729   5.091  15.525  0.00  0.00    +0.000 C 
BRANCH  18  19
ATOM     19  N   UNL     1      46.478   4.472  15.084  0.00  0.00    +0.000 N 
ATOM     20  C   UNL     1      46.114   4.643  13.764  0.00  0.00    +0.000 A 
ATOM     21  N   UNL     1      45.387   3.658  13.211  0.00  0.00    +0.000 NA
ATOM     22  C   UNL     1      45.107   3.766  11.892  0.00  0.00    +0.000 A 
ATOM     23  C   UNL     1      45.450   4.862  11.139  0.00  0.00    +0.000 A 
ATOM     24  C   UNL     1      46.145   5.836  11.809  0.00  0.00    +0.000 A 
ATOM     25  N   UNL     1      46.486   5.744  13.109  0.00  0.00    +0.000 NA
ATOM     26  H   UNL     1      45.675   4.740  15.642  0.00  0.00    +0.000 HD
BRANCH  23  27
ATOM     27  C   UNL     1      45.111   4.935   9.712  0.00  0.00    +0.000 C 
ATOM     28  N   UNL     1      43.839   4.593   9.344  0.00  0.00    +0.000 N 
ATOM     29  O   UNL     1      45.946   5.264   8.881  0.00  0.00    +0.000 OA
ATOM     30  H   UNL     1      43.196   4.096   9.944  0.00  0.00    +0.000 HD
ATOM     31  H   UNL     1      43.657   4.565   8.348  0.00  0.00    +0.000 HD
ENDBRANCH  23  27
ENDBRANCH  18  19
ENDBRANCH   1  18
TORSDOF 6
ENDMDL
MODEL 7
REMARK VINA RESULT:    -6.342      3.863      8.789
REMARK INTER + INTRA:          -9.438
REMARK INTER:                  -8.712
REMARK INTRA:                  -0.726
REMARK UNBOUND:                -0.871
REMARK  Name = 
REMARK  9 active torsions:
REMARK  status: ('A' for Active; 'I' for Inactive)
REMARK    1  A    between atoms: C_1  and  C_2
REMARK    2  A    between atoms: C_2  and  N_3
REMARK    3  A    between atoms: N_6  and  C_7
REMARK    4  A    between atoms: C_11  and  C_12
REMARK    5  A    between atoms: C_12  and  C_13
REMARK    6  A    between atoms: C_12  and  C_14
REMARK    7  A    between atoms: C_12  and  C_15
REMARK    8  A    between atoms: C_15  and  N_16
REMARK    9  A    between atoms: C_20  and  C_21
REMARK                            x       y       z     vdW  Elec       q    Type
REMARK                         _______ _______ _______ _____ _____    ______ ____
ROOT
ATOM      1  C   UNL     1      50.444   7.519  15.624  0.00  0.00    +0.000 C 
ATOM      2  C   UNL     1      51.980   7.472  15.452  0.00  0.00    +0.000 C 
ATOM      3  C   UNL     1      50.083   8.878  16.272  0.00  0.00    +0.000 C 
ENDROOT
BRANCH   1   8
ATOM      4  C   UNL     1      47.801   6.828  12.860  0.00  0.00    +0.000 A 
ATOM      5  C   UNL     1      48.381   7.477  11.775  0.00  0.00    +0.000 A 
ATOM      6  C   UNL     1      49.630   8.096  11.896  0.00  0.00    +0.000 A 
ATOM      7  C   UNL     1      50.308   8.094  13.118  0.00  0.00    +0.000 A 
ATOM      8  C   UNL     1      49.774   7.438  14.235  0.00  0.00    +0.000 A 
ATOM      9  C   UNL     1      48.556   6.768  14.043  0.00  0.00    +0.000 A 
BRANCH   4  13
ATOM     10  N   UNL     1      44.493   4.421  11.792  0.00  0.00    +0.000 NA
ATOM     11  C   UNL     1      45.568   4.004  12.731  0.00  0.00    +0.000 C 
ATOM     12  C   UNL     1      46.128   5.128  13.633  0.00  0.00    +0.000 C 
ATOM     13  N   UNL     1      46.524   6.297  12.848  0.00  0.00    +0.000 N 
ATOM     14  C   UNL     1      45.598   6.735  11.781  0.00  0.00    +0.000 C 
ATOM     15  C   UNL     1      45.032   5.538  10.983  0.00  0.00    +0.000 C 
BRANCH  10  17
ATOM     16  C   UNL     1      42.247   5.554  11.709  0.00  0.00    +0.000 C 
ATOM     17  C   UNL     1      43.264   4.762  12.523  0.00  0.00    +0.000 C 
ENDBRANCH  10  17
ENDBRANCH   4  13
ENDBRANCH   1   8
BRANCH   1  18
ATOM     18  C   UNL     1      50.076   6.344  16.611  0.00  0.00    +0.000 C 
BRANCH  18  19
ATOM     19  N   UNL     1      51.169   5.980  17.515  0.00  0.00    +0.000 N 
ATOM     20  C   UNL     1      51.511   4.647  17.595  0.00  0.00    +0.000 A 
ATOM     21  N   UNL     1      52.794   4.374  17.885  0.00  0.00    +0.000 NA
ATOM     22  C   UNL     1      53.167   3.074  17.871  0.00  0.00    +0.000 A 
ATOM     23  C   UNL     1      52.283   2.042  17.668  0.00  0.00    +0.000 A 
ATOM     24  C   UNL     1      50.986   2.423  17.432  0.00  0.00    +0.000 A 
ATOM     25  N   UNL     1      50.586   3.708  17.389  0.00  0.00    +0.000 NA
ATOM     26  H   UNL     1      51.031   6.301  18.466  0.00  0.00    +0.000 HD
BRANCH  23  27
ATOM     27  C   UNL     1      52.735   0.646  17.675  0.00  0.00    +0.000 C 
ATOM     28  N   UNL     1      52.016  -0.251  18.414  0.00  0.00    +0.000 N 
ATOM     29  O   UNL     1      53.737   0.304  17.062  0.00  0.00    +0.000 OA
ATOM     30  H   UNL     1      51.338   0.016  19.115  0.00  0.00    +0.000 HD
ATOM     31  H   UNL     1      52.398  -1.187  18.476  0.00  0.00    +0.000 HD
ENDBRANCH  23  27
ENDBRANCH  18  19
ENDBRANCH   1  18
TORSDOF 6
ENDMDL
MODEL 8
REMARK VINA RESULT:    -5.872      3.105      5.022
REMARK INTER + INTRA:          -8.802
REMARK INTER:                  -7.961
REMARK INTRA:                  -0.841
REMARK UNBOUND:                -0.871
REMARK  Name = 
REMARK  9 active torsions:
REMARK  status: ('A' for Active; 'I' for Inactive)
REMARK    1  A    between atoms: C_1  and  C_2
REMARK    2  A    between atoms: C_2  and  N_3
REMARK    3  A    between atoms: N_6  and  C_7
REMARK    4  A    between atoms: C_11  and  C_12
REMARK    5  A    between atoms: C_12  and  C_13
REMARK    6  A    between atoms: C_12  and  C_14
REMARK    7  A    between atoms: C_12  and  C_15
REMARK    8  A    between atoms: C_15  and  N_16
REMARK    9  A    between atoms: C_20  and  C_21
REMARK                            x       y       z     vdW  Elec       q    Type
REMARK                         _______ _______ _______ _____ _____    ______ ____
ROOT
ATOM      1  C   UNL     1      48.046   9.434  12.459  0.00  0.00    +0.000 C 
ATOM      2  C   UNL     1      46.852  10.363  12.137  0.00  0.00    +0.000 C 
ATOM      3  C   UNL     1      49.208   9.812  11.507  0.00  0.00    +0.000 C 
ENDROOT
BRANCH   1   8
ATOM      4  C   UNL     1      49.053   8.747  16.148  0.00  0.00    +0.000 A 
ATOM      5  C   UNL     1      49.555   9.992  16.519  0.00  0.00    +0.000 A 
ATOM      6  C   UNL     1      49.535  11.066  15.623  0.00  0.00    +0.000 A 
ATOM      7  C   UNL     1      49.032  10.903  14.329  0.00  0.00    +0.000 A 
ATOM      8  C   UNL     1      48.500   9.674  13.915  0.00  0.00    +0.000 A 
ATOM      9  C   UNL     1      48.473   8.649  14.873  0.00  0.00    +0.000 A 
BRANCH   4  13
ATOM     10  N   UNL     1      47.936   5.271  18.279  0.00  0.00    +0.000 NA
ATOM     11  C   UNL     1      48.222   5.307  16.820  0.00  0.00    +0.000 C 
ATOM     12  C   UNL     1      49.354   6.270  16.395  0.00  0.00    +0.000 C 
ATOM     13  N   UNL     1      49.146   7.614  16.936  0.00  0.00    +0.000 N 
ATOM     14  C   UNL     1      48.721   7.711  18.349  0.00  0.00    +0.000 C 
ATOM     15  C   UNL     1      47.642   6.660  18.699  0.00  0.00    +0.000 C 
BRANCH  10  17
ATOM     16  C   UNL     1      48.778   4.436  20.499  0.00  0.00    +0.000 C 
ATOM     17  C   UNL     1      49.050   4.655  19.015  0.00  0.00    +0.000 C 
ENDBRANCH  10  17
ENDBRANCH   4  13
ENDBRANCH   1   8
BRANCH   1  18
ATOM     18  C   UNL     1      47.559   7.966  12.146  0.00  0.00    +0.000 C 
BRANCH  18  19
ATOM     19  N   UNL     1      46.177   7.712  12.559  0.00  0.00    +0.000 N 
ATOM     20  C   UNL     1      45.587   6.544  12.124  0.00  0.00    +0.000 A 
ATOM     21  N   UNL     1      44.646   6.014  12.923  0.00  0.00    +0.000 NA
ATOM     22  C   UNL     1      44.130   4.819  12.559  0.00  0.00    +0.000 A 
ATOM     23  C   UNL     1      44.454   4.189  11.382  0.00  0.00    +0.000 A 
ATOM     24  C   UNL     1      45.384   4.837  10.610  0.00  0.00    +0.000 A 
ATOM     25  N   UNL     1      45.959   6.003  10.963  0.00  0.00    +0.000 NA
ATOM     26  H   UNL     1      45.540   8.464  12.323  0.00  0.00    +0.000 HD
BRANCH  23  27
ATOM     27  C   UNL     1      43.854   2.897  11.025  0.00  0.00    +0.000 C 
ATOM     28  N   UNL     1      44.376   2.230   9.952  0.00  0.00    +0.000 N 
ATOM     29  O   UNL     1      42.904   2.448  11.650  0.00  0.00    +0.000 OA
ATOM     30  H   UNL     1      44.988   2.657   9.270  0.00  0.00    +0.000 HD
ATOM     31  H   UNL     1      43.889   1.388   9.671  0.00  0.00    +0.000 HD
ENDBRANCH  23  27
ENDBRANCH  18  19
ENDBRANCH   1  18
TORSDOF 6
ENDMDL
MODEL 9
REMARK VINA RESULT:    -5.837      3.492      6.505
REMARK INTER + INTRA:          -8.756
REMARK INTER:                  -7.416
REMARK INTRA:                  -1.340
REMARK UNBOUND:                -0.871
REMARK  Name = 
REMARK  9 active torsions:
REMARK  status: ('A' for Active; 'I' for Inactive)
REMARK    1  A    between atoms: C_1  and  C_2
REMARK    2  A    between atoms: C_2  and  N_3
REMARK    3  A    between atoms: N_6  and  C_7
REMARK    4  A    between atoms: C_11  and  C_12
REMARK    5  A    between atoms: C_12  and  C_13
REMARK    6  A    between atoms: C_12  and  C_14
REMARK    7  A    between atoms: C_12  and  C_15
REMARK    8  A    between atoms: C_15  and  N_16
REMARK    9  A    between atoms: C_20  and  C_21
REMARK                            x       y       z     vdW  Elec       q    Type
REMARK                         _______ _______ _______ _____ _____    ______ ____
ROOT
ATOM      1  C   UNL     1      48.959   3.973  17.378  0.00  0.00    +0.000 C 
ATOM      2  C   UNL     1      50.446   3.553  17.463  0.00  0.00    +0.000 C 
ATOM      3  C   UNL     1      48.200   3.250  18.518  0.00  0.00    +0.000 C 
ENDROOT
BRANCH   1   8
ATOM      4  C   UNL     1      49.131   7.797  16.710  0.00  0.00    +0.000 A 
ATOM      5  C   UNL     1      48.447   8.287  17.818  0.00  0.00    +0.000 A 
ATOM      6  C   UNL     1      47.969   7.419  18.805  0.00  0.00    +0.000 A 
ATOM      7  C   UNL     1      48.149   6.038  18.684  0.00  0.00    +0.000 A 
ATOM      8  C   UNL     1      48.847   5.497  17.596  0.00  0.00    +0.000 A 
ATOM      9  C   UNL     1      49.373   6.414  16.672  0.00  0.00    +0.000 A 
BRANCH   4  13
ATOM     10  N   UNL     1      49.544   9.233  12.755  0.00  0.00    +0.000 NA
ATOM     11  C   UNL     1      48.398   9.549  13.649  0.00  0.00    +0.000 C 
ATOM     12  C   UNL     1      48.756   9.718  15.143  0.00  0.00    +0.000 C 
ATOM     13  N   UNL     1      49.529   8.580  15.641  0.00  0.00    +0.000 N 
ATOM     14  C   UNL     1      50.618   8.077  14.776  0.00  0.00    +0.000 C 
ATOM     15  C   UNL     1      50.190   8.014  13.291  0.00  0.00    +0.000 C 
BRANCH  10  17
ATOM     16  C   UNL     1      51.686  10.129  11.784  0.00  0.00    +0.000 C 
ATOM     17  C   UNL     1      50.453  10.383  12.644  0.00  0.00    +0.000 C 
ENDBRANCH  10  17
ENDBRANCH   4  13
ENDBRANCH   1   8
BRANCH   1  18
ATOM     18  C   UNL     1      48.436   3.459  15.981  0.00  0.00    +0.000 C 
BRANCH  18  19
ATOM     19  N   UNL     1      47.022   3.754  15.746  0.00  0.00    +0.000 N 
ATOM     20  C   UNL     1      46.694   4.412  14.578  0.00  0.00    +0.000 A 
ATOM     21  N   UNL     1      45.479   4.155  14.066  0.00  0.00    +0.000 NA
ATOM     22  C   UNL     1      45.182   4.716  12.873  0.00  0.00    +0.000 A 
ATOM     23  C   UNL     1      46.019   5.592  12.226  0.00  0.00    +0.000 A 
ATOM     24  C   UNL     1      47.214   5.830  12.856  0.00  0.00    +0.000 A 
ATOM     25  N   UNL     1      47.567   5.252  14.021  0.00  0.00    +0.000 NA
ATOM     26  H   UNL     1      46.585   4.269  16.501  0.00  0.00    +0.000 HD
BRANCH  23  27
ATOM     27  C   UNL     1      45.644   6.185  10.937  0.00  0.00    +0.000 C 
ATOM     28  N   UNL     1      44.913   7.340  10.958  0.00  0.00    +0.000 N 
ATOM     29  O   UNL     1      45.952   5.648   9.882  0.00  0.00    +0.000 OA
ATOM     30  H   UNL     1      44.438   7.688  11.779  0.00  0.00    +0.000 HD
ATOM     31  H   UNL     1      44.590   7.680  10.060  0.00  0.00    +0.000 HD
ENDBRANCH  23  27
ENDBRANCH  18  19
ENDBRANCH   1  18
TORSDOF 6
ENDMDL
