MODEL 1
REMARK VINA RESULT:    -8.383      0.000      0.000
REMARK INTER + INTRA:         -10.846
REMARK INTER:                 -10.343
REMARK INTRA:                  -0.503
REMARK UNBOUND:                -0.503
REMARK  Name = 
REMARK  4 active torsions:
REMARK  status: ('A' for Active; 'I' for Inactive)
REMARK    1  A    between atoms: C_2  and  C_4
REMARK    2  A    between atoms: N_8  and  C_9
REMARK    3  A    between atoms: C_9  and  C_10
REMARK    4  A    between atoms: C_13  and  C_14
REMARK                            x       y       z     vdW  Elec       q    Type
REMARK                         _______ _______ _______ _____ _____    ______ ____
ROOT
ATOM      1  C   UNL     1      47.004   5.761  13.767  0.00  0.00    +0.000 A 
ATOM      2  C   UNL     1      47.120   6.606  12.691  0.00  0.00    +0.000 A 
ATOM      3  N   UNL     1      46.241   6.631  11.664  0.00  0.00    +0.000 NA
ATOM      4  C   UNL     1      45.211   5.772  11.714  0.00  0.00    +0.000 A 
ATOM      5  N   UNL     1      44.295   5.895  10.691  0.00  0.00    +0.000 N 
ATOM      6  N   UNL     1      45.040   4.875  12.697  0.00  0.00    +0.000 NA
ATOM      7  C   UNL     1      45.945   4.885  13.705  0.00  0.00    +0.000 A 
ATOM      8  H   UNL     1      44.748   6.387   9.932  0.00  0.00    +0.000 HD
ENDROOT
BRANCH   1  10
ATOM      9  N   UNL     1      47.544   5.086  16.037  0.00  0.00    +0.000 N 
ATOM     10  C   UNL     1      47.934   5.747  14.904  0.00  0.00    +0.000 C 
ATOM     11  O   UNL     1      49.035   6.274  14.826  0.00  0.00    +0.000 OA
ATOM     12  H   UNL     1      48.244   4.999  16.765  0.00  0.00    +0.000 HD
ATOM     13  H   UNL     1      46.779   4.427  16.062  0.00  0.00    +0.000 HD
ENDBRANCH   1  10
BRANCH   5  14
ATOM     14  C   UNL     1      43.583   4.693  10.314  0.00  0.00    +0.000 C 
BRANCH  14  15
ATOM     15  C   UNL     1      44.483   3.846   9.435  0.00  0.00    +0.000 A 
ATOM     16  C   UNL     1      45.278   4.429   8.439  0.00  0.00    +0.000 A 
ATOM     17  C   UNL     1      46.110   3.637   7.639  0.00  0.00    +0.000 A 
ATOM     18  C   UNL     1      46.163   2.247   7.816  0.00  0.00    +0.000 A 
ATOM     19  C   UNL     1      45.366   1.664   8.812  0.00  0.00    +0.000 A 
ATOM     20  C   UNL     1      44.539   2.455   9.613  0.00  0.00    +0.000 A 
BRANCH  18  21
ATOM     21  C   UNL     1      47.056   1.379   6.963  0.00  0.00    +0.000 C 
ATOM     22  F   UNL     1      48.382   1.509   7.251  0.00  0.00    +0.000 F 
ATOM     23  F   UNL     1      46.777   0.052   7.098  0.00  0.00    +0.000 F 
ATOM     24  F   UNL     1      46.936   1.651   5.634  0.00  0.00    +0.000 F 
ENDBRANCH  18  21
ENDBRANCH  14  15
ENDBRANCH   5  14
TORSDOF 4
ENDMDL
MODEL 2
REMARK VINA RESULT:    -8.365      0.077      1.056
REMARK INTER + INTRA:         -10.825
REMARK INTER:                 -10.325
REMARK INTRA:                  -0.500
REMARK UNBOUND:                -0.503
REMARK  Name = 
REMARK  4 active torsions:
REMARK  status: ('A' for Active; 'I' for Inactive)
REMARK    1  A    between atoms: C_2  and  C_4
REMARK    2  A    between atoms: N_8  and  C_9
REMARK    3  A    between atoms: C_9  and  C_10
REMARK    4  A    between atoms: C_13  and  C_14
REMARK                            x       y       z     vdW  Elec       q    Type
REMARK                         _______ _______ _______ _____ _____    ______ ____
ROOT
ATOM      1  C   UNL     1      47.073   5.807  13.766  0.00  0.00    +0.000 A 
ATOM      2  C   UNL     1      47.196   6.636  12.679  0.00  0.00    +0.000 A 
ATOM      3  N   UNL     1      46.316   6.656  11.653  0.00  0.00    +0.000 NA
ATOM      4  C   UNL     1      45.277   5.808  11.716  0.00  0.00    +0.000 A 
ATOM      5  N   UNL     1      44.361   5.926  10.693  0.00  0.00    +0.000 N 
ATOM      6  N   UNL     1      45.098   4.926  12.712  0.00  0.00    +0.000 NA
ATOM      7  C   UNL     1      46.006   4.941  13.718  0.00  0.00    +0.000 A 
ATOM      8  H   UNL     1      44.818   6.403   9.926  0.00  0.00    +0.000 HD
ENDROOT
BRANCH   1  10
ATOM      9  N   UNL     1      47.615   5.147  16.040  0.00  0.00    +0.000 N 
ATOM     10  C   UNL     1      48.005   5.799  14.902  0.00  0.00    +0.000 C 
ATOM     11  O   UNL     1      49.107   6.323  14.819  0.00  0.00    +0.000 OA
ATOM     12  H   UNL     1      48.316   5.064  16.768  0.00  0.00    +0.000 HD
ATOM     13  H   UNL     1      46.848   4.490  16.071  0.00  0.00    +0.000 HD
ENDBRANCH   1  10
BRANCH   5  14
ATOM     14  C   UNL     1      43.636   4.727  10.334  0.00  0.00    +0.000 C 
BRANCH  14  15
ATOM     15  C   UNL     1      44.525   3.859   9.463  0.00  0.00    +0.000 A 
ATOM     16  C   UNL     1      44.579   2.470   9.641  0.00  0.00    +0.000 A 
ATOM     17  C   UNL     1      45.398   1.679   8.827  0.00  0.00    +0.000 A 
ATOM     18  C   UNL     1      46.181   2.261   7.819  0.00  0.00    +0.000 A 
ATOM     19  C   UNL     1      46.127   3.650   7.642  0.00  0.00    +0.000 A 
ATOM     20  C   UNL     1      45.307   4.439   8.452  0.00  0.00    +0.000 A 
BRANCH  18  21
ATOM     21  C   UNL     1      47.067   1.422   6.931  0.00  0.00    +0.000 C 
ATOM     22  F   UNL     1      48.389   1.495   7.253  0.00  0.00    +0.000 F 
ATOM     23  F   UNL     1      46.748   0.098   6.974  0.00  0.00    +0.000 F 
ATOM     24  F   UNL     1      46.985   1.781   5.620  0.00  0.00    +0.000 F 
ENDBRANCH  18  21
ENDBRANCH  14  15
ENDBRANCH   5  14
TORSDOF 4
ENDMDL
MODEL 3
REMARK VINA RESULT:    -7.870      4.512      7.006
REMARK INTER + INTRA:         -10.213
REMARK INTER:                  -9.703
REMARK INTRA:                  -0.510
REMARK UNBOUND:                -0.503
REMARK  Name = 
REMARK  4 active torsions:
REMARK  status: ('A' for Active; 'I' for Inactive)
REMARK    1  A    between atoms: C_2  and  C_4
REMARK    2  A    between atoms: N_8  and  C_9
REMARK    3  A    between atoms: C_9  and  C_10
REMARK    4  A    between atoms: C_13  and  C_14
REMARK                            x       y       z     vdW  Elec       q    Type
REMARK                         _______ _______ _______ _____ _____    ______ ____
ROOT
ATOM      1  C   UNL     1      46.484   2.616   7.353  0.00  0.00    +0.000 A 
ATOM      2  C   UNL     1      46.133   1.781   8.384  0.00  0.00    +0.000 A 
ATOM      3  N   UNL     1      45.241   2.115   9.343  0.00  0.00    +0.000 NA
ATOM      4  C   UNL     1      44.685   3.334   9.270  0.00  0.00    +0.000 A 
ATOM      5  N   UNL     1      43.718   3.596  10.218  0.00  0.00    +0.000 N 
ATOM      6  N   UNL     1      45.002   4.239   8.331  0.00  0.00    +0.000 NA
ATOM      7  C   UNL     1      45.901   3.861   7.391  0.00  0.00    +0.000 A 
ATOM      8  H   UNL     1      43.849   2.940  10.978  0.00  0.00    +0.000 HD
ENDROOT
BRANCH   1  10
ATOM      9  N   UNL     1      47.381   2.971   5.124  0.00  0.00    +0.000 N 
ATOM     10  C   UNL     1      47.428   2.252   6.287  0.00  0.00    +0.000 C 
ATOM     11  O   UNL     1      48.252   1.363   6.449  0.00  0.00    +0.000 OA
ATOM     12  H   UNL     1      48.111   2.774   4.448  0.00  0.00    +0.000 HD
ATOM     13  H   UNL     1      46.914   3.863   5.039  0.00  0.00    +0.000 HD
ENDBRANCH   1  10
BRANCH   5  14
ATOM     14  C   UNL     1      43.558   4.979  10.612  0.00  0.00    +0.000 C 
BRANCH  14  15
ATOM     15  C   UNL     1      44.710   5.366  11.520  0.00  0.00    +0.000 A 
ATOM     16  C   UNL     1      44.913   4.719  12.747  0.00  0.00    +0.000 A 
ATOM     17  C   UNL     1      45.983   5.080  13.574  0.00  0.00    +0.000 A 
ATOM     18  C   UNL     1      46.872   6.096  13.192  0.00  0.00    +0.000 A 
ATOM     19  C   UNL     1      46.668   6.743  11.965  0.00  0.00    +0.000 A 
ATOM     20  C   UNL     1      45.601   6.380  11.139  0.00  0.00    +0.000 A 
BRANCH  18  21
ATOM     21  C   UNL     1      48.032   6.496  14.070  0.00  0.00    +0.000 C 
ATOM     22  F   UNL     1      48.232   5.658  15.127  0.00  0.00    +0.000 F 
ATOM     23  F   UNL     1      49.214   6.525  13.393  0.00  0.00    +0.000 F 
ATOM     24  F   UNL     1      47.879   7.739  14.606  0.00  0.00    +0.000 F 
ENDBRANCH  18  21
ENDBRANCH  14  15
ENDBRANCH   5  14
TORSDOF 4
ENDMDL
MODEL 4
REMARK VINA RESULT:    -7.277      1.994      2.416
REMARK INTER + INTRA:          -9.482
REMARK INTER:                  -9.504
REMARK INTRA:                   0.021
REMARK UNBOUND:                -0.503
REMARK  Name = 
REMARK  4 active torsions:
REMARK  status: ('A' for Active; 'I' for Inactive)
REMARK    1  A    between atoms: C_2  and  C_4
REMARK    2  A    between atoms: N_8  and  C_9
REMARK    3  A    between atoms: C_9  and  C_10
REMARK    4  A    between atoms: C_13  and  C_14
REMARK                            x       y       z     vdW  Elec       q    Type
REMARK                         _______ _______ _______ _____ _____    ______ ____
ROOT
ATOM      1  C   UNL     1      45.355   7.783  12.464  0.00  0.00    +0.000 A 
ATOM      2  C   UNL     1      44.408   7.922  11.481  0.00  0.00    +0.000 A 
ATOM      3  N   UNL     1      43.659   6.897  11.016  0.00  0.00    +0.000 NA
ATOM      4  C   UNL     1      43.873   5.686  11.553  0.00  0.00    +0.000 A 
ATOM      5  N   UNL     1      43.026   4.691  11.111  0.00  0.00    +0.000 N 
ATOM      6  N   UNL     1      44.809   5.441  12.482  0.00  0.00    +0.000 NA
ATOM      7  C   UNL     1      45.537   6.497  12.917  0.00  0.00    +0.000 A 
ATOM      8  H   UNL     1      42.626   4.998  10.233  0.00  0.00    +0.000 HD
ENDROOT
BRANCH   1  10
ATOM      9  N   UNL     1      46.820   8.691  14.177  0.00  0.00    +0.000 N 
ATOM     10  C   UNL     1      46.153   8.895  13.000  0.00  0.00    +0.000 C 
ATOM     11  O   UNL     1      46.247   9.954  12.394  0.00  0.00    +0.000 OA
ATOM     12  H   UNL     1      47.447   9.433  14.468  0.00  0.00    +0.000 HD
ATOM     13  H   UNL     1      46.986   7.775  14.571  0.00  0.00    +0.000 HD
ENDBRANCH   1  10
BRANCH   5  14
ATOM     14  C   UNL     1      43.555   3.345  11.116  0.00  0.00    +0.000 C 
BRANCH  14  15
ATOM     15  C   UNL     1      44.448   3.164   9.903  0.00  0.00    +0.000 A 
ATOM     16  C   UNL     1      44.743   4.240   9.055  0.00  0.00    +0.000 A 
ATOM     17  C   UNL     1      45.574   4.063   7.943  0.00  0.00    +0.000 A 
ATOM     18  C   UNL     1      46.126   2.806   7.654  0.00  0.00    +0.000 A 
ATOM     19  C   UNL     1      45.829   1.729   8.502  0.00  0.00    +0.000 A 
ATOM     20  C   UNL     1      45.002   1.908   9.614  0.00  0.00    +0.000 A 
BRANCH  18  21
ATOM     21  C   UNL     1      47.025   2.598   6.461  0.00  0.00    +0.000 C 
ATOM     22  F   UNL     1      46.822   3.500   5.459  0.00  0.00    +0.000 F 
ATOM     23  F   UNL     1      48.347   2.691   6.780  0.00  0.00    +0.000 F 
ATOM     24  F   UNL     1      46.866   1.370   5.893  0.00  0.00    +0.000 F 
ENDBRANCH  18  21
ENDBRANCH  14  15
ENDBRANCH   5  14
TORSDOF 4
ENDMDL
MODEL 5
REMARK VINA RESULT:    -6.826      4.682      7.144
REMARK INTER + INTRA:          -8.926
REMARK INTER:                  -8.445
REMARK INTRA:                  -0.481
REMARK UNBOUND:                -0.503
REMARK  Name = 
REMARK  4 active torsions:
REMARK  status: ('A' for Active; 'I' for Inactive)
REMARK    1  A    between atoms: C_2  and  C_4
REMARK    2  A    between atoms: N_8  and  C_9
REMARK    3  A    between atoms: C_9  and  C_10
REMARK    4  A    between atoms: C_13  and  C_14
REMARK                            x       y       z     vdW  Elec       q    Type
REMARK                         _______ _______ _______ _____ _____    ______ ____
ROOT
ATOM      1  C   UNL     1      46.488   3.131   7.342  0.00  0.00    +0.000 A 
ATOM      2  C   UNL     1      45.542   2.524   8.128  0.00  0.00    +0.000 A 
ATOM      3  N   UNL     1      44.848   3.168   9.093  0.00  0.00    +0.000 NA
ATOM      4  C   UNL     1      45.118   4.469   9.281  0.00  0.00    +0.000 A 
ATOM      5  N   UNL     1      44.326   5.104  10.214  0.00  0.00    +0.000 N 
ATOM      6  N   UNL     1      46.060   5.138   8.598  0.00  0.00    +0.000 NA
ATOM      7  C   UNL     1      46.731   4.451   7.642  0.00  0.00    +0.000 A 
ATOM      8  H   UNL     1      43.916   4.391  10.804  0.00  0.00    +0.000 HD
ENDROOT
BRANCH   1  10
ATOM      9  N   UNL     1      48.048   1.415   6.621  0.00  0.00    +0.000 N 
ATOM     10  C   UNL     1      47.225   2.449   6.269  0.00  0.00    +0.000 C 
ATOM     11  O   UNL     1      47.077   2.771   5.098  0.00  0.00    +0.000 OA
ATOM     12  H   UNL     1      48.460   0.893   5.855  0.00  0.00    +0.000 HD
ATOM     13  H   UNL     1      48.005   0.949   7.516  0.00  0.00    +0.000 HD
ENDBRANCH   1  10
BRANCH   5  14
ATOM     14  C   UNL     1      44.922   6.222  10.913  0.00  0.00    +0.000 C 
BRANCH  14  15
ATOM     15  C   UNL     1      45.589   5.710  12.176  0.00  0.00    +0.000 A 
ATOM     16  C   UNL     1      45.106   4.575  12.841  0.00  0.00    +0.000 A 
ATOM     17  C   UNL     1      45.734   4.109  14.001  0.00  0.00    +0.000 A 
ATOM     18  C   UNL     1      46.858   4.768  14.522  0.00  0.00    +0.000 A 
ATOM     19  C   UNL     1      47.340   5.904  13.857  0.00  0.00    +0.000 A 
ATOM     20  C   UNL     1      46.714   6.367  12.697  0.00  0.00    +0.000 A 
BRANCH  18  21
ATOM     21  C   UNL     1      47.549   4.277  15.770  0.00  0.00    +0.000 C 
ATOM     22  F   UNL     1      48.690   4.959  16.068  0.00  0.00    +0.000 F 
ATOM     23  F   UNL     1      46.759   4.376  16.877  0.00  0.00    +0.000 F 
ATOM     24  F   UNL     1      47.910   2.966  15.688  0.00  0.00    +0.000 F 
ENDBRANCH  18  21
ENDBRANCH  14  15
ENDBRANCH   5  14
TORSDOF 4
ENDMDL
MODEL 6
REMARK VINA RESULT:    -6.766      2.910      4.355
REMARK INTER + INTRA:          -8.851
REMARK INTER:                  -8.471
REMARK INTRA:                  -0.380
REMARK UNBOUND:                -0.503
REMARK  Name = 
REMARK  4 active torsions:
REMARK  status: ('A' for Active; 'I' for Inactive)
REMARK    1  A    between atoms: C_2  and  C_4
REMARK    2  A    between atoms: N_8  and  C_9
REMARK    3  A    between atoms: C_9  and  C_10
REMARK    4  A    between atoms: C_13  and  C_14
REMARK                            x       y       z     vdW  Elec       q    Type
REMARK                         _______ _______ _______ _____ _____    ______ ____
ROOT
ATOM      1  C   UNL     1      48.548   4.478  18.233  0.00  0.00    +0.000 A 
ATOM      2  C   UNL     1      47.472   3.649  18.039  0.00  0.00    +0.000 A 
ATOM      3  N   UNL     1      46.784   3.578  16.878  0.00  0.00    +0.000 NA
ATOM      4  C   UNL     1      47.185   4.374  15.875  0.00  0.00    +0.000 A 
ATOM      5  N   UNL     1      46.509   4.204  14.685  0.00  0.00    +0.000 N 
ATOM      6  N   UNL     1      48.192   5.254  15.983  0.00  0.00    +0.000 NA
ATOM      7  C   UNL     1      48.853   5.291  17.166  0.00  0.00    +0.000 A 
ATOM      8  H   UNL     1      45.632   3.744  14.894  0.00  0.00    +0.000 HD
ENDROOT
BRANCH   1  10
ATOM      9  N   UNL     1      48.759   4.011  20.607  0.00  0.00    +0.000 N 
ATOM     10  C   UNL     1      49.324   4.541  19.479  0.00  0.00    +0.000 C 
ATOM     11  O   UNL     1      50.451   5.015  19.499  0.00  0.00    +0.000 OA
ATOM     12  H   UNL     1      49.355   3.968  21.426  0.00  0.00    +0.000 HD
ATOM     13  H   UNL     1      47.964   3.386  20.591  0.00  0.00    +0.000 HD
ENDBRANCH   1  10
BRANCH   5  14
ATOM     14  C   UNL     1      46.412   5.364  13.826  0.00  0.00    +0.000 C 
BRANCH  14  15
ATOM     15  C   UNL     1      45.974   4.916  12.445  0.00  0.00    +0.000 A 
ATOM     16  C   UNL     1      46.060   5.777  11.343  0.00  0.00    +0.000 A 
ATOM     17  C   UNL     1      45.660   5.350  10.072  0.00  0.00    +0.000 A 
ATOM     18  C   UNL     1      45.163   4.052   9.876  0.00  0.00    +0.000 A 
ATOM     19  C   UNL     1      45.076   3.191  10.979  0.00  0.00    +0.000 A 
ATOM     20  C   UNL     1      45.479   3.617  12.247  0.00  0.00    +0.000 A 
BRANCH  18  21
ATOM     21  C   UNL     1      44.729   3.574   8.512  0.00  0.00    +0.000 C 
ATOM     22  F   UNL     1      45.739   3.539   7.598  0.00  0.00    +0.000 F 
ATOM     23  F   UNL     1      44.211   2.314   8.541  0.00  0.00    +0.000 F 
ATOM     24  F   UNL     1      43.761   4.361   7.965  0.00  0.00    +0.000 F 
ENDBRANCH  18  21
ENDBRANCH  14  15
ENDBRANCH   5  14
TORSDOF 4
ENDMDL
MODEL 7
REMARK VINA RESULT:    -6.502      5.595      8.521
REMARK INTER + INTRA:          -8.527
REMARK INTER:                  -8.117
REMARK INTRA:                  -0.410
REMARK UNBOUND:                -0.503
REMARK  Name = 
REMARK  4 active torsions:
REMARK  status: ('A' for Active; 'I' for Inactive)
REMARK    1  A    between atoms: C_2  and  C_4
REMARK    2  A    between atoms: N_8  and  C_9
REMARK    3  A    between atoms: C_9  and  C_10
REMARK    4  A    between atoms: C_13  and  C_14
REMARK                            x       y       z     vdW  Elec       q    Type
REMARK                         _______ _______ _______ _____ _____    ______ ____
ROOT
ATOM      1  C   UNL     1      45.269   4.571  11.723  0.00  0.00    +0.000 A 
ATOM      2  C   UNL     1      45.617   5.800  12.227  0.00  0.00    +0.000 A 
ATOM      3  N   UNL     1      46.290   5.967  13.388  0.00  0.00    +0.000 NA
ATOM      4  C   UNL     1      46.619   4.861  14.073  0.00  0.00    +0.000 A 
ATOM      5  N   UNL     1      47.379   5.076  15.203  0.00  0.00    +0.000 N 
ATOM      6  N   UNL     1      46.280   3.621  13.689  0.00  0.00    +0.000 NA
ATOM      7  C   UNL     1      45.605   3.501  12.520  0.00  0.00    +0.000 A 
ATOM      8  H   UNL     1      47.264   6.046  15.470  0.00  0.00    +0.000 HD
ENDROOT
BRANCH   1  10
ATOM      9  N   UNL     1      43.489   5.176  10.186  0.00  0.00    +0.000 N 
ATOM     10  C   UNL     1      44.567   4.376  10.448  0.00  0.00    +0.000 C 
ATOM     11  O   UNL     1      44.957   3.552   9.632  0.00  0.00    +0.000 OA
ATOM     12  H   UNL     1      43.089   5.096   9.257  0.00  0.00    +0.000 HD
ATOM     13  H   UNL     1      43.291   6.028  10.693  0.00  0.00    +0.000 HD
ENDBRANCH   1  10
BRANCH   5  14
ATOM     14  C   UNL     1      47.229   4.116  16.275  0.00  0.00    +0.000 C 
BRANCH  14  15
ATOM     15  C   UNL     1      48.605   3.710  16.766  0.00  0.00    +0.000 A 
ATOM     16  C   UNL     1      49.025   2.374  16.720  0.00  0.00    +0.000 A 
ATOM     17  C   UNL     1      50.301   2.013  17.170  0.00  0.00    +0.000 A 
ATOM     18  C   UNL     1      51.182   2.980  17.676  0.00  0.00    +0.000 A 
ATOM     19  C   UNL     1      50.761   4.316  17.723  0.00  0.00    +0.000 A 
ATOM     20  C   UNL     1      49.489   4.676  17.271  0.00  0.00    +0.000 A 
BRANCH  18  21
ATOM     21  C   UNL     1      52.561   2.608  18.162  0.00  0.00    +0.000 C 
ATOM     22  F   UNL     1      52.770   1.263  18.238  0.00  0.00    +0.000 F 
ATOM     23  F   UNL     1      53.547   3.090  17.355  0.00  0.00    +0.000 F 
ATOM     24  F   UNL     1      52.827   3.095  19.406  0.00  0.00    +0.000 F 
ENDBRANCH  18  21
ENDBRANCH  14  15
ENDBRANCH   5  14
TORSDOF 4
ENDMDL
MODEL 8
REMARK VINA RESULT:    -5.911      2.724      3.694
REMARK INTER + INTRA:          -7.796
REMARK INTER:                  -7.622
REMARK INTRA:                  -0.174
REMARK UNBOUND:                -0.503
REMARK  Name = 
REMARK  4 active torsions:
REMARK  status: ('A' for Active; 'I' for Inactive)
REMARK    1  A    between atoms: C_2  and  C_4
REMARK    2  A    between atoms: N_8  and  C_9
REMARK    3  A    between atoms: C_9  and  C_10
REMARK    4  A    between atoms: C_13  and  C_14
REMARK                            x       y       z     vdW  Elec       q    Type
REMARK                         _______ _______ _______ _____ _____    ______ ____
ROOT
ATOM      1  C   UNL     1      49.882   7.871  12.983  0.00  0.00    +0.000 A 
ATOM      2  C   UNL     1      49.509   7.505  14.253  0.00  0.00    +0.000 A 
ATOM      3  N   UNL     1      48.337   6.897  14.540  0.00  0.00    +0.000 NA
ATOM      4  C   UNL     1      47.503   6.653  13.517  0.00  0.00    +0.000 A 
ATOM      5  N   UNL     1      46.361   5.953  13.845  0.00  0.00    +0.000 N 
ATOM      6  N   UNL     1      47.755   7.017  12.251  0.00  0.00    +0.000 NA
ATOM      7  C   UNL     1      48.942   7.625  12.009  0.00  0.00    +0.000 A 
ATOM      8  H   UNL     1      46.222   6.046  14.844  0.00  0.00    +0.000 HD
ENDROOT
BRANCH   1  10
ATOM      9  N   UNL     1      52.265   8.124  13.377  0.00  0.00    +0.000 N 
ATOM     10  C   UNL     1      51.167   8.503  12.655  0.00  0.00    +0.000 C 
ATOM     11  O   UNL     1      51.258   9.312  11.742  0.00  0.00    +0.000 OA
ATOM     12  H   UNL     1      53.156   8.492  13.061  0.00  0.00    +0.000 HD
ATOM     13  H   UNL     1      52.296   7.290  13.947  0.00  0.00    +0.000 HD
ENDBRANCH   1  10
BRANCH   5  14
ATOM     14  C   UNL     1      45.193   6.206  13.030  0.00  0.00    +0.000 C 
BRANCH  14  15
ATOM     15  C   UNL     1      45.159   5.197  11.897  0.00  0.00    +0.000 A 
ATOM     16  C   UNL     1      44.989   3.830  12.150  0.00  0.00    +0.000 A 
ATOM     17  C   UNL     1      44.952   2.909  11.096  0.00  0.00    +0.000 A 
ATOM     18  C   UNL     1      45.085   3.338   9.767  0.00  0.00    +0.000 A 
ATOM     19  C   UNL     1      45.256   4.706   9.514  0.00  0.00    +0.000 A 
ATOM     20  C   UNL     1      45.290   5.624  10.566  0.00  0.00    +0.000 A 
BRANCH  18  21
ATOM     21  C   UNL     1      45.046   2.359   8.619  0.00  0.00    +0.000 C 
ATOM     22  F   UNL     1      46.268   1.856   8.287  0.00  0.00    +0.000 F 
ATOM     23  F   UNL     1      44.259   1.278   8.881  0.00  0.00    +0.000 F 
ATOM     24  F   UNL     1      44.549   2.911   7.477  0.00  0.00    +0.000 F 
ENDBRANCH  18  21
ENDBRANCH  14  15
ENDBRANCH   5  14
TORSDOF 4
ENDMDL
MODEL 9
REMARK VINA RESULT:    -5.828      4.022      5.684
REMARK INTER + INTRA:          -7.695
REMARK INTER:                  -7.234
REMARK INTRA:                  -0.460
REMARK UNBOUND:                -0.503
REMARK  Name = 
REMARK  4 active torsions:
REMARK  status: ('A' for Active; 'I' for Inactive)
REMARK    1  A    between atoms: C_2  and  C_4
REMARK    2  A    between atoms: N_8  and  C_9
REMARK    3  A    between atoms: C_9  and  C_10
REMARK    4  A    between atoms: C_13  and  C_14
REMARK                            x       y       z     vdW  Elec       q    Type
REMARK                         _______ _______ _______ _____ _____    ______ ____
ROOT
ATOM      1  C   UNL     1      49.678   6.049  18.330  0.00  0.00    +0.000 A 
ATOM      2  C   UNL     1      49.377   7.349  18.012  0.00  0.00    +0.000 A 
ATOM      3  N   UNL     1      48.873   7.728  16.816  0.00  0.00    +0.000 NA
ATOM      4  C   UNL     1      48.670   6.767  15.902  0.00  0.00    +0.000 A 
ATOM      5  N   UNL     1      48.075   7.187  14.731  0.00  0.00    +0.000 N 
ATOM      6  N   UNL     1      48.980   5.477  16.100  0.00  0.00    +0.000 NA
ATOM      7  C   UNL     1      49.484   5.143  17.312  0.00  0.00    +0.000 A 
ATOM      8  H   UNL     1      48.204   8.189  14.665  0.00  0.00    +0.000 HD
ENDROOT
BRANCH   1  10
ATOM      9  N   UNL     1      49.823   4.387  20.096  0.00  0.00    +0.000 N 
ATOM     10  C   UNL     1      50.196   5.621  19.637  0.00  0.00    +0.000 C 
ATOM     11  O   UNL     1      50.964   6.328  20.274  0.00  0.00    +0.000 OA
ATOM     12  H   UNL     1      50.278   4.072  20.945  0.00  0.00    +0.000 HD
ATOM     13  H   UNL     1      49.416   3.673  19.507  0.00  0.00    +0.000 HD
ENDBRANCH   1  10
BRANCH   5  14
ATOM     14  C   UNL     1      48.399   6.439  13.537  0.00  0.00    +0.000 C 
BRANCH  14  15
ATOM     15  C   UNL     1      47.110   5.974  12.885  0.00  0.00    +0.000 A 
ATOM     16  C   UNL     1      46.303   5.001  13.490  0.00  0.00    +0.000 A 
ATOM     17  C   UNL     1      45.112   4.586  12.883  0.00  0.00    +0.000 A 
ATOM     18  C   UNL     1      44.705   5.133  11.657  0.00  0.00    +0.000 A 
ATOM     19  C   UNL     1      45.513   6.105  11.051  0.00  0.00    +0.000 A 
ATOM     20  C   UNL     1      46.700   6.522  11.660  0.00  0.00    +0.000 A 
BRANCH  18  21
ATOM     21  C   UNL     1      43.423   4.698  10.990  0.00  0.00    +0.000 C 
ATOM     22  F   UNL     1      43.519   4.600   9.634  0.00  0.00    +0.000 F 
ATOM     23  F   UNL     1      43.000   3.476  11.420  0.00  0.00    +0.000 F 
ATOM     24  F   UNL     1      42.391   5.554  11.228  0.00  0.00    +0.000 F 
ENDBRANCH  18  21
ENDBRANCH  14  15
ENDBRANCH   5  14
TORSDOF 4
ENDMDL
