MODEL 1
REMARK VINA RESULT:    -8.151      0.000      0.000
REMARK INTER + INTRA:         -11.203
REMARK INTER:                 -10.533
REMARK INTRA:                  -0.670
REMARK UNBOUND:                -0.670
REMARK  Name = 
REMARK  5 active torsions:
REMARK  status: ('A' for Active; 'I' for Inactive)
REMARK    1  A    between atoms: C_2  and  C_3
REMARK    2  A    between atoms: C_8  and  O_9
REMARK    3  A    between atoms: O_9  and  C_10
REMARK    4  A    between atoms: C_10  and  C_11
REMARK    5  A    between atoms: C_15  and  C_16
REMARK                            x       y       z     vdW  Elec       q    Type
REMARK                         _______ _______ _______ _____ _____    ______ ____
ROOT
ATOM      1  C   UNL     1      43.564   4.812  10.756  0.00  0.00    +0.000 A 
ATOM      2  C   UNL     1      43.051   3.816  11.586  0.00  0.00    +0.000 A 
ATOM      3  C   UNL     1      43.390   2.500  11.322  0.00  0.00    +0.000 A 
ATOM      4  N   UNL     1      44.192   2.114  10.306  0.00  0.00    +0.000 NA
ATOM      5  C   UNL     1      44.689   3.080   9.485  0.00  0.00    +0.000 A 
ATOM      6  C   UNL     1      44.376   4.430   9.683  0.00  0.00    +0.000 A 
ENDROOT
BRANCH   5   7
ATOM      7  C   UNL     1      45.605   2.648   8.403  0.00  0.00    +0.000 A 
ATOM      8  C   UNL     1      45.958   3.486   7.344  0.00  0.00    +0.000 A 
ATOM      9  C   UNL     1      46.794   3.006   6.337  0.00  0.00    +0.000 A 
ATOM     10  C   UNL     1      47.265   1.702   6.407  0.00  0.00    +0.000 A 
ATOM     11  C   UNL     1      46.881   0.929   7.487  0.00  0.00    +0.000 A 
ATOM     12  N   UNL     1      46.071   1.368   8.474  0.00  0.00    +0.000 NA
ENDBRANCH   5   7
BRANCH   1  13
ATOM     13  C   UNL     1      43.289   6.271  11.008  0.00  0.00    +0.000 C 
BRANCH  13  14
ATOM     14  O   UNL     1      43.775   6.646  12.297  0.00  0.00    +0.000 OA
BRANCH  14  20
ATOM     15  C   UNL     1      46.872   5.153  13.721  0.00  0.00    +0.000 A 
ATOM     16  C   UNL     1      47.820   5.922  13.053  0.00  0.00    +0.000 A 
ATOM     17  C   UNL     1      47.390   6.877  12.139  0.00  0.00    +0.000 A 
ATOM     18  F   UNL     1      48.300   7.618  11.494  0.00  0.00    +0.000 F 
ATOM     19  C   UNL     1      46.036   7.089  11.898  0.00  0.00    +0.000 A 
ATOM     20  C   UNL     1      45.080   6.326  12.571  0.00  0.00    +0.000 A 
ATOM     21  C   UNL     1      45.506   5.336  13.463  0.00  0.00    +0.000 A 
BRANCH  15  23
ATOM     22  N   UNL     1      47.595   3.408  15.501  0.00  0.00    +0.000 NA
ATOM     23  C   UNL     1      47.282   4.196  14.709  0.00  0.00    +0.000 C 
ENDBRANCH  15  23
ENDBRANCH  14  20
ENDBRANCH  13  14
ENDBRANCH   1  13
TORSDOF 5
ENDMDL
MODEL 2
REMARK VINA RESULT:    -7.812      1.784      2.255
REMARK INTER + INTRA:         -10.766
REMARK INTER:                  -9.880
REMARK INTRA:                  -0.886
REMARK UNBOUND:                -0.670
REMARK  Name = 
REMARK  5 active torsions:
REMARK  status: ('A' for Active; 'I' for Inactive)
REMARK    1  A    between atoms: C_2  and  C_3
REMARK    2  A    between atoms: C_8  and  O_9
REMARK    3  A    between atoms: O_9  and  C_10
REMARK    4  A    between atoms: C_10  and  C_11
REMARK    5  A    between atoms: C_15  and  C_16
REMARK                            x       y       z     vdW  Elec       q    Type
REMARK                         _______ _______ _______ _____ _____    ______ ____
ROOT
ATOM      1  C   UNL     1      43.676   4.840  10.877  0.00  0.00    +0.000 A 
ATOM      2  C   UNL     1      43.083   3.835  11.638  0.00  0.00    +0.000 A 
ATOM      3  C   UNL     1      43.330   2.516  11.295  0.00  0.00    +0.000 A 
ATOM      4  N   UNL     1      44.115   2.138  10.262  0.00  0.00    +0.000 NA
ATOM      5  C   UNL     1      44.690   3.115   9.507  0.00  0.00    +0.000 A 
ATOM      6  C   UNL     1      44.472   4.468   9.788  0.00  0.00    +0.000 A 
ENDROOT
BRANCH   5   7
ATOM      7  C   UNL     1      45.585   2.686   8.407  0.00  0.00    +0.000 A 
ATOM      8  C   UNL     1      45.915   3.527   7.343  0.00  0.00    +0.000 A 
ATOM      9  C   UNL     1      46.732   3.050   6.319  0.00  0.00    +0.000 A 
ATOM     10  C   UNL     1      47.207   1.747   6.378  0.00  0.00    +0.000 A 
ATOM     11  C   UNL     1      46.846   0.971   7.464  0.00  0.00    +0.000 A 
ATOM     12  N   UNL     1      46.054   1.407   8.468  0.00  0.00    +0.000 NA
ENDBRANCH   5   7
BRANCH   1  13
ATOM     13  C   UNL     1      43.503   6.297  11.219  0.00  0.00    +0.000 C 
BRANCH  13  14
ATOM     14  O   UNL     1      43.942   6.543  12.555  0.00  0.00    +0.000 OA
BRANCH  14  20
ATOM     15  C   UNL     1      47.626   7.073  12.500  0.00  0.00    +0.000 A 
ATOM     16  C   UNL     1      48.020   5.991  13.282  0.00  0.00    +0.000 A 
ATOM     17  C   UNL     1      47.046   5.155  13.816  0.00  0.00    +0.000 A 
ATOM     18  F   UNL     1      47.422   4.113  14.569  0.00  0.00    +0.000 F 
ATOM     19  C   UNL     1      45.694   5.370  13.567  0.00  0.00    +0.000 A 
ATOM     20  C   UNL     1      45.293   6.449  12.777  0.00  0.00    +0.000 A 
ATOM     21  C   UNL     1      46.265   7.317  12.269  0.00  0.00    +0.000 A 
BRANCH  15  23
ATOM     22  N   UNL     1      49.424   8.594  11.409  0.00  0.00    +0.000 NA
ATOM     23  C   UNL     1      48.610   7.923  11.892  0.00  0.00    +0.000 C 
ENDBRANCH  15  23
ENDBRANCH  14  20
ENDBRANCH  13  14
ENDBRANCH   1  13
TORSDOF 5
ENDMDL
MODEL 3
REMARK VINA RESULT:    -7.688      2.094      2.617
REMARK INTER + INTRA:         -10.605
REMARK INTER:                  -9.820
REMARK INTRA:                  -0.785
REMARK UNBOUND:                -0.670
REMARK  Name = 
REMARK  5 active torsions:
REMARK  status: ('A' for Active; 'I' for Inactive)
REMARK    1  A    between atoms: C_2  and  C_3
REMARK    2  A    between atoms: C_8  and  O_9
REMARK    3  A    between atoms: O_9  and  C_10
REMARK    4  A    between atoms: C_10  and  C_11
REMARK    5  A    between atoms: C_15  and  C_16
REMARK                            x       y       z     vdW  Elec       q    Type
REMARK                         _______ _______ _______ _____ _____    ______ ____
ROOT
ATOM      1  C   UNL     1      44.079   5.107  11.138  0.00  0.00    +0.000 A 
ATOM      2  C   UNL     1      43.279   4.186  11.811  0.00  0.00    +0.000 A 
ATOM      3  C   UNL     1      43.278   2.871  11.376  0.00  0.00    +0.000 A 
ATOM      4  N   UNL     1      44.010   2.419  10.334  0.00  0.00    +0.000 NA
ATOM      5  C   UNL     1      44.787   3.315   9.665  0.00  0.00    +0.000 A 
ATOM      6  C   UNL     1      44.825   4.663  10.040  0.00  0.00    +0.000 A 
ENDROOT
BRANCH   5   7
ATOM      7  C   UNL     1      45.619   2.796   8.554  0.00  0.00    +0.000 A 
ATOM      8  C   UNL     1      45.993   3.590   7.468  0.00  0.00    +0.000 A 
ATOM      9  C   UNL     1      46.745   3.031   6.436  0.00  0.00    +0.000 A 
ATOM     10  C   UNL     1      47.114   1.694   6.509  0.00  0.00    +0.000 A 
ATOM     11  C   UNL     1      46.715   0.969   7.616  0.00  0.00    +0.000 A 
ATOM     12  N   UNL     1      45.985   1.484   8.628  0.00  0.00    +0.000 NA
ENDBRANCH   5   7
BRANCH   1  13
ATOM     13  C   UNL     1      44.179   6.543  11.582  0.00  0.00    +0.000 C 
BRANCH  13  14
ATOM     14  O   UNL     1      45.205   6.682  12.565  0.00  0.00    +0.000 OA
BRANCH  14  20
ATOM     15  C   UNL     1      48.471   8.259  11.731  0.00  0.00    +0.000 A 
ATOM     16  C   UNL     1      48.109   9.598  11.843  0.00  0.00    +0.000 A 
ATOM     17  C   UNL     1      46.793   9.916  12.159  0.00  0.00    +0.000 A 
ATOM     18  F   UNL     1      46.442  11.204  12.268  0.00  0.00    +0.000 F 
ATOM     19  C   UNL     1      45.843   8.924  12.382  0.00  0.00    +0.000 A 
ATOM     20  C   UNL     1      46.202   7.579  12.279  0.00  0.00    +0.000 A 
ATOM     21  C   UNL     1      47.515   7.252  11.923  0.00  0.00    +0.000 A 
BRANCH  15  23
ATOM     22  N   UNL     1      50.938   7.630  11.227  0.00  0.00    +0.000 NA
ATOM     23  C   UNL     1      49.833   7.899  11.458  0.00  0.00    +0.000 C 
ENDBRANCH  15  23
ENDBRANCH  14  20
ENDBRANCH  13  14
ENDBRANCH   1  13
TORSDOF 5
ENDMDL
MODEL 4
REMARK VINA RESULT:    -7.591      1.839      2.404
REMARK INTER + INTRA:         -10.480
REMARK INTER:                  -9.734
REMARK INTRA:                  -0.745
REMARK UNBOUND:                -0.670
REMARK  Name = 
REMARK  5 active torsions:
REMARK  status: ('A' for Active; 'I' for Inactive)
REMARK    1  A    between atoms: C_2  and  C_3
REMARK    2  A    between atoms: C_8  and  O_9
REMARK    3  A    between atoms: O_9  and  C_10
REMARK    4  A    between atoms: C_10  and  C_11
REMARK    5  A    between atoms: C_15  and  C_16
REMARK                            x       y       z     vdW  Elec       q    Type
REMARK                         _______ _______ _______ _____ _____    ______ ____
ROOT
ATOM      1  C   UNL     1      44.726   5.276  11.879  0.00  0.00    +0.000 A 
ATOM      2  C   UNL     1      43.593   4.600  12.329  0.00  0.00    +0.000 A 
ATOM      3  C   UNL     1      43.150   3.505  11.607  0.00  0.00    +0.000 A 
ATOM      4  N   UNL     1      43.749   3.044  10.486  0.00  0.00    +0.000 NA
ATOM      5  C   UNL     1      44.851   3.705  10.036  0.00  0.00    +0.000 A 
ATOM      6  C   UNL     1      45.346   4.829  10.707  0.00  0.00    +0.000 A 
ENDROOT
BRANCH   5   7
ATOM      7  C   UNL     1      45.525   3.162   8.833  0.00  0.00    +0.000 A 
ATOM      8  C   UNL     1      45.812   1.803   8.688  0.00  0.00    +0.000 A 
ATOM      9  C   UNL     1      46.482   1.361   7.549  0.00  0.00    +0.000 A 
ATOM     10  C   UNL     1      46.848   2.279   6.574  0.00  0.00    +0.000 A 
ATOM     11  C   UNL     1      46.527   3.608   6.780  0.00  0.00    +0.000 A 
ATOM     12  N   UNL     1      45.881   4.064   7.874  0.00  0.00    +0.000 NA
ENDBRANCH   5   7
BRANCH   1  13
ATOM     13  C   UNL     1      45.305   6.441  12.637  0.00  0.00    +0.000 C 
BRANCH  13  14
ATOM     14  O   UNL     1      46.731   6.366  12.638  0.00  0.00    +0.000 OA
BRANCH  14  20
ATOM     15  C   UNL     1      47.598   4.780  15.891  0.00  0.00    +0.000 A 
ATOM     16  C   UNL     1      48.605   5.647  16.303  0.00  0.00    +0.000 A 
ATOM     17  C   UNL     1      48.972   6.698  15.469  0.00  0.00    +0.000 A 
ATOM     18  F   UNL     1      49.942   7.534  15.862  0.00  0.00    +0.000 F 
ATOM     19  C   UNL     1      48.339   6.907  14.248  0.00  0.00    +0.000 A 
ATOM     20  C   UNL     1      47.322   6.045  13.834  0.00  0.00    +0.000 A 
ATOM     21  C   UNL     1      46.974   4.962  14.650  0.00  0.00    +0.000 A 
BRANCH  15  23
ATOM     22  N   UNL     1      46.832   2.850  17.449  0.00  0.00    +0.000 NA
ATOM     23  C   UNL     1      47.161   3.718  16.753  0.00  0.00    +0.000 C 
ENDBRANCH  15  23
ENDBRANCH  14  20
ENDBRANCH  13  14
ENDBRANCH   1  13
TORSDOF 5
ENDMDL
MODEL 5
REMARK VINA RESULT:    -7.321      1.614      1.985
REMARK INTER + INTRA:         -10.131
REMARK INTER:                  -9.326
REMARK INTRA:                  -0.805
REMARK UNBOUND:                -0.670
REMARK  Name = 
REMARK  5 active torsions:
REMARK  status: ('A' for Active; 'I' for Inactive)
REMARK    1  A    between atoms: C_2  and  C_3
REMARK    2  A    between atoms: C_8  and  O_9
REMARK    3  A    between atoms: O_9  and  C_10
REMARK    4  A    between atoms: C_10  and  C_11
REMARK    5  A    between atoms: C_15  and  C_16
REMARK                            x       y       z     vdW  Elec       q    Type
REMARK                         _______ _______ _______ _____ _____    ______ ____
ROOT
ATOM      1  C   UNL     1      44.499   5.449  11.045  0.00  0.00    +0.000 A 
ATOM      2  C   UNL     1      43.569   4.647  11.704  0.00  0.00    +0.000 A 
ATOM      3  C   UNL     1      43.368   3.357  11.243  0.00  0.00    +0.000 A 
ATOM      4  N   UNL     1      44.021   2.820  10.189  0.00  0.00    +0.000 NA
ATOM      5  C   UNL     1      44.925   3.601   9.534  0.00  0.00    +0.000 A 
ATOM      6  C   UNL     1      45.167   4.919   9.936  0.00  0.00    +0.000 A 
ENDROOT
BRANCH   5   7
ATOM      7  C   UNL     1      45.667   2.984   8.410  0.00  0.00    +0.000 A 
ATOM      8  C   UNL     1      46.058   1.644   8.419  0.00  0.00    +0.000 A 
ATOM      9  C   UNL     1      46.788   1.134   7.346  0.00  0.00    +0.000 A 
ATOM     10  C   UNL     1      47.109   1.968   6.284  0.00  0.00    +0.000 A 
ATOM     11  C   UNL     1      46.684   3.282   6.337  0.00  0.00    +0.000 A 
ATOM     12  N   UNL     1      45.979   3.803   7.364  0.00  0.00    +0.000 NA
ENDBRANCH   5   7
BRANCH   1  13
ATOM     13  C   UNL     1      44.817   6.844  11.517  0.00  0.00    +0.000 C 
BRANCH  13  14
ATOM     14  O   UNL     1      45.328   6.806  12.850  0.00  0.00    +0.000 OA
BRANCH  14  20
ATOM     15  C   UNL     1      48.817   6.979  14.133  0.00  0.00    +0.000 A 
ATOM     16  C   UNL     1      49.391   7.744  13.122  0.00  0.00    +0.000 A 
ATOM     17  C   UNL     1      48.603   8.139  12.046  0.00  0.00    +0.000 A 
ATOM     18  F   UNL     1      49.153   8.874  11.071  0.00  0.00    +0.000 F 
ATOM     19  C   UNL     1      47.255   7.802  11.976  0.00  0.00    +0.000 A 
ATOM     20  C   UNL     1      46.672   7.042  12.991  0.00  0.00    +0.000 A 
ATOM     21  C   UNL     1      47.468   6.608  14.057  0.00  0.00    +0.000 A 
BRANCH  15  23
ATOM     22  N   UNL     1      50.195   6.285  16.221  0.00  0.00    +0.000 NA
ATOM     23  C   UNL     1      49.591   6.601  15.282  0.00  0.00    +0.000 C 
ENDBRANCH  15  23
ENDBRANCH  14  20
ENDBRANCH  13  14
ENDBRANCH   1  13
TORSDOF 5
ENDMDL
MODEL 6
REMARK VINA RESULT:    -7.219      2.671      3.494
REMARK INTER + INTRA:         -10.000
REMARK INTER:                  -9.262
REMARK INTRA:                  -0.737
REMARK UNBOUND:                -0.670
REMARK  Name = 
REMARK  5 active torsions:
REMARK  status: ('A' for Active; 'I' for Inactive)
REMARK    1  A    between atoms: C_2  and  C_3
REMARK    2  A    between atoms: C_8  and  O_9
REMARK    3  A    between atoms: O_9  and  C_10
REMARK    4  A    between atoms: C_10  and  C_11
REMARK    5  A    between atoms: C_15  and  C_16
REMARK                            x       y       z     vdW  Elec       q    Type
REMARK                         _______ _______ _______ _____ _____    ______ ____
ROOT
ATOM      1  C   UNL     1      44.666   4.576  12.013  0.00  0.00    +0.000 A 
ATOM      2  C   UNL     1      43.584   3.770  12.361  0.00  0.00    +0.000 A 
ATOM      3  C   UNL     1      43.219   2.750  11.499  0.00  0.00    +0.000 A 
ATOM      4  N   UNL     1      43.849   2.481  10.334  0.00  0.00    +0.000 NA
ATOM      5  C   UNL     1      44.901   3.271   9.983  0.00  0.00    +0.000 A 
ATOM      6  C   UNL     1      45.315   4.330  10.798  0.00  0.00    +0.000 A 
ENDROOT
BRANCH   5   7
ATOM      7  C   UNL     1      45.612   2.936   8.727  0.00  0.00    +0.000 A 
ATOM      8  C   UNL     1      46.056   1.643   8.442  0.00  0.00    +0.000 A 
ATOM      9  C   UNL     1      46.753   1.402   7.259  0.00  0.00    +0.000 A 
ATOM     10  C   UNL     1      46.988   2.451   6.381  0.00  0.00    +0.000 A 
ATOM     11  C   UNL     1      46.514   3.704   6.723  0.00  0.00    +0.000 A 
ATOM     12  N   UNL     1      45.840   3.967   7.862  0.00  0.00    +0.000 NA
ENDBRANCH   5   7
BRANCH   1  13
ATOM     13  C   UNL     1      45.161   5.672  12.921  0.00  0.00    +0.000 C 
BRANCH  13  14
ATOM     14  O   UNL     1      46.363   6.236  12.397  0.00  0.00    +0.000 OA
BRANCH  14  20
ATOM     15  C   UNL     1      45.399   9.807  11.981  0.00  0.00    +0.000 A 
ATOM     16  C   UNL     1      46.666  10.369  11.854  0.00  0.00    +0.000 A 
ATOM     17  C   UNL     1      47.781   9.543  11.944  0.00  0.00    +0.000 A 
ATOM     18  F   UNL     1      49.002  10.081  11.824  0.00  0.00    +0.000 F 
ATOM     19  C   UNL     1      47.651   8.171  12.138  0.00  0.00    +0.000 A 
ATOM     20  C   UNL     1      46.383   7.601  12.257  0.00  0.00    +0.000 A 
ATOM     21  C   UNL     1      45.257   8.431  12.207  0.00  0.00    +0.000 A 
BRANCH  15  23
ATOM     22  N   UNL     1      43.268  11.270  11.741  0.00  0.00    +0.000 NA
ATOM     23  C   UNL     1      44.228  10.625  11.840  0.00  0.00    +0.000 C 
ENDBRANCH  15  23
ENDBRANCH  14  20
ENDBRANCH  13  14
ENDBRANCH   1  13
TORSDOF 5
ENDMDL
MODEL 7
REMARK VINA RESULT:    -7.166      2.545      7.303
REMARK INTER + INTRA:          -9.930
REMARK INTER:                  -9.116
REMARK INTRA:                  -0.814
REMARK UNBOUND:                -0.670
REMARK  Name = 
REMARK  5 active torsions:
REMARK  status: ('A' for Active; 'I' for Inactive)
REMARK    1  A    between atoms: C_2  and  C_3
REMARK    2  A    between atoms: C_8  and  O_9
REMARK    3  A    between atoms: O_9  and  C_10
REMARK    4  A    between atoms: C_10  and  C_11
REMARK    5  A    between atoms: C_15  and  C_16
REMARK                            x       y       z     vdW  Elec       q    Type
REMARK                         _______ _______ _______ _____ _____    ______ ____
ROOT
ATOM      1  C   UNL     1      46.334   6.166  12.428  0.00  0.00    +0.000 A 
ATOM      2  C   UNL     1      47.384   6.950  11.953  0.00  0.00    +0.000 A 
ATOM      3  C   UNL     1      48.535   7.042  12.718  0.00  0.00    +0.000 A 
ATOM      4  N   UNL     1      48.708   6.416  13.903  0.00  0.00    +0.000 NA
ATOM      5  C   UNL     1      47.683   5.656  14.378  0.00  0.00    +0.000 A 
ATOM      6  C   UNL     1      46.485   5.530  13.665  0.00  0.00    +0.000 A 
ENDROOT
BRANCH   5   7
ATOM      7  C   UNL     1      47.904   4.939  15.655  0.00  0.00    +0.000 A 
ATOM      8  C   UNL     1      47.009   3.982  16.139  0.00  0.00    +0.000 A 
ATOM      9  C   UNL     1      47.255   3.370  17.367  0.00  0.00    +0.000 A 
ATOM     10  C   UNL     1      48.390   3.720  18.086  0.00  0.00    +0.000 A 
ATOM     11  C   UNL     1      49.236   4.669  17.545  0.00  0.00    +0.000 A 
ATOM     12  N   UNL     1      49.021   5.280  16.360  0.00  0.00    +0.000 NA
ENDBRANCH   5   7
BRANCH   1  13
ATOM     13  C   UNL     1      45.071   5.969  11.631  0.00  0.00    +0.000 C 
BRANCH  13  14
ATOM     14  O   UNL     1      45.360   6.018  10.234  0.00  0.00    +0.000 OA
BRANCH  14  20
ATOM     15  C   UNL     1      45.899   3.312   7.737  0.00  0.00    +0.000 A 
ATOM     16  C   UNL     1      45.179   2.292   8.352  0.00  0.00    +0.000 A 
ATOM     17  C   UNL     1      44.577   2.539   9.580  0.00  0.00    +0.000 A 
ATOM     18  F   UNL     1      43.885   1.559  10.175  0.00  0.00    +0.000 F 
ATOM     19  C   UNL     1      44.663   3.786  10.190  0.00  0.00    +0.000 A 
ATOM     20  C   UNL     1      45.376   4.816   9.574  0.00  0.00    +0.000 A 
ATOM     21  C   UNL     1      46.018   4.564   8.356  0.00  0.00    +0.000 A 
BRANCH  15  23
ATOM     22  N   UNL     1      46.974   2.959   5.401  0.00  0.00    +0.000 NA
ATOM     23  C   UNL     1      46.488   3.104   6.444  0.00  0.00    +0.000 C 
ENDBRANCH  15  23
ENDBRANCH  14  20
ENDBRANCH  13  14
ENDBRANCH   1  13
TORSDOF 5
ENDMDL
MODEL 8
REMARK VINA RESULT:    -7.079      2.501      3.170
REMARK INTER + INTRA:          -9.818
REMARK INTER:                  -9.146
REMARK INTRA:                  -0.672
REMARK UNBOUND:                -0.670
REMARK  Name = 
REMARK  5 active torsions:
REMARK  status: ('A' for Active; 'I' for Inactive)
REMARK    1  A    between atoms: C_2  and  C_3
REMARK    2  A    between atoms: C_8  and  O_9
REMARK    3  A    between atoms: O_9  and  C_10
REMARK    4  A    between atoms: C_10  and  C_11
REMARK    5  A    between atoms: C_15  and  C_16
REMARK                            x       y       z     vdW  Elec       q    Type
REMARK                         _______ _______ _______ _____ _____    ______ ____
ROOT
ATOM      1  C   UNL     1      44.500   5.043  11.579  0.00  0.00    +0.000 A 
ATOM      2  C   UNL     1      43.515   4.200  12.090  0.00  0.00    +0.000 A 
ATOM      3  C   UNL     1      43.253   3.013  11.426  0.00  0.00    +0.000 A 
ATOM      4  N   UNL     1      43.898   2.615  10.307  0.00  0.00    +0.000 NA
ATOM      5  C   UNL     1      44.855   3.438   9.796  0.00  0.00    +0.000 A 
ATOM      6  C   UNL     1      45.161   4.659  10.406  0.00  0.00    +0.000 A 
ENDROOT
BRANCH   5   7
ATOM      7  C   UNL     1      45.585   2.967   8.596  0.00  0.00    +0.000 A 
ATOM      8  C   UNL     1      46.029   1.650   8.461  0.00  0.00    +0.000 A 
ATOM      9  C   UNL     1      46.744   1.280   7.323  0.00  0.00    +0.000 A 
ATOM     10  C   UNL     1      46.998   2.227   6.340  0.00  0.00    +0.000 A 
ATOM     11  C   UNL     1      46.523   3.510   6.535  0.00  0.00    +0.000 A 
ATOM     12  N   UNL     1      45.831   3.897   7.628  0.00  0.00    +0.000 NA
ENDBRANCH   5   7
BRANCH   1  13
ATOM     13  C   UNL     1      44.884   6.324  12.272  0.00  0.00    +0.000 C 
BRANCH  13  14
ATOM     14  O   UNL     1      45.883   6.068  13.259  0.00  0.00    +0.000 OA
BRANCH  14  20
ATOM     15  C   UNL     1      48.331   8.752  12.456  0.00  0.00    +0.000 A 
ATOM     16  C   UNL     1      49.375   8.361  13.289  0.00  0.00    +0.000 A 
ATOM     17  C   UNL     1      49.207   7.245  14.101  0.00  0.00    +0.000 A 
ATOM     18  F   UNL     1      50.210   6.867  14.904  0.00  0.00    +0.000 F 
ATOM     19  C   UNL     1      48.028   6.507  14.079  0.00  0.00    +0.000 A 
ATOM     20  C   UNL     1      46.981   6.889  13.239  0.00  0.00    +0.000 A 
ATOM     21  C   UNL     1      47.128   8.034  12.448  0.00  0.00    +0.000 A 
BRANCH  15  23
ATOM     22  N   UNL     1      48.650  10.771  10.856  0.00  0.00    +0.000 NA
ATOM     23  C   UNL     1      48.494   9.869  11.568  0.00  0.00    +0.000 C 
ENDBRANCH  15  23
ENDBRANCH  14  20
ENDBRANCH  13  14
ENDBRANCH   1  13
TORSDOF 5
ENDMDL
MODEL 9
REMARK VINA RESULT:    -7.029      2.426      2.964
REMARK INTER + INTRA:          -9.753
REMARK INTER:                  -9.069
REMARK INTRA:                  -0.684
REMARK UNBOUND:                -0.670
REMARK  Name = 
REMARK  5 active torsions:
REMARK  status: ('A' for Active; 'I' for Inactive)
REMARK    1  A    between atoms: C_2  and  C_3
REMARK    2  A    between atoms: C_8  and  O_9
REMARK    3  A    between atoms: O_9  and  C_10
REMARK    4  A    between atoms: C_10  and  C_11
REMARK    5  A    between atoms: C_15  and  C_16
REMARK                            x       y       z     vdW  Elec       q    Type
REMARK                         _______ _______ _______ _____ _____    ______ ____
ROOT
ATOM      1  C   UNL     1      44.762   5.139  11.953  0.00  0.00    +0.000 A 
ATOM      2  C   UNL     1      43.575   4.520  12.341  0.00  0.00    +0.000 A 
ATOM      3  C   UNL     1      43.096   3.473  11.573  0.00  0.00    +0.000 A 
ATOM      4  N   UNL     1      43.710   3.006  10.464  0.00  0.00    +0.000 NA
ATOM      5  C   UNL     1      44.866   3.611  10.073  0.00  0.00    +0.000 A 
ATOM      6  C   UNL     1      45.399   4.686  10.793  0.00  0.00    +0.000 A 
ENDROOT
BRANCH   5   7
ATOM      7  C   UNL     1      45.552   3.059   8.881  0.00  0.00    +0.000 A 
ATOM      8  C   UNL     1      45.867   3.845   7.771  0.00  0.00    +0.000 A 
ATOM      9  C   UNL     1      46.480   3.256   6.665  0.00  0.00    +0.000 A 
ATOM     10  C   UNL     1      46.771   1.899   6.690  0.00  0.00    +0.000 A 
ATOM     11  C   UNL     1      46.437   1.183   7.825  0.00  0.00    +0.000 A 
ATOM     12  N   UNL     1      45.842   1.726   8.907  0.00  0.00    +0.000 NA
ENDBRANCH   5   7
BRANCH   1  13
ATOM     13  C   UNL     1      45.379   6.247  12.765  0.00  0.00    +0.000 C 
BRANCH  13  14
ATOM     14  O   UNL     1      46.798   6.094  12.806  0.00  0.00    +0.000 OA
BRANCH  14  20
ATOM     15  C   UNL     1      48.873   6.373  15.882  0.00  0.00    +0.000 A 
ATOM     16  C   UNL     1      48.425   5.243  16.559  0.00  0.00    +0.000 A 
ATOM     17  C   UNL     1      47.433   4.459  15.979  0.00  0.00    +0.000 A 
ATOM     18  F   UNL     1      46.999   3.372  16.629  0.00  0.00    +0.000 F 
ATOM     19  C   UNL     1      46.901   4.774  14.733  0.00  0.00    +0.000 A 
ATOM     20  C   UNL     1      47.353   5.901  14.045  0.00  0.00    +0.000 A 
ATOM     21  C   UNL     1      48.322   6.716  14.640  0.00  0.00    +0.000 A 
BRANCH  15  23
ATOM     22  N   UNL     1      50.790   7.830  16.852  0.00  0.00    +0.000 NA
ATOM     23  C   UNL     1      49.932   7.172  16.431  0.00  0.00    +0.000 C 
ENDBRANCH  15  23
ENDBRANCH  14  20
ENDBRANCH  13  14
ENDBRANCH   1  13
TORSDOF 5
ENDMDL
