MODEL 1
REMARK VINA RESULT:    -7.163      0.000      0.000
REMARK INTER + INTRA:          -8.118
REMARK INTER:                  -8.419
REMARK INTRA:                   0.301
REMARK UNBOUND:                 0.301
REMARK  Name = 
REMARK  3 active torsions:
REMARK  status: ('A' for Active; 'I' for Inactive)
REMARK    1  A    between atoms: C_2  and  C_3
REMARK    2  A    between atoms: N_7  and  C_8
REMARK    3  A    between atoms: C_8  and  C_9
REMARK                            x       y       z     vdW  Elec       q    Type
REMARK                         _______ _______ _______ _____ _____    ______ ____
ROOT
ATOM      1  C   UNL     1      46.569   2.664   7.541  0.00  0.00    +0.000 A 
ATOM      2  C   UNL     1      46.367   4.014   7.831  0.00  0.00    +0.000 A 
ATOM      3  C   UNL     1      45.546   4.378   8.911  0.00  0.00    +0.000 A 
ATOM      4  C   UNL     1      44.948   3.389   9.678  0.00  0.00    +0.000 A 
ATOM      5  N   UNL     1      44.113   3.616  10.764  0.00  0.00    +0.000 N 
ATOM      6  N   UNL     1      45.139   2.077   9.400  0.00  0.00    +0.000 NA
ATOM      7  C   UNL     1      45.934   1.747   8.355  0.00  0.00    +0.000 A 
ATOM      8  H   UNL     1      43.812   2.730  11.148  0.00  0.00    +0.000 HD
ENDROOT
BRANCH   5   9
ATOM      9  C   UNL     1      43.893   4.858  11.512  0.00  0.00    +0.000 C 
ATOM     10  C   UNL     1      42.516   5.270  12.003  0.00  0.00    +0.000 C 
ATOM     11  C   UNL     1      43.076   5.947  10.798  0.00  0.00    +0.000 C 
BRANCH   9  12
ATOM     12  C   UNL     1      45.146   5.457  12.180  0.00  0.00    +0.000 A 
ATOM     13  C   UNL     1      45.677   4.826  13.313  0.00  0.00    +0.000 A 
ATOM     14  C   UNL     1      46.987   5.085  13.702  0.00  0.00    +0.000 A 
ATOM     15  C   UNL     1      47.729   6.011  12.985  0.00  0.00    +0.000 A 
ATOM     16  C   UNL     1      47.108   6.677  11.942  0.00  0.00    +0.000 A 
ATOM     17  N   UNL     1      45.846   6.425  11.530  0.00  0.00    +0.000 NA
ENDBRANCH   9  12
ENDBRANCH   5   9
BRANCH   1  19
ATOM     18  N   UNL     1      48.051   1.867   5.573  0.00  0.00    +0.000 NA
ATOM     19  C   UNL     1      47.383   2.228   6.448  0.00  0.00    +0.000 C 
ENDBRANCH   1  19
TORSDOF 3
ENDMDL
MODEL 2
REMARK VINA RESULT:    -6.969      2.108      6.020
REMARK INTER + INTRA:          -7.891
REMARK INTER:                  -7.633
REMARK INTRA:                  -0.258
REMARK UNBOUND:                 0.301
REMARK  Name = 
REMARK  3 active torsions:
REMARK  status: ('A' for Active; 'I' for Inactive)
REMARK    1  A    between atoms: C_2  and  C_3
REMARK    2  A    between atoms: N_7  and  C_8
REMARK    3  A    between atoms: C_8  and  C_9
REMARK                            x       y       z     vdW  Elec       q    Type
REMARK                         _______ _______ _______ _____ _____    ______ ____
ROOT
ATOM      1  C   UNL     1      47.937   5.753  14.945  0.00  0.00    +0.000 A 
ATOM      2  C   UNL     1      47.635   6.386  13.739  0.00  0.00    +0.000 A 
ATOM      3  C   UNL     1      46.689   5.813  12.872  0.00  0.00    +0.000 A 
ATOM      4  C   UNL     1      46.064   4.628  13.230  0.00  0.00    +0.000 A 
ATOM      5  N   UNL     1      45.119   3.960  12.462  0.00  0.00    +0.000 N 
ATOM      6  N   UNL     1      46.355   4.009  14.399  0.00  0.00    +0.000 NA
ATOM      7  C   UNL     1      47.270   4.576  15.221  0.00  0.00    +0.000 A 
ATOM      8  H   UNL     1      44.820   3.125  12.949  0.00  0.00    +0.000 HD
ENDROOT
BRANCH   5   9
ATOM      9  C   UNL     1      44.372   4.444  11.298  0.00  0.00    +0.000 C 
ATOM     10  C   UNL     1      43.641   5.775  11.307  0.00  0.00    +0.000 C 
ATOM     11  C   UNL     1      42.845   4.524  11.453  0.00  0.00    +0.000 C 
BRANCH   9  12
ATOM     12  C   UNL     1      44.756   3.801   9.951  0.00  0.00    +0.000 A 
ATOM     13  C   UNL     1      45.370   4.594   8.971  0.00  0.00    +0.000 A 
ATOM     14  C   UNL     1      46.072   3.994   7.932  0.00  0.00    +0.000 A 
ATOM     15  C   UNL     1      46.106   2.611   7.857  0.00  0.00    +0.000 A 
ATOM     16  C   UNL     1      45.390   1.889   8.796  0.00  0.00    +0.000 A 
ATOM     17  N   UNL     1      44.721   2.448   9.829  0.00  0.00    +0.000 NA
ENDBRANCH   9  12
ENDBRANCH   5   9
BRANCH   1  19
ATOM     18  N   UNL     1      49.691   6.701  16.598  0.00  0.00    +0.000 NA
ATOM     19  C   UNL     1      48.901   6.277  15.865  0.00  0.00    +0.000 C 
ENDBRANCH   1  19
TORSDOF 3
ENDMDL
MODEL 3
REMARK VINA RESULT:    -6.865      1.781      5.838
REMARK INTER + INTRA:          -7.769
REMARK INTER:                  -7.540
REMARK INTRA:                  -0.229
REMARK UNBOUND:                 0.301
REMARK  Name = 
REMARK  3 active torsions:
REMARK  status: ('A' for Active; 'I' for Inactive)
REMARK    1  A    between atoms: C_2  and  C_3
REMARK    2  A    between atoms: N_7  and  C_8
REMARK    3  A    between atoms: C_8  and  C_9
REMARK                            x       y       z     vdW  Elec       q    Type
REMARK                         _______ _______ _______ _____ _____    ______ ____
ROOT
ATOM      1  C   UNL     1      47.683   7.375  13.306  0.00  0.00    +0.000 A 
ATOM      2  C   UNL     1      46.911   7.475  12.149  0.00  0.00    +0.000 A 
ATOM      3  C   UNL     1      46.176   6.364  11.705  0.00  0.00    +0.000 A 
ATOM      4  C   UNL     1      46.223   5.181  12.428  0.00  0.00    +0.000 A 
ATOM      5  N   UNL     1      45.550   4.013  12.095  0.00  0.00    +0.000 N 
ATOM      6  N   UNL     1      46.973   5.077  13.552  0.00  0.00    +0.000 NA
ATOM      7  C   UNL     1      47.675   6.160  13.963  0.00  0.00    +0.000 A 
ATOM      8  H   UNL     1      45.751   3.300  12.783  0.00  0.00    +0.000 HD
ENDROOT
BRANCH   5   9
ATOM      9  C   UNL     1      44.462   3.822  11.130  0.00  0.00    +0.000 C 
ATOM     10  C   UNL     1      43.096   4.457  11.322  0.00  0.00    +0.000 C 
ATOM     11  C   UNL     1      43.255   3.006  11.618  0.00  0.00    +0.000 C 
BRANCH   9  12
ATOM     12  C   UNL     1      44.898   3.375   9.722  0.00  0.00    +0.000 A 
ATOM     13  C   UNL     1      45.271   4.350   8.786  0.00  0.00    +0.000 A 
ATOM     14  C   UNL     1      46.025   3.992   7.674  0.00  0.00    +0.000 A 
ATOM     15  C   UNL     1      46.350   2.658   7.485  0.00  0.00    +0.000 A 
ATOM     16  C   UNL     1      45.859   1.733   8.390  0.00  0.00    +0.000 A 
ATOM     17  N   UNL     1      45.146   2.058   9.491  0.00  0.00    +0.000 NA
ENDBRANCH   9  12
ENDBRANCH   5   9
BRANCH   1  19
ATOM     18  N   UNL     1      49.087   9.353  14.215  0.00  0.00    +0.000 NA
ATOM     19  C   UNL     1      48.466   8.466  13.803  0.00  0.00    +0.000 C 
ENDBRANCH   1  19
TORSDOF 3
ENDMDL
MODEL 4
REMARK VINA RESULT:    -6.130      2.927      6.499
REMARK INTER + INTRA:          -6.904
REMARK INTER:                  -6.919
REMARK INTRA:                   0.015
REMARK UNBOUND:                 0.301
REMARK  Name = 
REMARK  3 active torsions:
REMARK  status: ('A' for Active; 'I' for Inactive)
REMARK    1  A    between atoms: C_2  and  C_3
REMARK    2  A    between atoms: N_7  and  C_8
REMARK    3  A    between atoms: C_8  and  C_9
REMARK                            x       y       z     vdW  Elec       q    Type
REMARK                         _______ _______ _______ _____ _____    ______ ____
ROOT
ATOM      1  C   UNL     1      48.538   5.276  16.309  0.00  0.00    +0.000 A 
ATOM      2  C   UNL     1      48.355   6.099  15.198  0.00  0.00    +0.000 A 
ATOM      3  C   UNL     1      47.383   5.767  14.240  0.00  0.00    +0.000 A 
ATOM      4  C   UNL     1      46.614   4.626  14.414  0.00  0.00    +0.000 A 
ATOM      5  N   UNL     1      45.628   4.186  13.540  0.00  0.00    +0.000 N 
ATOM      6  N   UNL     1      46.789   3.822  15.490  0.00  0.00    +0.000 NA
ATOM      7  C   UNL     1      47.732   4.159  16.402  0.00  0.00    +0.000 A 
ATOM      8  H   UNL     1      45.218   3.333  13.897  0.00  0.00    +0.000 HD
ENDROOT
BRANCH   5   9
ATOM      9  C   UNL     1      44.984   4.911  12.440  0.00  0.00    +0.000 C 
ATOM     10  C   UNL     1      44.551   6.360  12.576  0.00  0.00    +0.000 C 
ATOM     11  C   UNL     1      43.511   5.295  12.648  0.00  0.00    +0.000 C 
BRANCH   9  12
ATOM     12  C   UNL     1      45.207   4.316  11.037  0.00  0.00    +0.000 A 
ATOM     13  C   UNL     1      44.796   2.999  10.786  0.00  0.00    +0.000 A 
ATOM     14  C   UNL     1      44.616   2.565   9.477  0.00  0.00    +0.000 A 
ATOM     15  C   UNL     1      44.901   3.436   8.437  0.00  0.00    +0.000 A 
ATOM     16  C   UNL     1      45.405   4.686   8.753  0.00  0.00    +0.000 A 
ATOM     17  N   UNL     1      45.565   5.139  10.016  0.00  0.00    +0.000 NA
ENDBRANCH   9  12
ENDBRANCH   5   9
BRANCH   1  19
ATOM     18  N   UNL     1      50.315   5.758  18.131  0.00  0.00    +0.000 NA
ATOM     19  C   UNL     1      49.521   5.550  17.314  0.00  0.00    +0.000 C 
ENDBRANCH   1  19
TORSDOF 3
ENDMDL
MODEL 5
REMARK VINA RESULT:    -5.831      2.098      5.881
REMARK INTER + INTRA:          -6.553
REMARK INTER:                  -7.073
REMARK INTRA:                   0.520
REMARK UNBOUND:                 0.301
REMARK  Name = 
REMARK  3 active torsions:
REMARK  status: ('A' for Active; 'I' for Inactive)
REMARK    1  A    between atoms: C_2  and  C_3
REMARK    2  A    between atoms: N_7  and  C_8
REMARK    3  A    between atoms: C_8  and  C_9
REMARK                            x       y       z     vdW  Elec       q    Type
REMARK                         _______ _______ _______ _____ _____    ______ ____
ROOT
ATOM      1  C   UNL     1      48.282   6.905  14.174  0.00  0.00    +0.000 A 
ATOM      2  C   UNL     1      47.644   5.665  14.133  0.00  0.00    +0.000 A 
ATOM      3  C   UNL     1      46.412   5.539  13.470  0.00  0.00    +0.000 A 
ATOM      4  C   UNL     1      45.847   6.650  12.861  0.00  0.00    +0.000 A 
ATOM      5  N   UNL     1      44.636   6.659  12.182  0.00  0.00    +0.000 N 
ATOM      6  N   UNL     1      46.461   7.856  12.900  0.00  0.00    +0.000 NA
ATOM      7  C   UNL     1      47.649   7.958  13.544  0.00  0.00    +0.000 A 
ATOM      8  H   UNL     1      44.454   7.591  11.833  0.00  0.00    +0.000 HD
ENDROOT
BRANCH   5   9
ATOM      9  C   UNL     1      43.838   5.523  11.711  0.00  0.00    +0.000 C 
ATOM     10  C   UNL     1      42.323   5.504  11.819  0.00  0.00    +0.000 C 
ATOM     11  C   UNL     1      43.117   4.702  12.792  0.00  0.00    +0.000 C 
BRANCH   9  12
ATOM     12  C   UNL     1      44.536   4.602  10.692  0.00  0.00    +0.000 A 
ATOM     13  C   UNL     1      44.185   3.245  10.653  0.00  0.00    +0.000 A 
ATOM     14  C   UNL     1      44.482   2.484   9.528  0.00  0.00    +0.000 A 
ATOM     15  C   UNL     1      45.173   3.074   8.482  0.00  0.00    +0.000 A 
ATOM     16  C   UNL     1      45.583   4.388   8.631  0.00  0.00    +0.000 A 
ATOM     17  N   UNL     1      45.285   5.155   9.702  0.00  0.00    +0.000 NA
ENDBRANCH   9  12
ENDBRANCH   5   9
BRANCH   1  19
ATOM     18  N   UNL     1      50.536   7.273  15.396  0.00  0.00    +0.000 NA
ATOM     19  C   UNL     1      49.532   7.103  14.844  0.00  0.00    +0.000 C 
ENDBRANCH   1  19
TORSDOF 3
ENDMDL
MODEL 6
REMARK VINA RESULT:    -5.742      2.010      5.818
REMARK INTER + INTRA:          -6.449
REMARK INTER:                  -6.932
REMARK INTRA:                   0.483
REMARK UNBOUND:                 0.301
REMARK  Name = 
REMARK  3 active torsions:
REMARK  status: ('A' for Active; 'I' for Inactive)
REMARK    1  A    between atoms: C_2  and  C_3
REMARK    2  A    between atoms: N_7  and  C_8
REMARK    3  A    between atoms: C_8  and  C_9
REMARK                            x       y       z     vdW  Elec       q    Type
REMARK                         _______ _______ _______ _____ _____    ______ ____
ROOT
ATOM      1  C   UNL     1      46.691   8.569  12.246  0.00  0.00    +0.000 A 
ATOM      2  C   UNL     1      47.114   7.250  12.413  0.00  0.00    +0.000 A 
ATOM      3  C   UNL     1      46.261   6.195  12.052  0.00  0.00    +0.000 A 
ATOM      4  C   UNL     1      45.008   6.478  11.529  0.00  0.00    +0.000 A 
ATOM      5  N   UNL     1      44.071   5.530  11.140  0.00  0.00    +0.000 N 
ATOM      6  N   UNL     1      44.591   7.757  11.366  0.00  0.00    +0.000 NA
ATOM      7  C   UNL     1      45.429   8.761  11.720  0.00  0.00    +0.000 A 
ATOM      8  H   UNL     1      43.244   5.997  10.793  0.00  0.00    +0.000 HD
ENDROOT
BRANCH   5   9
ATOM      9  C   UNL     1      44.256   4.092  10.920  0.00  0.00    +0.000 C 
ATOM     10  C   UNL     1      43.281   3.063  11.464  0.00  0.00    +0.000 C 
ATOM     11  C   UNL     1      44.584   3.250  12.163  0.00  0.00    +0.000 C 
BRANCH   9  12
ATOM     12  C   UNL     1      45.173   3.716   9.741  0.00  0.00    +0.000 A 
ATOM     13  C   UNL     1      45.315   2.364   9.396  0.00  0.00    +0.000 A 
ATOM     14  C   UNL     1      45.797   2.016   8.139  0.00  0.00    +0.000 A 
ATOM     15  C   UNL     1      46.179   3.021   7.265  0.00  0.00    +0.000 A 
ATOM     16  C   UNL     1      46.114   4.330   7.708  0.00  0.00    +0.000 A 
ATOM     17  N   UNL     1      45.627   4.696   8.914  0.00  0.00    +0.000 NA
ENDBRANCH   9  12
ENDBRANCH   5   9
BRANCH   1  19
ATOM     18  N   UNL     1      48.157  10.599  12.908  0.00  0.00    +0.000 NA
ATOM     19  C   UNL     1      47.507   9.688  12.606  0.00  0.00    +0.000 C 
ENDBRANCH   1  19
TORSDOF 3
ENDMDL
MODEL 7
REMARK VINA RESULT:    -5.615      2.811      4.955
REMARK INTER + INTRA:          -6.299
REMARK INTER:                  -6.010
REMARK INTRA:                  -0.289
REMARK UNBOUND:                 0.301
REMARK  Name = 
REMARK  3 active torsions:
REMARK  status: ('A' for Active; 'I' for Inactive)
REMARK    1  A    between atoms: C_2  and  C_3
REMARK    2  A    between atoms: N_7  and  C_8
REMARK    3  A    between atoms: C_8  and  C_9
REMARK                            x       y       z     vdW  Elec       q    Type
REMARK                         _______ _______ _______ _____ _____    ______ ____
ROOT
ATOM      1  C   UNL     1      44.934   4.006  10.713  0.00  0.00    +0.000 A 
ATOM      2  C   UNL     1      45.518   5.141  10.149  0.00  0.00    +0.000 A 
ATOM      3  C   UNL     1      45.933   6.195  10.980  0.00  0.00    +0.000 A 
ATOM      4  C   UNL     1      45.761   6.091  12.352  0.00  0.00    +0.000 A 
ATOM      5  N   UNL     1      46.122   7.061  13.278  0.00  0.00    +0.000 N 
ATOM      6  N   UNL     1      45.193   4.992  12.905  0.00  0.00    +0.000 NA
ATOM      7  C   UNL     1      44.799   3.987  12.087  0.00  0.00    +0.000 A 
ATOM      8  H   UNL     1      45.891   6.739  14.209  0.00  0.00    +0.000 HD
ENDROOT
BRANCH   5   9
ATOM      9  C   UNL     1      46.982   8.234  13.093  0.00  0.00    +0.000 C 
ATOM     10  C   UNL     1      48.493   8.116  12.993  0.00  0.00    +0.000 C 
ATOM     11  C   UNL     1      47.899   8.598  14.272  0.00  0.00    +0.000 C 
BRANCH   9  12
ATOM     12  C   UNL     1      46.282   9.485  12.531  0.00  0.00    +0.000 A 
ATOM     13  C   UNL     1      47.047  10.443  11.850  0.00  0.00    +0.000 A 
ATOM     14  C   UNL     1      46.425  11.359  11.009  0.00  0.00    +0.000 A 
ATOM     15  C   UNL     1      45.043  11.339  10.902  0.00  0.00    +0.000 A 
ATOM     16  C   UNL     1      44.341  10.439  11.685  0.00  0.00    +0.000 A 
ATOM     17  N   UNL     1      44.923   9.523  12.490  0.00  0.00    +0.000 NA
ENDBRANCH   9  12
ENDBRANCH   5   9
BRANCH   1  19
ATOM     18  N   UNL     1      44.120   2.015   9.270  0.00  0.00    +0.000 NA
ATOM     19  C   UNL     1      44.478   2.904   9.921  0.00  0.00    +0.000 C 
ENDBRANCH   1  19
TORSDOF 3
ENDMDL
MODEL 8
REMARK VINA RESULT:    -5.491      4.139      6.651
REMARK INTER + INTRA:          -6.153
REMARK INTER:                  -6.115
REMARK INTRA:                  -0.038
REMARK UNBOUND:                 0.301
REMARK  Name = 
REMARK  3 active torsions:
REMARK  status: ('A' for Active; 'I' for Inactive)
REMARK    1  A    between atoms: C_2  and  C_3
REMARK    2  A    between atoms: N_7  and  C_8
REMARK    3  A    between atoms: C_8  and  C_9
REMARK                            x       y       z     vdW  Elec       q    Type
REMARK                         _______ _______ _______ _____ _____    ______ ____
ROOT
ATOM      1  C   UNL     1      45.826   5.002  12.252  0.00  0.00    +0.000 A 
ATOM      2  C   UNL     1      46.055   3.950  13.138  0.00  0.00    +0.000 A 
ATOM      3  C   UNL     1      46.809   4.172  14.302  0.00  0.00    +0.000 A 
ATOM      4  C   UNL     1      47.314   5.439  14.557  0.00  0.00    +0.000 A 
ATOM      5  N   UNL     1      48.077   5.787  15.663  0.00  0.00    +0.000 N 
ATOM      6  N   UNL     1      47.097   6.464  13.698  0.00  0.00    +0.000 NA
ATOM      7  C   UNL     1      46.367   6.229  12.581  0.00  0.00    +0.000 A 
ATOM      8  H   UNL     1      48.317   6.769  15.611  0.00  0.00    +0.000 HD
ENDROOT
BRANCH   5   9
ATOM      9  C   UNL     1      48.287   5.040  16.907  0.00  0.00    +0.000 C 
ATOM     10  C   UNL     1      47.149   4.741  17.868  0.00  0.00    +0.000 C 
ATOM     11  C   UNL     1      48.106   5.830  18.214  0.00  0.00    +0.000 C 
BRANCH   9  12
ATOM     12  C   UNL     1      49.564   4.180  16.955  0.00  0.00    +0.000 A 
ATOM     13  C   UNL     1      50.760   4.765  17.394  0.00  0.00    +0.000 A 
ATOM     14  C   UNL     1      51.811   3.960  17.819  0.00  0.00    +0.000 A 
ATOM     15  C   UNL     1      51.672   2.583  17.750  0.00  0.00    +0.000 A 
ATOM     16  C   UNL     1      50.506   2.072  17.205  0.00  0.00    +0.000 A 
ATOM     17  N   UNL     1      49.461   2.832  16.809  0.00  0.00    +0.000 NA
ENDBRANCH   9  12
ENDBRANCH   5   9
BRANCH   1  19
ATOM     18  N   UNL     1      44.476   4.690  10.064  0.00  0.00    +0.000 NA
ATOM     19  C   UNL     1      45.077   4.838  11.042  0.00  0.00    +0.000 C 
ENDBRANCH   1  19
TORSDOF 3
ENDMDL
MODEL 9
REMARK VINA RESULT:    -5.121      3.955      7.280
REMARK INTER + INTRA:          -5.719
REMARK INTER:                  -5.718
REMARK INTRA:                  -0.001
REMARK UNBOUND:                 0.301
REMARK  Name = 
REMARK  3 active torsions:
REMARK  status: ('A' for Active; 'I' for Inactive)
REMARK    1  A    between atoms: C_2  and  C_3
REMARK    2  A    between atoms: N_7  and  C_8
REMARK    3  A    between atoms: C_8  and  C_9
REMARK                            x       y       z     vdW  Elec       q    Type
REMARK                         _______ _______ _______ _____ _____    ______ ____
ROOT
ATOM      1  C   UNL     1      48.595   4.505  18.086  0.00  0.00    +0.000 A 
ATOM      2  C   UNL     1      48.289   5.609  17.290  0.00  0.00    +0.000 A 
ATOM      3  C   UNL     1      47.679   5.417  16.040  0.00  0.00    +0.000 A 
ATOM      4  C   UNL     1      47.384   4.131  15.614  0.00  0.00    +0.000 A 
ATOM      5  N   UNL     1      46.789   3.808  14.401  0.00  0.00    +0.000 N 
ATOM      6  N   UNL     1      47.680   3.055  16.381  0.00  0.00    +0.000 NA
ATOM      7  C   UNL     1      48.269   3.260  17.584  0.00  0.00    +0.000 A 
ATOM      8  H   UNL     1      46.683   2.804  14.336  0.00  0.00    +0.000 HD
ENDROOT
BRANCH   5   9
ATOM      9  C   UNL     1      46.099   4.687  13.452  0.00  0.00    +0.000 C 
ATOM     10  C   UNL     1      44.584   4.732  13.351  0.00  0.00    +0.000 C 
ATOM     11  C   UNL     1      45.347   3.994  12.305  0.00  0.00    +0.000 C 
BRANCH   9  12
ATOM     12  C   UNL     1      46.928   5.876  12.930  0.00  0.00    +0.000 A 
ATOM     13  C   UNL     1      46.313   7.130  12.808  0.00  0.00    +0.000 A 
ATOM     14  C   UNL     1      47.091   8.279  12.725  0.00  0.00    +0.000 A 
ATOM     15  C   UNL     1      48.471   8.155  12.711  0.00  0.00    +0.000 A 
ATOM     16  C   UNL     1      49.012   6.881  12.726  0.00  0.00    +0.000 A 
ATOM     17  N   UNL     1      48.278   5.751  12.832  0.00  0.00    +0.000 NA
ENDBRANCH   9  12
ENDBRANCH   5   9
BRANCH   1  19
ATOM     18  N   UNL     1      49.729   4.727  20.403  0.00  0.00    +0.000 NA
ATOM     19  C   UNL     1      49.229   4.631  19.363  0.00  0.00    +0.000 C 
ENDBRANCH   1  19
TORSDOF 3
ENDMDL
