MODEL 1
REMARK VINA RESULT:    -8.043      0.000      0.000
REMARK INTER + INTRA:         -12.626
REMARK INTER:                 -11.334
REMARK INTRA:                  -1.291
REMARK UNBOUND:                -1.291
REMARK  Name = 
REMARK  8 active torsions:
REMARK  status: ('A' for Active; 'I' for Inactive)
REMARK    1  A    between atoms: C_1  and  C_2
REMARK    2  A    between atoms: C_2  and  C_3
REMARK    3  A    between atoms: C_3  and  N_4
REMARK    4  A    between atoms: C_3  and  C_17
REMARK    5  A    between atoms: C_5  and  C_7
REMARK    6  A    between atoms: C_20  and  C_21
REMARK    7  A    between atoms: C_21  and  O_22
REMARK    8  A    between atoms: O_22  and  C_23
REMARK                            x       y       z     vdW  Elec       q    Type
REMARK                         _______ _______ _______ _____ _____    ______ ____
ROOT
ATOM      1  C   UNL     1      46.892   7.224  13.050  0.00  0.00    +0.000 C 
ENDROOT
BRANCH   1   2
ATOM      2  C   UNL     1      46.207   6.095  12.295  0.00  0.00    +0.000 A 
ATOM      3  C   UNL     1      46.047   4.845  12.913  0.00  0.00    +0.000 A 
ATOM      4  C   UNL     1      45.459   3.778  12.227  0.00  0.00    +0.000 A 
ATOM      5  C   UNL     1      45.037   3.935  10.902  0.00  0.00    +0.000 A 
ATOM      6  C   UNL     1      45.172   5.184  10.290  0.00  0.00    +0.000 A 
ATOM      7  C   UNL     1      45.772   6.244  10.970  0.00  0.00    +0.000 A 
BRANCH   5   8
ATOM      8  C   UNL     1      44.506   2.763  10.111  0.00  0.00    +0.000 C 
BRANCH   8   9
ATOM      9  O   UNL     1      44.547   3.037   8.709  0.00  0.00    +0.000 OA
BRANCH   9  10
ATOM     10  C   UNL     1      45.643   2.441   8.112  0.00  0.00    +0.000 A 
ATOM     11  C   UNL     1      46.455   3.251   7.351  0.00  0.00    +0.000 A 
ATOM     12  C   UNL     1      47.541   2.626   6.783  0.00  0.00    +0.000 A 
ATOM     13  N   UNL     1      47.821   1.321   6.942  0.00  0.00    +0.000 NA
ATOM     14  C   UNL     1      46.957   0.632   7.706  0.00  0.00    +0.000 A 
ATOM     15  N   UNL     1      45.870   1.126   8.304  0.00  0.00    +0.000 NA
ENDBRANCH   9  10
ENDBRANCH   8   9
ENDBRANCH   5   8
ENDBRANCH   1   2
BRANCH   1  16
ATOM     16  N   UNL     1      47.801   6.638  14.022  0.00  0.00    +0.000 N 
ATOM     17  C   UNL     1      48.325   7.329  15.081  0.00  0.00    +0.000 C 
ATOM     18  O   UNL     1      48.003   8.489  15.331  0.00  0.00    +0.000 OA
ATOM     19  H   UNL     1      48.184   5.729  13.780  0.00  0.00    +0.000 HD
BRANCH  17  20
ATOM     20  C   UNL     1      49.262   6.595  15.940  0.00  0.00    +0.000 A 
ATOM     21  C   UNL     1      50.511   7.132  16.219  0.00  0.00    +0.000 A 
ATOM     22  S   UNL     1      51.482   6.132  17.202  0.00  0.00    +0.000 S 
ATOM     23  C   UNL     1      50.284   4.925  17.250  0.00  0.00    +0.000 A 
ATOM     24  N   UNL     1      50.507   3.742  17.892  0.00  0.00    +0.000 NA
ATOM     25  C   UNL     1      49.527   2.905  17.815  0.00  0.00    +0.000 A 
ATOM     26  N   UNL     1      48.338   3.149  17.180  0.00  0.00    +0.000 N 
ATOM     27  C   UNL     1      48.045   4.348  16.576  0.00  0.00    +0.000 A 
ATOM     28  O   UNL     1      46.932   4.571  16.113  0.00  0.00    +0.000 OA
ATOM     29  C   UNL     1      49.138   5.304  16.574  0.00  0.00    +0.000 A 
ATOM     30  H   UNL     1      47.597   2.465  17.194  0.00  0.00    +0.000 HD
ENDBRANCH  17  20
ENDBRANCH   1  16
BRANCH   1  32
ATOM     31  C   UNL     1      48.999   7.695  11.683  0.00  0.00    +0.000 C 
ATOM     32  C   UNL     1      47.646   8.224  12.149  0.00  0.00    +0.000 C 
ENDBRANCH   1  32
TORSDOF 7
ENDMDL
MODEL 2
REMARK VINA RESULT:    -7.948      1.060      1.417
REMARK INTER + INTRA:         -12.492
REMARK INTER:                 -11.972
REMARK INTRA:                  -0.520
REMARK UNBOUND:                -1.291
REMARK  Name = 
REMARK  8 active torsions:
REMARK  status: ('A' for Active; 'I' for Inactive)
REMARK    1  A    between atoms: C_1  and  C_2
REMARK    2  A    between atoms: C_2  and  C_3
REMARK    3  A    between atoms: C_3  and  N_4
REMARK    4  A    between atoms: C_3  and  C_17
REMARK    5  A    between atoms: C_5  and  C_7
REMARK    6  A    between atoms: C_20  and  C_21
REMARK    7  A    between atoms: C_21  and  O_22
REMARK    8  A    between atoms: O_22  and  C_23
REMARK                            x       y       z     vdW  Elec       q    Type
REMARK                         _______ _______ _______ _____ _____    ______ ____
ROOT
ATOM      1  C   UNL     1      46.263   7.597  12.791  0.00  0.00    +0.000 C 
ENDROOT
BRANCH   1   2
ATOM      2  C   UNL     1      45.851   6.332  12.055  0.00  0.00    +0.000 A 
ATOM      3  C   UNL     1      46.029   6.249  10.666  0.00  0.00    +0.000 A 
ATOM      4  C   UNL     1      45.620   5.115   9.958  0.00  0.00    +0.000 A 
ATOM      5  C   UNL     1      45.008   4.047  10.624  0.00  0.00    +0.000 A 
ATOM      6  C   UNL     1      44.850   4.114  12.011  0.00  0.00    +0.000 A 
ATOM      7  C   UNL     1      45.245   5.252  12.715  0.00  0.00    +0.000 A 
BRANCH   5   8
ATOM      8  C   UNL     1      44.457   2.867   9.860  0.00  0.00    +0.000 C 
BRANCH   8   9
ATOM      9  O   UNL     1      44.544   3.089   8.451  0.00  0.00    +0.000 OA
BRANCH   9  10
ATOM     10  C   UNL     1      45.647   2.453   7.909  0.00  0.00    +0.000 A 
ATOM     11  C   UNL     1      46.397   3.168   7.004  0.00  0.00    +0.000 A 
ATOM     12  C   UNL     1      47.491   2.508   6.496  0.00  0.00    +0.000 A 
ATOM     13  N   UNL     1      47.835   1.254   6.840  0.00  0.00    +0.000 NA
ATOM     14  C   UNL     1      47.028   0.657   7.732  0.00  0.00    +0.000 A 
ATOM     15  N   UNL     1      45.939   1.193   8.290  0.00  0.00    +0.000 NA
ENDBRANCH   9  10
ENDBRANCH   8   9
ENDBRANCH   5   8
ENDBRANCH   1   2
BRANCH   1  16
ATOM     16  N   UNL     1      46.934   7.212  14.022  0.00  0.00    +0.000 N 
ATOM     17  C   UNL     1      48.151   6.586  14.056  0.00  0.00    +0.000 C 
ATOM     18  O   UNL     1      48.805   6.369  13.039  0.00  0.00    +0.000 OA
ATOM     19  H   UNL     1      46.373   7.261  14.868  0.00  0.00    +0.000 HD
BRANCH  17  20
ATOM     20  C   UNL     1      48.663   6.227  15.385  0.00  0.00    +0.000 A 
ATOM     21  C   UNL     1      49.683   6.972  15.959  0.00  0.00    +0.000 A 
ATOM     22  S   UNL     1      50.176   6.395  17.486  0.00  0.00    +0.000 S 
ATOM     23  C   UNL     1      49.074   5.101  17.413  0.00  0.00    +0.000 A 
ATOM     24  N   UNL     1      49.025   4.165  18.405  0.00  0.00    +0.000 NA
ATOM     25  C   UNL     1      48.169   3.221  18.200  0.00  0.00    +0.000 A 
ATOM     26  N   UNL     1      47.342   3.138  17.111  0.00  0.00    +0.000 N 
ATOM     27  C   UNL     1      47.311   4.089  16.121  0.00  0.00    +0.000 A 
ATOM     28  O   UNL     1      46.483   4.040  15.218  0.00  0.00    +0.000 OA
ATOM     29  C   UNL     1      48.301   5.142  16.266  0.00  0.00    +0.000 A 
ATOM     30  H   UNL     1      46.666   2.392  17.034  0.00  0.00    +0.000 HD
ENDBRANCH  17  20
ENDBRANCH   1  16
BRANCH   1  32
ATOM     31  C   UNL     1      47.156   9.974  12.505  0.00  0.00    +0.000 C 
ATOM     32  C   UNL     1      47.160   8.546  11.969  0.00  0.00    +0.000 C 
ENDBRANCH   1  32
TORSDOF 7
ENDMDL
MODEL 3
REMARK VINA RESULT:    -7.798      1.081      1.388
REMARK INTER + INTRA:         -12.281
REMARK INTER:                 -10.576
REMARK INTRA:                  -1.705
REMARK UNBOUND:                -1.291
REMARK  Name = 
REMARK  8 active torsions:
REMARK  status: ('A' for Active; 'I' for Inactive)
REMARK    1  A    between atoms: C_1  and  C_2
REMARK    2  A    between atoms: C_2  and  C_3
REMARK    3  A    between atoms: C_3  and  N_4
REMARK    4  A    between atoms: C_3  and  C_17
REMARK    5  A    between atoms: C_5  and  C_7
REMARK    6  A    between atoms: C_20  and  C_21
REMARK    7  A    between atoms: C_21  and  O_22
REMARK    8  A    between atoms: O_22  and  C_23
REMARK                            x       y       z     vdW  Elec       q    Type
REMARK                         _______ _______ _______ _____ _____    ______ ____
ROOT
ATOM      1  C   UNL     1      47.335   7.833  13.572  0.00  0.00    +0.000 C 
ENDROOT
BRANCH   1   2
ATOM      2  C   UNL     1      46.358   6.873  12.910  0.00  0.00    +0.000 A 
ATOM      3  C   UNL     1      46.492   5.492  13.123  0.00  0.00    +0.000 A 
ATOM      4  C   UNL     1      45.635   4.584  12.493  0.00  0.00    +0.000 A 
ATOM      5  C   UNL     1      44.638   5.040  11.623  0.00  0.00    +0.000 A 
ATOM      6  C   UNL     1      44.484   6.415  11.427  0.00  0.00    +0.000 A 
ATOM      7  C   UNL     1      45.349   7.319  12.044  0.00  0.00    +0.000 A 
BRANCH   5   8
ATOM      8  C   UNL     1      43.780   4.069  10.848  0.00  0.00    +0.000 C 
BRANCH   8   9
ATOM      9  O   UNL     1      43.804   4.374   9.451  0.00  0.00    +0.000 OA
BRANCH   9  10
ATOM     10  C   UNL     1      44.814   3.686   8.804  0.00  0.00    +0.000 A 
ATOM     11  C   UNL     1      44.921   2.340   9.068  0.00  0.00    +0.000 A 
ATOM     12  C   UNL     1      45.928   1.688   8.397  0.00  0.00    +0.000 A 
ATOM     13  N   UNL     1      46.766   2.291   7.535  0.00  0.00    +0.000 NA
ATOM     14  C   UNL     1      46.565   3.606   7.357  0.00  0.00    +0.000 A 
ATOM     15  N   UNL     1      45.626   4.346   7.954  0.00  0.00    +0.000 NA
ENDBRANCH   9  10
ENDBRANCH   8   9
ENDBRANCH   5   8
ENDBRANCH   1   2
BRANCH   1  16
ATOM     16  N   UNL     1      48.229   7.062  14.421  0.00  0.00    +0.000 N 
ATOM     17  C   UNL     1      48.706   7.512  15.623  0.00  0.00    +0.000 C 
ATOM     18  O   UNL     1      48.350   8.582  16.110  0.00  0.00    +0.000 OA
ATOM     19  H   UNL     1      48.640   6.235  13.997  0.00  0.00    +0.000 HD
BRANCH  17  20
ATOM     20  C   UNL     1      49.636   6.622  16.329  0.00  0.00    +0.000 A 
ATOM     21  C   UNL     1      50.925   7.051  16.612  0.00  0.00    +0.000 A 
ATOM     22  S   UNL     1      51.878   5.880  17.405  0.00  0.00    +0.000 S 
ATOM     23  C   UNL     1      50.615   4.741  17.356  0.00  0.00    +0.000 A 
ATOM     24  N   UNL     1      50.796   3.473  17.826  0.00  0.00    +0.000 NA
ATOM     25  C   UNL     1      49.766   2.706  17.691  0.00  0.00    +0.000 A 
ATOM     26  N   UNL     1      48.568   3.094  17.154  0.00  0.00    +0.000 N 
ATOM     27  C   UNL     1      48.318   4.376  16.728  0.00  0.00    +0.000 A 
ATOM     28  O   UNL     1      47.201   4.716  16.355  0.00  0.00    +0.000 OA
ATOM     29  C   UNL     1      49.464   5.266  16.795  0.00  0.00    +0.000 A 
ATOM     30  H   UNL     1      47.789   2.453  17.116  0.00  0.00    +0.000 HD
ENDBRANCH  17  20
ENDBRANCH   1  16
BRANCH   1  32
ATOM     31  C   UNL     1      49.110   7.869  11.735  0.00  0.00    +0.000 C 
ATOM     32  C   UNL     1      48.147   8.694  12.582  0.00  0.00    +0.000 C 
ENDBRANCH   1  32
TORSDOF 7
ENDMDL
MODEL 4
REMARK VINA RESULT:    -7.523      1.847      2.114
REMARK INTER + INTRA:         -11.893
REMARK INTER:                 -10.566
REMARK INTRA:                  -1.327
REMARK UNBOUND:                -1.291
REMARK  Name = 
REMARK  8 active torsions:
REMARK  status: ('A' for Active; 'I' for Inactive)
REMARK    1  A    between atoms: C_1  and  C_2
REMARK    2  A    between atoms: C_2  and  C_3
REMARK    3  A    between atoms: C_3  and  N_4
REMARK    4  A    between atoms: C_3  and  C_17
REMARK    5  A    between atoms: C_5  and  C_7
REMARK    6  A    between atoms: C_20  and  C_21
REMARK    7  A    between atoms: C_21  and  O_22
REMARK    8  A    between atoms: O_22  and  C_23
REMARK                            x       y       z     vdW  Elec       q    Type
REMARK                         _______ _______ _______ _____ _____    ______ ____
ROOT
ATOM      1  C   UNL     1      47.981   7.443  13.403  0.00  0.00    +0.000 C 
ENDROOT
BRANCH   1   2
ATOM      2  C   UNL     1      46.833   6.644  12.804  0.00  0.00    +0.000 A 
ATOM      3  C   UNL     1      46.653   5.303  13.176  0.00  0.00    +0.000 A 
ATOM      4  C   UNL     1      45.633   4.533  12.609  0.00  0.00    +0.000 A 
ATOM      5  C   UNL     1      44.782   5.086  11.645  0.00  0.00    +0.000 A 
ATOM      6  C   UNL     1      44.940   6.428  11.289  0.00  0.00    +0.000 A 
ATOM      7  C   UNL     1      45.968   7.191  11.844  0.00  0.00    +0.000 A 
BRANCH   5   8
ATOM      8  C   UNL     1      43.750   4.237  10.940  0.00  0.00    +0.000 C 
BRANCH   8   9
ATOM      9  O   UNL     1      43.758   4.493   9.534  0.00  0.00    +0.000 OA
BRANCH   9  10
ATOM     10  C   UNL     1      44.726   3.742   8.892  0.00  0.00    +0.000 A 
ATOM     11  C   UNL     1      44.764   2.397   9.177  0.00  0.00    +0.000 A 
ATOM     12  C   UNL     1      45.731   1.682   8.511  0.00  0.00    +0.000 A 
ATOM     13  N   UNL     1      46.593   2.226   7.634  0.00  0.00    +0.000 NA
ATOM     14  C   UNL     1      46.461   3.547   7.436  0.00  0.00    +0.000 A 
ATOM     15  N   UNL     1      45.566   4.345   8.026  0.00  0.00    +0.000 NA
ENDBRANCH   9  10
ENDBRANCH   8   9
ENDBRANCH   5   8
ENDBRANCH   1   2
BRANCH   1  16
ATOM     16  N   UNL     1      47.962   7.257  14.845  0.00  0.00    +0.000 N 
ATOM     17  C   UNL     1      48.661   8.047  15.718  0.00  0.00    +0.000 C 
ATOM     18  O   UNL     1      49.304   9.026  15.346  0.00  0.00    +0.000 OA
ATOM     19  H   UNL     1      47.548   6.391  15.177  0.00  0.00    +0.000 HD
BRANCH  17  20
ATOM     20  C   UNL     1      48.565   7.691  17.139  0.00  0.00    +0.000 A 
ATOM     21  C   UNL     1      48.440   8.689  18.096  0.00  0.00    +0.000 A 
ATOM     22  S   UNL     1      48.375   8.099  19.695  0.00  0.00    +0.000 S 
ATOM     23  C   UNL     1      48.560   6.492  19.167  0.00  0.00    +0.000 A 
ATOM     24  N   UNL     1      48.649   5.466  20.062  0.00  0.00    +0.000 NA
ATOM     25  C   UNL     1      48.826   4.307  19.523  0.00  0.00    +0.000 A 
ATOM     26  N   UNL     1      48.895   4.074  18.175  0.00  0.00    +0.000 N 
ATOM     27  C   UNL     1      48.746   5.065  17.236  0.00  0.00    +0.000 A 
ATOM     28  O   UNL     1      48.705   4.805  16.038  0.00  0.00    +0.000 OA
ATOM     29  C   UNL     1      48.612   6.402  17.787  0.00  0.00    +0.000 A 
ATOM     30  H   UNL     1      48.993   3.135  17.819  0.00  0.00    +0.000 HD
ENDBRANCH  17  20
ENDBRANCH   1  16
BRANCH   1  32
ATOM     31  C   UNL     1      49.713   7.864  11.573  0.00  0.00    +0.000 C 
ATOM     32  C   UNL     1      49.369   7.081  12.836  0.00  0.00    +0.000 C 
ENDBRANCH   1  32
TORSDOF 7
ENDMDL
MODEL 5
REMARK VINA RESULT:    -7.421      3.971      8.552
REMARK INTER + INTRA:         -11.749
REMARK INTER:                 -10.508
REMARK INTRA:                  -1.241
REMARK UNBOUND:                -1.291
REMARK  Name = 
REMARK  8 active torsions:
REMARK  status: ('A' for Active; 'I' for Inactive)
REMARK    1  A    between atoms: C_1  and  C_2
REMARK    2  A    between atoms: C_2  and  C_3
REMARK    3  A    between atoms: C_3  and  N_4
REMARK    4  A    between atoms: C_3  and  C_17
REMARK    5  A    between atoms: C_5  and  C_7
REMARK    6  A    between atoms: C_20  and  C_21
REMARK    7  A    between atoms: C_21  and  O_22
REMARK    8  A    between atoms: O_22  and  C_23
REMARK                            x       y       z     vdW  Elec       q    Type
REMARK                         _______ _______ _______ _____ _____    ______ ____
ROOT
ATOM      1  C   UNL     1      48.699   5.924  17.371  0.00  0.00    +0.000 C 
ENDROOT
BRANCH   1   2
ATOM      2  C   UNL     1      49.508   4.638  17.444  0.00  0.00    +0.000 A 
ATOM      3  C   UNL     1      50.896   4.702  17.639  0.00  0.00    +0.000 A 
ATOM      4  C   UNL     1      51.671   3.538  17.667  0.00  0.00    +0.000 A 
ATOM      5  C   UNL     1      51.073   2.286  17.484  0.00  0.00    +0.000 A 
ATOM      6  C   UNL     1      49.687   2.214  17.314  0.00  0.00    +0.000 A 
ATOM      7  C   UNL     1      48.918   3.377  17.271  0.00  0.00    +0.000 A 
BRANCH   5   8
ATOM      8  C   UNL     1      51.907   1.031  17.397  0.00  0.00    +0.000 C 
BRANCH   8   9
ATOM      9  O   UNL     1      52.950   1.047  18.375  0.00  0.00    +0.000 OA
BRANCH   9  10
ATOM     10  C   UNL     1      53.858   0.025  18.158  0.00  0.00    +0.000 A 
ATOM     11  C   UNL     1      54.436  -0.041  16.912  0.00  0.00    +0.000 A 
ATOM     12  C   UNL     1      55.342  -1.061  16.738  0.00  0.00    +0.000 A 
ATOM     13  N   UNL     1      55.664  -1.946  17.697  0.00  0.00    +0.000 NA
ATOM     14  C   UNL     1      55.036  -1.782  18.872  0.00  0.00    +0.000 A 
ATOM     15  N   UNL     1      54.138  -0.835  19.158  0.00  0.00    +0.000 NA
ENDBRANCH   9  10
ENDBRANCH   8   9
ENDBRANCH   5   8
ENDBRANCH   1   2
BRANCH   1  16
ATOM     16  N   UNL     1      47.903   5.893  16.155  0.00  0.00    +0.000 N 
ATOM     17  C   UNL     1      48.374   6.291  14.932  0.00  0.00    +0.000 C 
ATOM     18  O   UNL     1      49.540   6.639  14.760  0.00  0.00    +0.000 OA
ATOM     19  H   UNL     1      46.908   5.734  16.279  0.00  0.00    +0.000 HD
BRANCH  17  20
ATOM     20  C   UNL     1      47.421   6.238  13.817  0.00  0.00    +0.000 A 
ATOM     21  C   UNL     1      47.051   7.406  13.165  0.00  0.00    +0.000 A 
ATOM     22  S   UNL     1      45.911   7.163  11.919  0.00  0.00    +0.000 S 
ATOM     23  C   UNL     1      45.837   5.494  12.239  0.00  0.00    +0.000 A 
ATOM     24  N   UNL     1      44.981   4.686  11.550  0.00  0.00    +0.000 NA
ATOM     25  C   UNL     1      45.003   3.450  11.923  0.00  0.00    +0.000 A 
ATOM     26  N   UNL     1      45.817   2.943  12.901  0.00  0.00    +0.000 N 
ATOM     27  C   UNL     1      46.740   3.704  13.576  0.00  0.00    +0.000 A 
ATOM     28  O   UNL     1      47.527   3.197  14.366  0.00  0.00    +0.000 OA
ATOM     29  C   UNL     1      46.712   5.118  13.243  0.00  0.00    +0.000 A 
ATOM     30  H   UNL     1      45.813   1.957  13.114  0.00  0.00    +0.000 HD
ENDBRANCH  17  20
ENDBRANCH   1  16
BRANCH   1  32
ATOM     31  C   UNL     1      47.589   7.658  18.883  0.00  0.00    +0.000 C 
ATOM     32  C   UNL     1      47.795   6.175  18.595  0.00  0.00    +0.000 C 
ENDBRANCH   1  32
TORSDOF 7
ENDMDL
MODEL 6
REMARK VINA RESULT:    -6.955      1.989      2.942
REMARK INTER + INTRA:         -11.093
REMARK INTER:                  -9.605
REMARK INTRA:                  -1.488
REMARK UNBOUND:                -1.291
REMARK  Name = 
REMARK  8 active torsions:
REMARK  status: ('A' for Active; 'I' for Inactive)
REMARK    1  A    between atoms: C_1  and  C_2
REMARK    2  A    between atoms: C_2  and  C_3
REMARK    3  A    between atoms: C_3  and  N_4
REMARK    4  A    between atoms: C_3  and  C_17
REMARK    5  A    between atoms: C_5  and  C_7
REMARK    6  A    between atoms: C_20  and  C_21
REMARK    7  A    between atoms: C_21  and  O_22
REMARK    8  A    between atoms: O_22  and  C_23
REMARK                            x       y       z     vdW  Elec       q    Type
REMARK                         _______ _______ _______ _____ _____    ______ ____
ROOT
ATOM      1  C   UNL     1      48.104   7.659  13.771  0.00  0.00    +0.000 C 
ENDROOT
BRANCH   1   2
ATOM      2  C   UNL     1      47.164   6.708  13.045  0.00  0.00    +0.000 A 
ATOM      3  C   UNL     1      46.532   7.126  11.864  0.00  0.00    +0.000 A 
ATOM      4  C   UNL     1      45.630   6.289  11.199  0.00  0.00    +0.000 A 
ATOM      5  C   UNL     1      45.330   5.023  11.713  0.00  0.00    +0.000 A 
ATOM      6  C   UNL     1      45.976   4.591  12.875  0.00  0.00    +0.000 A 
ATOM      7  C   UNL     1      46.863   5.433  13.546  0.00  0.00    +0.000 A 
BRANCH   5   8
ATOM      8  C   UNL     1      44.275   4.153  11.072  0.00  0.00    +0.000 C 
BRANCH   8   9
ATOM      9  O   UNL     1      44.147   4.454   9.680  0.00  0.00    +0.000 OA
BRANCH   9  10
ATOM     10  C   UNL     1      45.020   3.697   8.920  0.00  0.00    +0.000 A 
ATOM     11  C   UNL     1      45.070   2.348   9.185  0.00  0.00    +0.000 A 
ATOM     12  C   UNL     1      45.939   1.627   8.401  0.00  0.00    +0.000 A 
ATOM     13  N   UNL     1      46.700   2.169   7.433  0.00  0.00    +0.000 NA
ATOM     14  C   UNL     1      46.566   3.495   7.266  0.00  0.00    +0.000 A 
ATOM     15  N   UNL     1      45.761   4.298   7.966  0.00  0.00    +0.000 NA
ENDBRANCH   9  10
ENDBRANCH   8   9
ENDBRANCH   5   8
ENDBRANCH   1   2
BRANCH   1  16
ATOM     16  N   UNL     1      48.981   6.872  14.622  0.00  0.00    +0.000 N 
ATOM     17  C   UNL     1      49.134   7.096  15.964  0.00  0.00    +0.000 C 
ATOM     18  O   UNL     1      48.478   7.943  16.566  0.00  0.00    +0.000 OA
ATOM     19  H   UNL     1      49.627   6.252  14.142  0.00  0.00    +0.000 HD
BRANCH  17  20
ATOM     20  C   UNL     1      50.096   6.235  16.663  0.00  0.00    +0.000 A 
ATOM     21  C   UNL     1      49.646   5.300  17.585  0.00  0.00    +0.000 A 
ATOM     22  S   UNL     1      50.900   4.411  18.326  0.00  0.00    +0.000 S 
ATOM     23  C   UNL     1      52.090   5.278  17.474  0.00  0.00    +0.000 A 
ATOM     24  N   UNL     1      53.417   5.048  17.695  0.00  0.00    +0.000 NA
ATOM     25  C   UNL     1      54.207   5.804  17.008  0.00  0.00    +0.000 A 
ATOM     26  N   UNL     1      53.796   6.747  16.104  0.00  0.00    +0.000 N 
ATOM     27  C   UNL     1      52.475   6.968  15.801  0.00  0.00    +0.000 A 
ATOM     28  O   UNL     1      52.148   7.743  14.909  0.00  0.00    +0.000 OA
ATOM     29  C   UNL     1      51.538   6.192  16.594  0.00  0.00    +0.000 A 
ATOM     30  H   UNL     1      54.470   7.275  15.570  0.00  0.00    +0.000 HD
ENDBRANCH  17  20
ENDBRANCH   1  16
BRANCH   1  32
ATOM     31  C   UNL     1      50.054   7.811  12.127  0.00  0.00    +0.000 C 
ATOM     32  C   UNL     1      48.935   8.565  12.839  0.00  0.00    +0.000 C 
ENDBRANCH   1  32
TORSDOF 7
ENDMDL
MODEL 7
REMARK VINA RESULT:    -6.624      3.521      7.505
REMARK INTER + INTRA:         -10.626
REMARK INTER:                  -9.216
REMARK INTRA:                  -1.410
REMARK UNBOUND:                -1.291
REMARK  Name = 
REMARK  8 active torsions:
REMARK  status: ('A' for Active; 'I' for Inactive)
REMARK    1  A    between atoms: C_1  and  C_2
REMARK    2  A    between atoms: C_2  and  C_3
REMARK    3  A    between atoms: C_3  and  N_4
REMARK    4  A    between atoms: C_3  and  C_17
REMARK    5  A    between atoms: C_5  and  C_7
REMARK    6  A    between atoms: C_20  and  C_21
REMARK    7  A    between atoms: C_21  and  O_22
REMARK    8  A    between atoms: O_22  and  C_23
REMARK                            x       y       z     vdW  Elec       q    Type
REMARK                         _______ _______ _______ _____ _____    ______ ____
ROOT
ATOM      1  C   UNL     1      49.081   8.485  14.496  0.00  0.00    +0.000 C 
ENDROOT
BRANCH   1   2
ATOM      2  C   UNL     1      49.378   7.726  15.781  0.00  0.00    +0.000 A 
ATOM      3  C   UNL     1      50.526   6.924  15.863  0.00  0.00    +0.000 A 
ATOM      4  C   UNL     1      50.800   6.183  17.016  0.00  0.00    +0.000 A 
ATOM      5  C   UNL     1      49.921   6.215  18.104  0.00  0.00    +0.000 A 
ATOM      6  C   UNL     1      48.788   7.031  18.037  0.00  0.00    +0.000 A 
ATOM      7  C   UNL     1      48.507   7.759  16.881  0.00  0.00    +0.000 A 
BRANCH   5   8
ATOM      8  C   UNL     1      50.142   5.333  19.310  0.00  0.00    +0.000 C 
BRANCH   8   9
ATOM      9  O   UNL     1      49.149   4.307  19.377  0.00  0.00    +0.000 OA
BRANCH   9  10
ATOM     10  C   UNL     1      49.250   3.439  18.304  0.00  0.00    +0.000 A 
ATOM     11  C   UNL     1      48.134   3.294  17.512  0.00  0.00    +0.000 A 
ATOM     12  C   UNL     1      48.276   2.433  16.450  0.00  0.00    +0.000 A 
ATOM     13  N   UNL     1      49.410   1.767  16.173  0.00  0.00    +0.000 NA
ATOM     14  C   UNL     1      50.432   1.988  17.015  0.00  0.00    +0.000 A 
ATOM     15  N   UNL     1      50.413   2.795  18.080  0.00  0.00    +0.000 NA
ENDBRANCH   9  10
ENDBRANCH   8   9
ENDBRANCH   5   8
ENDBRANCH   1   2
BRANCH   1  16
ATOM     16  N   UNL     1      47.874   7.929  13.906  0.00  0.00    +0.000 N 
ATOM     17  C   UNL     1      47.876   6.874  13.033  0.00  0.00    +0.000 C 
ATOM     18  O   UNL     1      48.904   6.267  12.739  0.00  0.00    +0.000 OA
ATOM     19  H   UNL     1      47.028   8.477  14.025  0.00  0.00    +0.000 HD
BRANCH  17  20
ATOM     20  C   UNL     1      46.571   6.469  12.497  0.00  0.00    +0.000 A 
ATOM     21  C   UNL     1      45.732   7.417  11.928  0.00  0.00    +0.000 A 
ATOM     22  S   UNL     1      44.245   6.780  11.389  0.00  0.00    +0.000 S 
ATOM     23  C   UNL     1      44.651   5.222  11.939  0.00  0.00    +0.000 A 
ATOM     24  N   UNL     1      43.765   4.190  11.839  0.00  0.00    +0.000 NA
ATOM     25  C   UNL     1      44.192   3.076  12.331  0.00  0.00    +0.000 A 
ATOM     26  N   UNL     1      45.429   2.891  12.889  0.00  0.00    +0.000 N 
ATOM     27  C   UNL     1      46.377   3.882  12.953  0.00  0.00    +0.000 A 
ATOM     28  O   UNL     1      47.511   3.653  13.359  0.00  0.00    +0.000 OA
ATOM     29  C   UNL     1      45.927   5.177  12.475  0.00  0.00    +0.000 A 
ATOM     30  H   UNL     1      45.714   1.980  13.218  0.00  0.00    +0.000 HD
ENDBRANCH  17  20
ENDBRANCH   1  16
BRANCH   1  32
ATOM     31  C   UNL     1      50.231  10.681  15.115  0.00  0.00    +0.000 C 
ATOM     32  C   UNL     1      48.933  10.009  14.679  0.00  0.00    +0.000 C 
ENDBRANCH   1  32
TORSDOF 7
ENDMDL
MODEL 8
REMARK VINA RESULT:    -6.335      3.614      8.364
REMARK INTER + INTRA:         -10.218
REMARK INTER:                  -9.248
REMARK INTRA:                  -0.970
REMARK UNBOUND:                -1.291
REMARK  Name = 
REMARK  8 active torsions:
REMARK  status: ('A' for Active; 'I' for Inactive)
REMARK    1  A    between atoms: C_1  and  C_2
REMARK    2  A    between atoms: C_2  and  C_3
REMARK    3  A    between atoms: C_3  and  N_4
REMARK    4  A    between atoms: C_3  and  C_17
REMARK    5  A    between atoms: C_5  and  C_7
REMARK    6  A    between atoms: C_20  and  C_21
REMARK    7  A    between atoms: C_21  and  O_22
REMARK    8  A    between atoms: O_22  and  C_23
REMARK                            x       y       z     vdW  Elec       q    Type
REMARK                         _______ _______ _______ _____ _____    ______ ____
ROOT
ATOM      1  C   UNL     1      48.817   8.033  15.475  0.00  0.00    +0.000 C 
ENDROOT
BRANCH   1   2
ATOM      2  C   UNL     1      49.474   6.845  16.161  0.00  0.00    +0.000 A 
ATOM      3  C   UNL     1      48.674   5.829  16.705  0.00  0.00    +0.000 A 
ATOM      4  C   UNL     1      49.249   4.747  17.379  0.00  0.00    +0.000 A 
ATOM      5  C   UNL     1      50.637   4.670  17.536  0.00  0.00    +0.000 A 
ATOM      6  C   UNL     1      51.441   5.665  16.975  0.00  0.00    +0.000 A 
ATOM      7  C   UNL     1      50.865   6.752  16.316  0.00  0.00    +0.000 A 
BRANCH   5   8
ATOM      8  C   UNL     1      51.266   3.570  18.359  0.00  0.00    +0.000 C 
BRANCH   8   9
ATOM      9  O   UNL     1      51.738   2.515  17.518  0.00  0.00    +0.000 OA
BRANCH   9  10
ATOM     10  C   UNL     1      52.782   1.828  18.112  0.00  0.00    +0.000 A 
ATOM     11  C   UNL     1      53.000   0.537  17.688  0.00  0.00    +0.000 A 
ATOM     12  C   UNL     1      54.053  -0.109  18.291  0.00  0.00    +0.000 A 
ATOM     13  N   UNL     1      54.836   0.451  19.230  0.00  0.00    +0.000 NA
ATOM     14  C   UNL     1      54.527   1.715  19.563  0.00  0.00    +0.000 A 
ATOM     15  N   UNL     1      53.530   2.441  19.051  0.00  0.00    +0.000 NA
ENDBRANCH   9  10
ENDBRANCH   8   9
ENDBRANCH   5   8
ENDBRANCH   1   2
BRANCH   1  16
ATOM     16  N   UNL     1      47.713   7.541  14.667  0.00  0.00    +0.000 N 
ATOM     17  C   UNL     1      47.882   6.851  13.496  0.00  0.00    +0.000 C 
ATOM     18  O   UNL     1      48.992   6.532  13.077  0.00  0.00    +0.000 OA
ATOM     19  H   UNL     1      46.792   7.891  14.913  0.00  0.00    +0.000 HD
BRANCH  17  20
ATOM     20  C   UNL     1      46.657   6.468  12.784  0.00  0.00    +0.000 A 
ATOM     21  C   UNL     1      45.889   7.438  12.155  0.00  0.00    +0.000 A 
ATOM     22  S   UNL     1      44.485   6.821  11.407  0.00  0.00    +0.000 S 
ATOM     23  C   UNL     1      44.831   5.242  11.937  0.00  0.00    +0.000 A 
ATOM     24  N   UNL     1      43.972   4.213  11.683  0.00  0.00    +0.000 NA
ATOM     25  C   UNL     1      44.342   3.080  12.177  0.00  0.00    +0.000 A 
ATOM     26  N   UNL     1      45.501   2.873  12.878  0.00  0.00    +0.000 N 
ATOM     27  C   UNL     1      46.426   3.863  13.102  0.00  0.00    +0.000 A 
ATOM     28  O   UNL     1      47.502   3.618  13.637  0.00  0.00    +0.000 OA
ATOM     29  C   UNL     1      46.030   5.176  12.626  0.00  0.00    +0.000 A 
ATOM     30  H   UNL     1      45.749   1.950  13.201  0.00  0.00    +0.000 HD
ENDBRANCH  17  20
ENDBRANCH   1  16
BRANCH   1  32
ATOM     31  C   UNL     1      49.106  10.433  16.303  0.00  0.00    +0.000 C 
ATOM     32  C   UNL     1      48.325   9.131  16.441  0.00  0.00    +0.000 C 
ENDBRANCH   1  32
TORSDOF 7
ENDMDL
MODEL 9
REMARK VINA RESULT:    -6.257      4.840      7.304
REMARK INTER + INTRA:         -10.109
REMARK INTER:                  -8.856
REMARK INTRA:                  -1.253
REMARK UNBOUND:                -1.291
REMARK  Name = 
REMARK  8 active torsions:
REMARK  status: ('A' for Active; 'I' for Inactive)
REMARK    1  A    between atoms: C_1  and  C_2
REMARK    2  A    between atoms: C_2  and  C_3
REMARK    3  A    between atoms: C_3  and  N_4
REMARK    4  A    between atoms: C_3  and  C_17
REMARK    5  A    between atoms: C_5  and  C_7
REMARK    6  A    between atoms: C_20  and  C_21
REMARK    7  A    between atoms: C_21  and  O_22
REMARK    8  A    between atoms: O_22  and  C_23
REMARK                            x       y       z     vdW  Elec       q    Type
REMARK                         _______ _______ _______ _____ _____    ______ ____
ROOT
ATOM      1  C   UNL     1      51.005   9.007  12.024  0.00  0.00    +0.000 C 
ENDROOT
BRANCH   1   2
ATOM      2  C   UNL     1      49.828   8.134  12.432  0.00  0.00    +0.000 A 
ATOM      3  C   UNL     1      49.752   7.643  13.745  0.00  0.00    +0.000 A 
ATOM      4  C   UNL     1      48.705   6.804  14.136  0.00  0.00    +0.000 A 
ATOM      5  C   UNL     1      47.722   6.424  13.215  0.00  0.00    +0.000 A 
ATOM      6  C   UNL     1      47.779   6.929  11.913  0.00  0.00    +0.000 A 
ATOM      7  C   UNL     1      48.832   7.754  11.520  0.00  0.00    +0.000 A 
BRANCH   5   8
ATOM      8  C   UNL     1      46.649   5.428  13.590  0.00  0.00    +0.000 C 
BRANCH   8   9
ATOM      9  O   UNL     1      45.354   5.923  13.242  0.00  0.00    +0.000 OA
BRANCH   9  10
ATOM     10  C   UNL     1      44.637   4.988  12.518  0.00  0.00    +0.000 A 
ATOM     11  C   UNL     1      44.416   5.264  11.188  0.00  0.00    +0.000 A 
ATOM     12  C   UNL     1      43.711   4.306  10.498  0.00  0.00    +0.000 A 
ATOM     13  N   UNL     1      43.257   3.168  11.051  0.00  0.00    +0.000 NA
ATOM     14  C   UNL     1      43.532   3.008  12.355  0.00  0.00    +0.000 A 
ATOM     15  N   UNL     1      44.203   3.867  13.129  0.00  0.00    +0.000 NA
ENDBRANCH   9  10
ENDBRANCH   8   9
ENDBRANCH   5   8
ENDBRANCH   1   2
BRANCH   1  16
ATOM     16  N   UNL     1      51.413   8.625  10.681  0.00  0.00    +0.000 N 
ATOM     17  C   UNL     1      52.719   8.571  10.273  0.00  0.00    +0.000 C 
ATOM     18  O   UNL     1      53.654   8.774  11.043  0.00  0.00    +0.000 OA
ATOM     19  H   UNL     1      50.670   8.573   9.990  0.00  0.00    +0.000 HD
BRANCH  17  20
ATOM     20  C   UNL     1      52.949   8.210   8.870  0.00  0.00    +0.000 A 
ATOM     21  C   UNL     1      52.786   9.162   7.873  0.00  0.00    +0.000 A 
ATOM     22  S   UNL     1      53.061   8.562   6.301  0.00  0.00    +0.000 S 
ATOM     23  C   UNL     1      53.361   6.996   6.893  0.00  0.00    +0.000 A 
ATOM     24  N   UNL     1      53.606   5.959   6.040  0.00  0.00    +0.000 NA
ATOM     25  C   UNL     1      53.779   4.822   6.625  0.00  0.00    +0.000 A 
ATOM     26  N   UNL     1      53.754   4.628   7.981  0.00  0.00    +0.000 N 
ATOM     27  C   UNL     1      53.575   5.651   8.880  0.00  0.00    +0.000 A 
ATOM     28  O   UNL     1      53.668   5.460  10.088  0.00  0.00    +0.000 OA
ATOM     29  C   UNL     1      53.309   6.944   8.275  0.00  0.00    +0.000 A 
ATOM     30  H   UNL     1      53.938   3.717   8.374  0.00  0.00    +0.000 HD
ENDBRANCH  17  20
ENDBRANCH   1  16
BRANCH   1  32
ATOM     31  C   UNL     1      50.104  11.060  10.799  0.00  0.00    +0.000 C 
ATOM     32  C   UNL     1      50.722  10.522  12.085  0.00  0.00    +0.000 C 
ENDBRANCH   1  32
TORSDOF 7
ENDMDL
