MODEL 1
REMARK VINA RESULT:    -8.866      0.000      0.000
REMARK INTER + INTRA:         -14.099
REMARK INTER:                 -13.013
REMARK INTRA:                  -1.087
REMARK UNBOUND:                -1.087
REMARK  Name = 
REMARK  11 active torsions:
REMARK  status: ('A' for Active; 'I' for Inactive)
REMARK    1  A    between atoms: C_1  and  C_2
REMARK    2  A    between atoms: C_2  and  C_3
REMARK    3  A    between atoms: C_5  and  O_6
REMARK    4  A    between atoms: O_6  and  C_7
REMARK    5  A    between atoms: C_9  and  O_10
REMARK    6  A    between atoms: O_10  and  C_11
REMARK    7  A    between atoms: C_11  and  C_12
REMARK    8  A    between atoms: C_12  and  C_15
REMARK    9  A    between atoms: C_18  and  C_19
REMARK   10  A    between atoms: C_25  and  S_26
REMARK   11  A    between atoms: S_26  and  C_27
REMARK                            x       y       z     vdW  Elec       q    Type
REMARK                         _______ _______ _______ _____ _____    ______ ____
ROOT
ATOM      1  C   UNL     1      47.885   6.838  13.964  0.00  0.00    +0.000 A 
ATOM      2  C   UNL     1      46.864   6.600  13.037  0.00  0.00    +0.000 A 
ATOM      3  C   UNL     1      46.062   5.460  13.140  0.00  0.00    +0.000 A 
ATOM      4  C   UNL     1      46.300   4.547  14.168  0.00  0.00    +0.000 A 
ATOM      5  C   UNL     1      47.349   4.774  15.062  0.00  0.00    +0.000 A 
ATOM      6  C   UNL     1      48.135   5.923  14.979  0.00  0.00    +0.000 A 
ENDROOT
BRANCH   5   7
ATOM      7  S   UNL     1      47.727   3.571  16.308  0.00  0.00    +0.000 S 
ATOM      8  C   UNL     1      48.794   4.476  17.397  0.00  0.00    +0.000 C 
ATOM      9  O   UNL     1      46.497   3.275  17.015  0.00  0.00    +0.000 OA
ATOM     10  O   UNL     1      48.501   2.513  15.685  0.00  0.00    +0.000 OA
ENDBRANCH   5   7
BRANCH   1  11
ATOM     11  O   UNL     1      48.619   7.981  13.768  0.00  0.00    +0.000 OA
BRANCH  11  16
ATOM     12  C   UNL     1      52.253   8.163  11.140  0.00  0.00    +0.000 C 
ATOM     13  C   UNL     1      51.011   8.964  11.534  0.00  0.00    +0.000 C 
ATOM     14  C   UNL     1      50.938  10.292  10.790  0.00  0.00    +0.000 C 
ATOM     15  C   UNL     1      50.806   9.090  13.066  0.00  0.00    +0.000 C 
ATOM     16  C   UNL     1      49.841   7.877  13.004  0.00  0.00    +0.000 C 
ATOM     17  C   UNL     1      49.689   8.153  11.490  0.00  0.00    +0.000 C 
ENDBRANCH  11  16
ENDBRANCH   1  11
BRANCH   3  18
ATOM     18  O   UNL     1      45.031   5.125  12.302  0.00  0.00    +0.000 OA
BRANCH  18  19
ATOM     19  C   UNL     1      44.788   3.720  12.128  0.00  0.00    +0.000 C 
BRANCH  19  20
ATOM     20  C   UNL     1      43.955   3.452  10.865  0.00  0.00    +0.000 C 
ATOM     21  F   UNL     1      43.126   2.389  11.090  0.00  0.00    +0.000 F 
ATOM     22  F   UNL     1      43.124   4.520  10.655  0.00  0.00    +0.000 F 
BRANCH  20  23
ATOM     23  C   UNL     1      44.868   3.206   9.664  0.00  0.00    +0.000 A 
ATOM     24  C   UNL     1      45.304   4.288   8.899  0.00  0.00    +0.000 A 
ATOM     25  C   UNL     1      46.142   4.060   7.805  0.00  0.00    +0.000 A 
ATOM     26  C   UNL     1      46.516   2.754   7.489  0.00  0.00    +0.000 A 
ATOM     27  C   UNL     1      46.043   1.730   8.295  0.00  0.00    +0.000 A 
ATOM     28  N   UNL     1      45.225   1.925   9.360  0.00  0.00    +0.000 NA
BRANCH  26  29
ATOM     29  C   UNL     1      47.410   2.414   6.364  0.00  0.00    +0.000 C 
ATOM     30  N   UNL     1      47.208   3.066   5.180  0.00  0.00    +0.000 N 
ATOM     31  O   UNL     1      48.279   1.560   6.477  0.00  0.00    +0.000 OA
ATOM     32  H   UNL     1      46.372   3.596   4.978  0.00  0.00    +0.000 HD
ATOM     33  H   UNL     1      47.767   2.757   4.394  0.00  0.00    +0.000 HD
ENDBRANCH  26  29
ENDBRANCH  20  23
ENDBRANCH  19  20
ENDBRANCH  18  19
ENDBRANCH   3  18
TORSDOF 8
ENDMDL
MODEL 2
REMARK VINA RESULT:    -8.202      2.221      4.652
REMARK INTER + INTRA:         -13.125
REMARK INTER:                 -11.980
REMARK INTRA:                  -1.145
REMARK UNBOUND:                -1.087
REMARK  Name = 
REMARK  11 active torsions:
REMARK  status: ('A' for Active; 'I' for Inactive)
REMARK    1  A    between atoms: C_1  and  C_2
REMARK    2  A    between atoms: C_2  and  C_3
REMARK    3  A    between atoms: C_5  and  O_6
REMARK    4  A    between atoms: O_6  and  C_7
REMARK    5  A    between atoms: C_9  and  O_10
REMARK    6  A    between atoms: O_10  and  C_11
REMARK    7  A    between atoms: C_11  and  C_12
REMARK    8  A    between atoms: C_12  and  C_15
REMARK    9  A    between atoms: C_18  and  C_19
REMARK   10  A    between atoms: C_25  and  S_26
REMARK   11  A    between atoms: S_26  and  C_27
REMARK                            x       y       z     vdW  Elec       q    Type
REMARK                         _______ _______ _______ _____ _____    ______ ____
ROOT
ATOM      1  C   UNL     1      47.714   5.431  14.752  0.00  0.00    +0.000 A 
ATOM      2  C   UNL     1      46.564   4.855  14.203  0.00  0.00    +0.000 A 
ATOM      3  C   UNL     1      45.924   5.447  13.111  0.00  0.00    +0.000 A 
ATOM      4  C   UNL     1      46.432   6.633  12.581  0.00  0.00    +0.000 A 
ATOM      5  C   UNL     1      47.556   7.223  13.165  0.00  0.00    +0.000 A 
ATOM      6  C   UNL     1      48.213   6.622  14.238  0.00  0.00    +0.000 A 
ENDROOT
BRANCH   5   7
ATOM      7  S   UNL     1      48.149   8.783  12.567  0.00  0.00    +0.000 S 
ATOM      8  C   UNL     1      46.646   9.618  12.131  0.00  0.00    +0.000 C 
ATOM      9  O   UNL     1      48.750   9.479  13.687  0.00  0.00    +0.000 OA
ATOM     10  O   UNL     1      48.903   8.535  11.352  0.00  0.00    +0.000 OA
ENDBRANCH   5   7
BRANCH   1  11
ATOM     11  O   UNL     1      48.260   4.776  15.828  0.00  0.00    +0.000 OA
BRANCH  11  16
ATOM     12  C   UNL     1      48.935   6.626  19.861  0.00  0.00    +0.000 C 
ATOM     13  C   UNL     1      48.728   5.274  19.176  0.00  0.00    +0.000 C 
ATOM     14  C   UNL     1      48.739   4.127  20.180  0.00  0.00    +0.000 C 
ATOM     15  C   UNL     1      49.649   5.046  17.949  0.00  0.00    +0.000 C 
ATOM     16  C   UNL     1      48.498   5.536  17.033  0.00  0.00    +0.000 C 
ATOM     17  C   UNL     1      47.525   5.233  18.197  0.00  0.00    +0.000 C 
ENDBRANCH  11  16
ENDBRANCH   1  11
BRANCH   3  18
ATOM     18  O   UNL     1      44.802   4.973  12.484  0.00  0.00    +0.000 OA
BRANCH  18  19
ATOM     19  C   UNL     1      44.756   3.556  12.254  0.00  0.00    +0.000 C 
BRANCH  19  20
ATOM     20  C   UNL     1      43.916   3.219  11.013  0.00  0.00    +0.000 C 
ATOM     21  F   UNL     1      43.178   2.095  11.259  0.00  0.00    +0.000 F 
ATOM     22  F   UNL     1      42.999   4.219  10.822  0.00  0.00    +0.000 F 
BRANCH  20  23
ATOM     23  C   UNL     1      44.816   3.042   9.790  0.00  0.00    +0.000 A 
ATOM     24  C   UNL     1      45.188   4.160   9.042  0.00  0.00    +0.000 A 
ATOM     25  C   UNL     1      46.014   3.994   7.928  0.00  0.00    +0.000 A 
ATOM     26  C   UNL     1      46.441   2.714   7.575  0.00  0.00    +0.000 A 
ATOM     27  C   UNL     1      46.030   1.652   8.366  0.00  0.00    +0.000 A 
ATOM     28  N   UNL     1      45.225   1.786   9.450  0.00  0.00    +0.000 NA
BRANCH  26  29
ATOM     29  C   UNL     1      47.328   2.440   6.427  0.00  0.00    +0.000 C 
ATOM     30  N   UNL     1      47.234   3.272   5.347  0.00  0.00    +0.000 N 
ATOM     31  O   UNL     1      48.096   1.487   6.429  0.00  0.00    +0.000 OA
ATOM     32  H   UNL     1      46.467   3.914   5.210  0.00  0.00    +0.000 HD
ATOM     33  H   UNL     1      47.781   3.017   4.533  0.00  0.00    +0.000 HD
ENDBRANCH  26  29
ENDBRANCH  20  23
ENDBRANCH  19  20
ENDBRANCH  18  19
ENDBRANCH   3  18
TORSDOF 8
ENDMDL
MODEL 3
REMARK VINA RESULT:    -8.000      1.774      2.408
REMARK INTER + INTRA:         -12.829
REMARK INTER:                 -12.296
REMARK INTRA:                  -0.532
REMARK UNBOUND:                -1.087
REMARK  Name = 
REMARK  11 active torsions:
REMARK  status: ('A' for Active; 'I' for Inactive)
REMARK    1  A    between atoms: C_1  and  C_2
REMARK    2  A    between atoms: C_2  and  C_3
REMARK    3  A    between atoms: C_5  and  O_6
REMARK    4  A    between atoms: O_6  and  C_7
REMARK    5  A    between atoms: C_9  and  O_10
REMARK    6  A    between atoms: O_10  and  C_11
REMARK    7  A    between atoms: C_11  and  C_12
REMARK    8  A    between atoms: C_12  and  C_15
REMARK    9  A    between atoms: C_18  and  C_19
REMARK   10  A    between atoms: C_25  and  S_26
REMARK   11  A    between atoms: S_26  and  C_27
REMARK                            x       y       z     vdW  Elec       q    Type
REMARK                         _______ _______ _______ _____ _____    ______ ____
ROOT
ATOM      1  C   UNL     1      47.840   6.899  14.143  0.00  0.00    +0.000 A 
ATOM      2  C   UNL     1      47.123   6.538  12.998  0.00  0.00    +0.000 A 
ATOM      3  C   UNL     1      46.544   5.270  12.891  0.00  0.00    +0.000 A 
ATOM      4  C   UNL     1      46.705   4.356  13.933  0.00  0.00    +0.000 A 
ATOM      5  C   UNL     1      47.459   4.713  15.053  0.00  0.00    +0.000 A 
ATOM      6  C   UNL     1      48.015   5.986  15.175  0.00  0.00    +0.000 A 
ENDROOT
BRANCH   5   7
ATOM      7  S   UNL     1      47.756   3.526  16.336  0.00  0.00    +0.000 S 
ATOM      8  C   UNL     1      48.837   4.412  17.428  0.00  0.00    +0.000 C 
ATOM      9  O   UNL     1      46.499   3.300  17.021  0.00  0.00    +0.000 OA
ATOM     10  O   UNL     1      48.498   2.422  15.756  0.00  0.00    +0.000 OA
ENDBRANCH   5   7
BRANCH   1  11
ATOM     11  O   UNL     1      48.375   8.164  14.143  0.00  0.00    +0.000 OA
BRANCH  11  16
ATOM     12  C   UNL     1      50.365   9.900  17.771  0.00  0.00    +0.000 C 
ATOM     13  C   UNL     1      49.157  10.092  16.854  0.00  0.00    +0.000 C 
ATOM     14  C   UNL     1      48.309  11.285  17.280  0.00  0.00    +0.000 C 
ATOM     15  C   UNL     1      48.341   8.795  16.613  0.00  0.00    +0.000 C 
ATOM     16  C   UNL     1      49.136   8.576  15.300  0.00  0.00    +0.000 C 
ATOM     17  C   UNL     1      49.497  10.079  15.340  0.00  0.00    +0.000 C 
ENDBRANCH  11  16
ENDBRANCH   1  11
BRANCH   3  18
ATOM     18  O   UNL     1      45.815   4.807  11.828  0.00  0.00    +0.000 OA
BRANCH  18  19
ATOM     19  C   UNL     1      44.669   4.003  12.150  0.00  0.00    +0.000 C 
BRANCH  19  20
ATOM     20  C   UNL     1      43.844   3.682  10.894  0.00  0.00    +0.000 C 
ATOM     21  F   UNL     1      42.997   2.644  11.164  0.00  0.00    +0.000 F 
ATOM     22  F   UNL     1      43.031   4.750  10.620  0.00  0.00    +0.000 F 
BRANCH  20  23
ATOM     23  C   UNL     1      44.765   3.361   9.716  0.00  0.00    +0.000 A 
ATOM     24  C   UNL     1      45.226   4.396   8.902  0.00  0.00    +0.000 A 
ATOM     25  C   UNL     1      46.071   4.100   7.830  0.00  0.00    +0.000 A 
ATOM     26  C   UNL     1      46.428   2.773   7.585  0.00  0.00    +0.000 A 
ATOM     27  C   UNL     1      45.930   1.800   8.437  0.00  0.00    +0.000 A 
ATOM     28  N   UNL     1      45.105   2.061   9.482  0.00  0.00    +0.000 NA
BRANCH  26  29
ATOM     29  C   UNL     1      47.328   2.363   6.488  0.00  0.00    +0.000 C 
ATOM     30  N   UNL     1      47.256   3.066   5.320  0.00  0.00    +0.000 N 
ATOM     31  O   UNL     1      48.087   1.411   6.611  0.00  0.00    +0.000 OA
ATOM     32  H   UNL     1      46.497   3.695   5.099  0.00  0.00    +0.000 HD
ATOM     33  H   UNL     1      47.812   2.716   4.548  0.00  0.00    +0.000 HD
ENDBRANCH  26  29
ENDBRANCH  20  23
ENDBRANCH  19  20
ENDBRANCH  18  19
ENDBRANCH   3  18
TORSDOF 8
ENDMDL
MODEL 4
REMARK VINA RESULT:    -7.855      2.877      4.250
REMARK INTER + INTRA:         -12.616
REMARK INTER:                 -11.768
REMARK INTRA:                  -0.848
REMARK UNBOUND:                -1.087
REMARK  Name = 
REMARK  11 active torsions:
REMARK  status: ('A' for Active; 'I' for Inactive)
REMARK    1  A    between atoms: C_1  and  C_2
REMARK    2  A    between atoms: C_2  and  C_3
REMARK    3  A    between atoms: C_5  and  O_6
REMARK    4  A    between atoms: O_6  and  C_7
REMARK    5  A    between atoms: C_9  and  O_10
REMARK    6  A    between atoms: O_10  and  C_11
REMARK    7  A    between atoms: C_11  and  C_12
REMARK    8  A    between atoms: C_12  and  C_15
REMARK    9  A    between atoms: C_18  and  C_19
REMARK   10  A    between atoms: C_25  and  S_26
REMARK   11  A    between atoms: S_26  and  C_27
REMARK                            x       y       z     vdW  Elec       q    Type
REMARK                         _______ _______ _______ _____ _____    ______ ____
ROOT
ATOM      1  C   UNL     1      46.895   8.782  12.915  0.00  0.00    +0.000 A 
ATOM      2  C   UNL     1      46.902   7.418  12.603  0.00  0.00    +0.000 A 
ATOM      3  C   UNL     1      45.914   6.872  11.778  0.00  0.00    +0.000 A 
ATOM      4  C   UNL     1      44.906   7.698  11.281  0.00  0.00    +0.000 A 
ATOM      5  C   UNL     1      44.885   9.049  11.633  0.00  0.00    +0.000 A 
ATOM      6  C   UNL     1      45.883   9.604  12.434  0.00  0.00    +0.000 A 
ENDROOT
BRANCH   5   7
ATOM      7  S   UNL     1      43.552  10.085  11.092  0.00  0.00    +0.000 S 
ATOM      8  C   UNL     1      44.257  10.906   9.687  0.00  0.00    +0.000 C 
ATOM      9  O   UNL     1      42.487   9.219  10.628  0.00  0.00    +0.000 OA
ATOM     10  O   UNL     1      43.311  11.075  12.126  0.00  0.00    +0.000 OA
ENDBRANCH   5   7
BRANCH   1  11
ATOM     11  O   UNL     1      47.904   9.215  13.739  0.00  0.00    +0.000 OA
BRANCH  11  16
ATOM     12  C   UNL     1      51.764  10.059  11.611  0.00  0.00    +0.000 C 
ATOM     13  C   UNL     1      50.697   8.977  11.785  0.00  0.00    +0.000 C 
ATOM     14  C   UNL     1      51.025   7.727  10.977  0.00  0.00    +0.000 C 
ATOM     15  C   UNL     1      49.247   9.490  11.589  0.00  0.00    +0.000 C 
ATOM     16  C   UNL     1      49.133   9.662  13.126  0.00  0.00    +0.000 C 
ATOM     17  C   UNL     1      50.323   8.683  13.262  0.00  0.00    +0.000 C 
ENDBRANCH  11  16
ENDBRANCH   1  11
BRANCH   3  18
ATOM     18  O   UNL     1      45.822   5.560  11.397  0.00  0.00    +0.000 OA
BRANCH  18  19
ATOM     19  C   UNL     1      44.661   4.848  11.855  0.00  0.00    +0.000 C 
BRANCH  19  20
ATOM     20  C   UNL     1      43.837   4.310  10.675  0.00  0.00    +0.000 C 
ATOM     21  F   UNL     1      42.968   3.357  11.129  0.00  0.00    +0.000 F 
ATOM     22  F   UNL     1      43.046   5.322  10.198  0.00  0.00    +0.000 F 
BRANCH  20  23
ATOM     23  C   UNL     1      44.757   3.756   9.588  0.00  0.00    +0.000 A 
ATOM     24  C   UNL     1      44.972   2.380   9.504  0.00  0.00    +0.000 A 
ATOM     25  C   UNL     1      45.810   1.877   8.506  0.00  0.00    +0.000 A 
ATOM     26  C   UNL     1      46.427   2.761   7.620  0.00  0.00    +0.000 A 
ATOM     27  C   UNL     1      46.165   4.114   7.765  0.00  0.00    +0.000 A 
ATOM     28  N   UNL     1      45.359   4.628   8.729  0.00  0.00    +0.000 NA
BRANCH  26  29
ATOM     29  C   UNL     1      47.315   2.324   6.523  0.00  0.00    +0.000 C 
ATOM     30  N   UNL     1      47.194   2.965   5.323  0.00  0.00    +0.000 N 
ATOM     31  O   UNL     1      48.107   1.403   6.674  0.00  0.00    +0.000 OA
ATOM     32  H   UNL     1      46.410   3.557   5.090  0.00  0.00    +0.000 HD
ATOM     33  H   UNL     1      47.743   2.593   4.556  0.00  0.00    +0.000 HD
ENDBRANCH  26  29
ENDBRANCH  20  23
ENDBRANCH  19  20
ENDBRANCH  18  19
ENDBRANCH   3  18
TORSDOF 8
ENDMDL
MODEL 5
REMARK VINA RESULT:    -7.592      4.326      7.334
REMARK INTER + INTRA:         -12.229
REMARK INTER:                 -11.111
REMARK INTRA:                  -1.118
REMARK UNBOUND:                -1.087
REMARK  Name = 
REMARK  11 active torsions:
REMARK  status: ('A' for Active; 'I' for Inactive)
REMARK    1  A    between atoms: C_1  and  C_2
REMARK    2  A    between atoms: C_2  and  C_3
REMARK    3  A    between atoms: C_5  and  O_6
REMARK    4  A    between atoms: O_6  and  C_7
REMARK    5  A    between atoms: C_9  and  O_10
REMARK    6  A    between atoms: O_10  and  C_11
REMARK    7  A    between atoms: C_11  and  C_12
REMARK    8  A    between atoms: C_12  and  C_15
REMARK    9  A    between atoms: C_18  and  C_19
REMARK   10  A    between atoms: C_25  and  S_26
REMARK   11  A    between atoms: S_26  and  C_27
REMARK                            x       y       z     vdW  Elec       q    Type
REMARK                         _______ _______ _______ _____ _____    ______ ____
ROOT
ATOM      1  C   UNL     1      46.841   6.338  11.974  0.00  0.00    +0.000 A 
ATOM      2  C   UNL     1      47.224   5.753  13.186  0.00  0.00    +0.000 A 
ATOM      3  C   UNL     1      46.486   4.698  13.731  0.00  0.00    +0.000 A 
ATOM      4  C   UNL     1      45.348   4.244  13.064  0.00  0.00    +0.000 A 
ATOM      5  C   UNL     1      44.950   4.865  11.878  0.00  0.00    +0.000 A 
ATOM      6  C   UNL     1      45.698   5.899  11.317  0.00  0.00    +0.000 A 
ENDROOT
BRANCH   5   7
ATOM      7  S   UNL     1      43.450   4.366  11.077  0.00  0.00    +0.000 S 
ATOM      8  C   UNL     1      42.261   5.489  11.765  0.00  0.00    +0.000 C 
ATOM      9  O   UNL     1      43.591   4.660   9.665  0.00  0.00    +0.000 OA
ATOM     10  O   UNL     1      43.128   3.026  11.530  0.00  0.00    +0.000 OA
ENDBRANCH   5   7
BRANCH   1  11
ATOM     11  O   UNL     1      47.628   7.372  11.531  0.00  0.00    +0.000 OA
BRANCH  11  16
ATOM     12  C   UNL     1      51.559   8.592  13.319  0.00  0.00    +0.000 C 
ATOM     13  C   UNL     1      50.616   8.908  12.158  0.00  0.00    +0.000 C 
ATOM     14  C   UNL     1      51.171  10.011  11.265  0.00  0.00    +0.000 C 
ATOM     15  C   UNL     1      49.143   9.129  12.590  0.00  0.00    +0.000 C 
ATOM     16  C   UNL     1      48.853   7.644  12.248  0.00  0.00    +0.000 C 
ATOM     17  C   UNL     1      50.129   7.659  11.375  0.00  0.00    +0.000 C 
ENDBRANCH  11  16
ENDBRANCH   1  11
BRANCH   3  18
ATOM     18  O   UNL     1      46.767   4.042  14.900  0.00  0.00    +0.000 OA
BRANCH  18  19
ATOM     19  C   UNL     1      47.535   4.774  15.868  0.00  0.00    +0.000 C 
BRANCH  19  20
ATOM     20  C   UNL     1      47.659   3.994  17.185  0.00  0.00    +0.000 C 
ATOM     21  F   UNL     1      47.285   4.800  18.224  0.00  0.00    +0.000 F 
ATOM     22  F   UNL     1      46.747   2.972  17.175  0.00  0.00    +0.000 F 
BRANCH  20  23
ATOM     23  C   UNL     1      49.085   3.472  17.367  0.00  0.00    +0.000 A 
ATOM     24  C   UNL     1      50.014   4.242  18.067  0.00  0.00    +0.000 A 
ATOM     25  C   UNL     1      51.315   3.761  18.235  0.00  0.00    +0.000 A 
ATOM     26  C   UNL     1      51.664   2.526  17.688  0.00  0.00    +0.000 A 
ATOM     27  C   UNL     1      50.687   1.819  17.006  0.00  0.00    +0.000 A 
ATOM     28  N   UNL     1      49.419   2.266  16.825  0.00  0.00    +0.000 NA
BRANCH  26  29
ATOM     29  C   UNL     1      53.007   1.926  17.827  0.00  0.00    +0.000 C 
ATOM     30  N   UNL     1      53.080   0.658  18.328  0.00  0.00    +0.000 N 
ATOM     31  O   UNL     1      54.016   2.553  17.534  0.00  0.00    +0.000 OA
ATOM     32  H   UNL     1      52.308   0.202  18.792  0.00  0.00    +0.000 HD
ATOM     33  H   UNL     1      54.010   0.296  18.503  0.00  0.00    +0.000 HD
ENDBRANCH  26  29
ENDBRANCH  20  23
ENDBRANCH  19  20
ENDBRANCH  18  19
ENDBRANCH   3  18
TORSDOF 8
ENDMDL
MODEL 6
REMARK VINA RESULT:    -7.190      4.193      7.493
REMARK INTER + INTRA:         -11.639
REMARK INTER:                 -10.350
REMARK INTRA:                  -1.289
REMARK UNBOUND:                -1.087
REMARK  Name = 
REMARK  11 active torsions:
REMARK  status: ('A' for Active; 'I' for Inactive)
REMARK    1  A    between atoms: C_1  and  C_2
REMARK    2  A    between atoms: C_2  and  C_3
REMARK    3  A    between atoms: C_5  and  O_6
REMARK    4  A    between atoms: O_6  and  C_7
REMARK    5  A    between atoms: C_9  and  O_10
REMARK    6  A    between atoms: O_10  and  C_11
REMARK    7  A    between atoms: C_11  and  C_12
REMARK    8  A    between atoms: C_12  and  C_15
REMARK    9  A    between atoms: C_18  and  C_19
REMARK   10  A    between atoms: C_25  and  S_26
REMARK   11  A    between atoms: S_26  and  C_27
REMARK                            x       y       z     vdW  Elec       q    Type
REMARK                         _______ _______ _______ _____ _____    ______ ____
ROOT
ATOM      1  C   UNL     1      46.724   6.440  12.303  0.00  0.00    +0.000 A 
ATOM      2  C   UNL     1      47.248   5.620  13.308  0.00  0.00    +0.000 A 
ATOM      3  C   UNL     1      46.737   4.335  13.516  0.00  0.00    +0.000 A 
ATOM      4  C   UNL     1      45.683   3.882  12.723  0.00  0.00    +0.000 A 
ATOM      5  C   UNL     1      45.140   4.725  11.751  0.00  0.00    +0.000 A 
ATOM      6  C   UNL     1      45.664   5.997  11.522  0.00  0.00    +0.000 A 
ENDROOT
BRANCH   5   7
ATOM      7  S   UNL     1      43.734   4.199  10.808  0.00  0.00    +0.000 S 
ATOM      8  C   UNL     1      44.418   4.010   9.182  0.00  0.00    +0.000 C 
ATOM      9  O   UNL     1      43.346   2.891  11.295  0.00  0.00    +0.000 OA
ATOM     10  O   UNL     1      42.784   5.295  10.778  0.00  0.00    +0.000 OA
ENDBRANCH   5   7
BRANCH   1  11
ATOM     11  O   UNL     1      47.291   7.685  12.187  0.00  0.00    +0.000 OA
BRANCH  11  16
ATOM     12  C   UNL     1      51.654   8.514  12.833  0.00  0.00    +0.000 C 
ATOM     13  C   UNL     1      50.458   8.953  11.988  0.00  0.00    +0.000 C 
ATOM     14  C   UNL     1      50.838  10.049  10.999  0.00  0.00    +0.000 C 
ATOM     15  C   UNL     1      49.186   9.270  12.818  0.00  0.00    +0.000 C 
ATOM     16  C   UNL     1      48.685   7.829  12.540  0.00  0.00    +0.000 C 
ATOM     17  C   UNL     1      49.666   7.783  11.346  0.00  0.00    +0.000 C 
ENDBRANCH  11  16
ENDBRANCH   1  11
BRANCH   3  18
ATOM     18  O   UNL     1      47.172   3.441  14.459  0.00  0.00    +0.000 OA
BRANCH  18  19
ATOM     19  C   UNL     1      47.286   3.941  15.800  0.00  0.00    +0.000 C 
BRANCH  19  20
ATOM     20  C   UNL     1      48.197   3.045  16.653  0.00  0.00    +0.000 C 
ATOM     21  F   UNL     1      47.522   2.654  17.776  0.00  0.00    +0.000 F 
ATOM     22  F   UNL     1      48.445   1.890  15.960  0.00  0.00    +0.000 F 
BRANCH  20  23
ATOM     23  C   UNL     1      49.491   3.778  17.005  0.00  0.00    +0.000 A 
ATOM     24  C   UNL     1      50.548   3.070  17.578  0.00  0.00    +0.000 A 
ATOM     25  C   UNL     1      51.731   3.742  17.894  0.00  0.00    +0.000 A 
ATOM     26  C   UNL     1      51.829   5.111  17.644  0.00  0.00    +0.000 A 
ATOM     27  C   UNL     1      50.737   5.746  17.073  0.00  0.00    +0.000 A 
ATOM     28  N   UNL     1      49.577   5.117  16.761  0.00  0.00    +0.000 NA
BRANCH  26  29
ATOM     29  C   UNL     1      53.042   5.904  17.928  0.00  0.00    +0.000 C 
ATOM     30  N   UNL     1      54.250   5.315  17.683  0.00  0.00    +0.000 N 
ATOM     31  O   UNL     1      52.970   7.034  18.393  0.00  0.00    +0.000 OA
ATOM     32  H   UNL     1      54.360   4.324  17.525  0.00  0.00    +0.000 HD
ATOM     33  H   UNL     1      55.072   5.836  17.969  0.00  0.00    +0.000 HD
ENDBRANCH  26  29
ENDBRANCH  20  23
ENDBRANCH  19  20
ENDBRANCH  18  19
ENDBRANCH   3  18
TORSDOF 8
ENDMDL
MODEL 7
REMARK VINA RESULT:    -7.002      4.254      8.302
REMARK INTER + INTRA:         -11.363
REMARK INTER:                  -9.406
REMARK INTRA:                  -1.957
REMARK UNBOUND:                -1.087
REMARK  Name = 
REMARK  11 active torsions:
REMARK  status: ('A' for Active; 'I' for Inactive)
REMARK    1  A    between atoms: C_1  and  C_2
REMARK    2  A    between atoms: C_2  and  C_3
REMARK    3  A    between atoms: C_5  and  O_6
REMARK    4  A    between atoms: O_6  and  C_7
REMARK    5  A    between atoms: C_9  and  O_10
REMARK    6  A    between atoms: O_10  and  C_11
REMARK    7  A    between atoms: C_11  and  C_12
REMARK    8  A    between atoms: C_12  and  C_15
REMARK    9  A    between atoms: C_18  and  C_19
REMARK   10  A    between atoms: C_25  and  S_26
REMARK   11  A    between atoms: S_26  and  C_27
REMARK                            x       y       z     vdW  Elec       q    Type
REMARK                         _______ _______ _______ _____ _____    ______ ____
ROOT
ATOM      1  C   UNL     1      46.635   4.239  13.546  0.00  0.00    +0.000 A 
ATOM      2  C   UNL     1      47.170   5.491  13.226  0.00  0.00    +0.000 A 
ATOM      3  C   UNL     1      46.692   6.209  12.125  0.00  0.00    +0.000 A 
ATOM      4  C   UNL     1      45.685   5.655  11.334  0.00  0.00    +0.000 A 
ATOM      5  C   UNL     1      45.189   4.386  11.638  0.00  0.00    +0.000 A 
ATOM      6  C   UNL     1      45.644   3.679  12.750  0.00  0.00    +0.000 A 
ENDROOT
BRANCH   5   7
ATOM      7  S   UNL     1      43.984   3.630  10.581  0.00  0.00    +0.000 S 
ATOM      8  C   UNL     1      44.979   2.552   9.583  0.00  0.00    +0.000 C 
ATOM      9  O   UNL     1      43.123   2.814  11.414  0.00  0.00    +0.000 OA
ATOM     10  O   UNL     1      43.431   4.663   9.726  0.00  0.00    +0.000 OA
ENDBRANCH   5   7
BRANCH   1  11
ATOM     11  O   UNL     1      47.181   3.615  14.640  0.00  0.00    +0.000 OA
BRANCH  11  16
ATOM     12  C   UNL     1      47.460   5.414  18.742  0.00  0.00    +0.000 C 
ATOM     13  C   UNL     1      48.167   4.431  17.809  0.00  0.00    +0.000 C 
ATOM     14  C   UNL     1      49.397   3.816  18.466  0.00  0.00    +0.000 C 
ATOM     15  C   UNL     1      48.427   4.992  16.387  0.00  0.00    +0.000 C 
ATOM     16  C   UNL     1      47.123   4.302  15.910  0.00  0.00    +0.000 C 
ATOM     17  C   UNL     1      47.225   3.387  17.152  0.00  0.00    +0.000 C 
ENDBRANCH  11  16
ENDBRANCH   1  11
BRANCH   3  18
ATOM     18  O   UNL     1      47.129   7.442  11.719  0.00  0.00    +0.000 OA
BRANCH  18  19
ATOM     19  C   UNL     1      47.344   8.410  12.758  0.00  0.00    +0.000 C 
BRANCH  19  20
ATOM     20  C   UNL     1      48.842   8.685  12.962  0.00  0.00    +0.000 C 
ATOM     21  F   UNL     1      49.566   7.877  12.131  0.00  0.00    +0.000 F 
ATOM     22  F   UNL     1      49.112   9.963  12.550  0.00  0.00    +0.000 F 
BRANCH  20  23
ATOM     23  C   UNL     1      49.230   8.474  14.426  0.00  0.00    +0.000 A 
ATOM     24  C   UNL     1      48.334   8.834  15.433  0.00  0.00    +0.000 A 
ATOM     25  C   UNL     1      48.690   8.635  16.769  0.00  0.00    +0.000 A 
ATOM     26  C   UNL     1      49.940   8.094  17.072  0.00  0.00    +0.000 A 
ATOM     27  C   UNL     1      50.776   7.761  16.018  0.00  0.00    +0.000 A 
ATOM     28  N   UNL     1      50.455   7.948  14.713  0.00  0.00    +0.000 NA
BRANCH  26  29
ATOM     29  C   UNL     1      50.399   7.831  18.451  0.00  0.00    +0.000 C 
ATOM     30  N   UNL     1      51.463   6.990  18.610  0.00  0.00    +0.000 N 
ATOM     31  O   UNL     1      49.830   8.324  19.416  0.00  0.00    +0.000 OA
ATOM     32  H   UNL     1      51.808   6.390  17.874  0.00  0.00    +0.000 HD
ATOM     33  H   UNL     1      51.708   6.747  19.563  0.00  0.00    +0.000 HD
ENDBRANCH  26  29
ENDBRANCH  20  23
ENDBRANCH  19  20
ENDBRANCH  18  19
ENDBRANCH   3  18
TORSDOF 8
ENDMDL
MODEL 8
REMARK VINA RESULT:    -6.982      4.176      8.272
REMARK INTER + INTRA:         -11.333
REMARK INTER:                 -10.596
REMARK INTRA:                  -0.738
REMARK UNBOUND:                -1.087
REMARK  Name = 
REMARK  11 active torsions:
REMARK  status: ('A' for Active; 'I' for Inactive)
REMARK    1  A    between atoms: C_1  and  C_2
REMARK    2  A    between atoms: C_2  and  C_3
REMARK    3  A    between atoms: C_5  and  O_6
REMARK    4  A    between atoms: O_6  and  C_7
REMARK    5  A    between atoms: C_9  and  O_10
REMARK    6  A    between atoms: O_10  and  C_11
REMARK    7  A    between atoms: C_11  and  C_12
REMARK    8  A    between atoms: C_12  and  C_15
REMARK    9  A    between atoms: C_18  and  C_19
REMARK   10  A    between atoms: C_25  and  S_26
REMARK   11  A    between atoms: S_26  and  C_27
REMARK                            x       y       z     vdW  Elec       q    Type
REMARK                         _______ _______ _______ _____ _____    ______ ____
ROOT
ATOM      1  C   UNL     1      46.432   6.724  12.252  0.00  0.00    +0.000 A 
ATOM      2  C   UNL     1      46.648   5.978  13.416  0.00  0.00    +0.000 A 
ATOM      3  C   UNL     1      47.859   6.074  14.108  0.00  0.00    +0.000 A 
ATOM      4  C   UNL     1      48.863   6.909  13.616  0.00  0.00    +0.000 A 
ATOM      5  C   UNL     1      48.652   7.615  12.430  0.00  0.00    +0.000 A 
ATOM      6  C   UNL     1      47.436   7.543  11.751  0.00  0.00    +0.000 A 
ENDROOT
BRANCH   5   7
ATOM      7  S   UNL     1      49.957   8.598  11.741  0.00  0.00    +0.000 S 
ATOM      8  C   UNL     1      50.866   9.086  13.183  0.00  0.00    +0.000 C 
ATOM      9  O   UNL     1      50.793   7.719  10.949  0.00  0.00    +0.000 OA
ATOM     10  O   UNL     1      49.358   9.783  11.156  0.00  0.00    +0.000 OA
ENDBRANCH   5   7
BRANCH   1  11
ATOM     11  O   UNL     1      45.214   6.550  11.645  0.00  0.00    +0.000 OA
BRANCH  11  16
ATOM     12  C   UNL     1      44.424   2.746   9.397  0.00  0.00    +0.000 C 
ATOM     13  C   UNL     1      44.129   3.441  10.727  0.00  0.00    +0.000 C 
ATOM     14  C   UNL     1      43.280   2.568  11.643  0.00  0.00    +0.000 C 
ATOM     15  C   UNL     1      43.600   4.891  10.572  0.00  0.00    +0.000 C 
ATOM     16  C   UNL     1      45.049   5.408  10.775  0.00  0.00    +0.000 C 
ATOM     17  C   UNL     1      45.379   4.043  11.422  0.00  0.00    +0.000 C 
ENDBRANCH  11  16
ENDBRANCH   1  11
BRANCH   3  18
ATOM     18  O   UNL     1      48.182   5.404  15.258  0.00  0.00    +0.000 OA
BRANCH  18  19
ATOM     19  C   UNL     1      47.288   4.350  15.648  0.00  0.00    +0.000 C 
BRANCH  19  20
ATOM     20  C   UNL     1      47.511   3.945  17.114  0.00  0.00    +0.000 C 
ATOM     21  F   UNL     1      47.178   4.992  17.926  0.00  0.00    +0.000 F 
ATOM     22  F   UNL     1      46.627   2.947  17.430  0.00  0.00    +0.000 F 
BRANCH  20  23
ATOM     23  C   UNL     1      48.958   3.504  17.333  0.00  0.00    +0.000 A 
ATOM     24  C   UNL     1      49.827   4.330  18.046  0.00  0.00    +0.000 A 
ATOM     25  C   UNL     1      51.148   3.921  18.248  0.00  0.00    +0.000 A 
ATOM     26  C   UNL     1      51.577   2.703  17.722  0.00  0.00    +0.000 A 
ATOM     27  C   UNL     1      50.655   1.937  17.025  0.00  0.00    +0.000 A 
ATOM     28  N   UNL     1      49.369   2.313  16.811  0.00  0.00    +0.000 NA
BRANCH  26  29
ATOM     29  C   UNL     1      52.946   2.178  17.898  0.00  0.00    +0.000 C 
ATOM     30  N   UNL     1      53.076   0.898  18.355  0.00  0.00    +0.000 N 
ATOM     31  O   UNL     1      53.927   2.874  17.671  0.00  0.00    +0.000 OA
ATOM     32  H   UNL     1      52.314   0.379  18.768  0.00  0.00    +0.000 HD
ATOM     33  H   UNL     1      54.018   0.585  18.558  0.00  0.00    +0.000 HD
ENDBRANCH  26  29
ENDBRANCH  20  23
ENDBRANCH  19  20
ENDBRANCH  18  19
ENDBRANCH   3  18
TORSDOF 8
ENDMDL
MODEL 9
REMARK VINA RESULT:    -6.800      3.348      5.512
REMARK INTER + INTRA:         -11.067
REMARK INTER:                  -9.862
REMARK INTRA:                  -1.204
REMARK UNBOUND:                -1.087
REMARK  Name = 
REMARK  11 active torsions:
REMARK  status: ('A' for Active; 'I' for Inactive)
REMARK    1  A    between atoms: C_1  and  C_2
REMARK    2  A    between atoms: C_2  and  C_3
REMARK    3  A    between atoms: C_5  and  O_6
REMARK    4  A    between atoms: O_6  and  C_7
REMARK    5  A    between atoms: C_9  and  O_10
REMARK    6  A    between atoms: O_10  and  C_11
REMARK    7  A    between atoms: C_11  and  C_12
REMARK    8  A    between atoms: C_12  and  C_15
REMARK    9  A    between atoms: C_18  and  C_19
REMARK   10  A    between atoms: C_25  and  S_26
REMARK   11  A    between atoms: S_26  and  C_27
REMARK                            x       y       z     vdW  Elec       q    Type
REMARK                         _______ _______ _______ _____ _____    ______ ____
ROOT
ATOM      1  C   UNL     1      49.318   6.668  17.969  0.00  0.00    +0.000 A 
ATOM      2  C   UNL     1      49.225   7.544  16.883  0.00  0.00    +0.000 A 
ATOM      3  C   UNL     1      48.648   7.127  15.680  0.00  0.00    +0.000 A 
ATOM      4  C   UNL     1      48.182   5.817  15.564  0.00  0.00    +0.000 A 
ATOM      5  C   UNL     1      48.320   4.938  16.640  0.00  0.00    +0.000 A 
ATOM      6  C   UNL     1      48.870   5.358  17.851  0.00  0.00    +0.000 A 
ENDROOT
BRANCH   5   7
ATOM      7  S   UNL     1      47.826   3.244  16.470  0.00  0.00    +0.000 S 
ATOM      8  C   UNL     1      49.232   2.374  17.113  0.00  0.00    +0.000 C 
ATOM      9  O   UNL     1      46.706   3.025  17.362  0.00  0.00    +0.000 OA
ATOM     10  O   UNL     1      47.718   2.953  15.053  0.00  0.00    +0.000 OA
ENDBRANCH   5   7
BRANCH   1  11
ATOM     11  O   UNL     1      49.909   7.174  19.100  0.00  0.00    +0.000 OA
BRANCH  11  16
ATOM     12  C   UNL     1      54.024   5.504  19.745  0.00  0.00    +0.000 C 
ATOM     13  C   UNL     1      52.648   5.132  19.193  0.00  0.00    +0.000 C 
ATOM     14  C   UNL     1      52.615   3.697  18.679  0.00  0.00    +0.000 C 
ATOM     15  C   UNL     1      52.071   6.170  18.195  0.00  0.00    +0.000 C 
ATOM     16  C   UNL     1      51.282   6.811  19.366  0.00  0.00    +0.000 C 
ATOM     17  C   UNL     1      51.467   5.483  20.136  0.00  0.00    +0.000 C 
ENDBRANCH  11  16
ENDBRANCH   1  11
BRANCH   3  18
ATOM     18  O   UNL     1      48.493   7.893  14.555  0.00  0.00    +0.000 OA
BRANCH  18  19
ATOM     19  C   UNL     1      48.238   7.181  13.334  0.00  0.00    +0.000 C 
BRANCH  19  20
ATOM     20  C   UNL     1      46.900   7.606  12.710  0.00  0.00    +0.000 C 
ATOM     21  F   UNL     1      46.186   8.329  13.624  0.00  0.00    +0.000 F 
ATOM     22  F   UNL     1      47.154   8.474  11.681  0.00  0.00    +0.000 F 
BRANCH  20  23
ATOM     23  C   UNL     1      46.120   6.382  12.231  0.00  0.00    +0.000 A 
ATOM     24  C   UNL     1      45.995   6.138  10.863  0.00  0.00    +0.000 A 
ATOM     25  C   UNL     1      45.285   5.016  10.430  0.00  0.00    +0.000 A 
ATOM     26  C   UNL     1      44.704   4.167  11.372  0.00  0.00    +0.000 A 
ATOM     27  C   UNL     1      44.871   4.474  12.713  0.00  0.00    +0.000 A 
ATOM     28  N   UNL     1      45.552   5.560  13.159  0.00  0.00    +0.000 NA
BRANCH  26  29
ATOM     29  C   UNL     1      43.950   2.948  11.012  0.00  0.00    +0.000 C 
ATOM     30  N   UNL     1      44.401   2.221   9.948  0.00  0.00    +0.000 N 
ATOM     31  O   UNL     1      42.942   2.620  11.625  0.00  0.00    +0.000 OA
ATOM     32  H   UNL     1      45.075   2.574   9.284  0.00  0.00    +0.000 HD
ATOM     33  H   UNL     1      43.822   1.441   9.657  0.00  0.00    +0.000 HD
ENDBRANCH  26  29
ENDBRANCH  20  23
ENDBRANCH  19  20
ENDBRANCH  18  19
ENDBRANCH   3  18
TORSDOF 8
ENDMDL
