MODEL 1
REMARK VINA RESULT:    -8.612      0.000      0.000
REMARK INTER + INTRA:         -14.575
REMARK INTER:                 -13.143
REMARK INTRA:                  -1.432
REMARK UNBOUND:                -1.432
REMARK  Name = 
REMARK  10 active torsions:
REMARK  status: ('A' for Active; 'I' for Inactive)
REMARK    1  A    between atoms: C_2  and  C_23
REMARK    2  A    between atoms: N_3  and  CA_4
REMARK    3  A    between atoms: CA_4  and  C_5
REMARK    4  A    between atoms: CA_4  and  C_7
REMARK    5  A    between atoms: C_5  and  O_6
REMARK    6  A    between atoms: C_10  and  C_11
REMARK    7  A    between atoms: C_11  and  O_12
REMARK    8  A    between atoms: C_11  and  C_13
REMARK    9  A    between atoms: C_13  and  C_14
REMARK   10  A    between atoms: C_14  and  C_15
REMARK                            x       y       z     vdW  Elec       q    Type
REMARK                         _______ _______ _______ _____ _____    ______ ____
ROOT
ATOM      1  CA  UNL     1      48.058   6.699  14.030  0.00  0.00    +0.000 C 
ENDROOT
BRANCH   1   2
ATOM      2  C   UNL     1      47.051   5.975  13.149  0.00  0.00    +0.000 A 
ATOM      3  C   UNL     1      46.417   4.794  13.528  0.00  0.00    +0.000 A 
ATOM      4  N   UNL     1      45.450   4.196  12.788  0.00  0.00    +0.000 NA
ATOM      5  C   UNL     1      45.118   4.817  11.629  0.00  0.00    +0.000 A 
ATOM      6  C   UNL     1      45.801   5.945  11.200  0.00  0.00    +0.000 A 
ATOM      7  N   UNL     1      46.765   6.542  11.944  0.00  0.00    +0.000 NA
BRANCH   5   8
ATOM      8  C   UNL     1      43.938   4.265  10.867  0.00  0.00    +0.000 C 
BRANCH   8   9
ATOM      9  O   UNL     1      43.363   5.318  10.085  0.00  0.00    +0.000 OA
ATOM     10  H   UNL     1      42.696   5.736  10.665  0.00  0.00    +0.000 HD
ENDBRANCH   8   9
BRANCH   8  11
ATOM     11  C   UNL     1      44.353   3.146   9.896  0.00  0.00    +0.000 C 
BRANCH  11  12
ATOM     12  C   UNL     1      44.735   3.658   8.503  0.00  0.00    +0.000 C 
BRANCH  12  13
ATOM     13  C   UNL     1      45.836   2.833   7.885  0.00  0.00    +0.000 A 
ATOM     14  C   UNL     1      46.711   3.388   6.947  0.00  0.00    +0.000 A 
ATOM     15  C   UNL     1      47.708   2.586   6.409  0.00  0.00    +0.000 A 
ATOM     16  N   UNL     1      47.883   1.288   6.731  0.00  0.00    +0.000 NA
ATOM     17  C   UNL     1      47.020   0.768   7.630  0.00  0.00    +0.000 A 
ATOM     18  C   UNL     1      45.995   1.487   8.225  0.00  0.00    +0.000 A 
ENDBRANCH  12  13
ENDBRANCH  11  12
ENDBRANCH   8  11
ENDBRANCH   5   8
ENDBRANCH   1   2
BRANCH   1  21
ATOM     19  O   UNL     1      50.145   6.266  15.850  0.00  0.00    +0.000 OA
ATOM     20  C   UNL     1      48.993   6.206  16.266  0.00  0.00    +0.000 C 
ATOM     21  N   UNL     1      47.908   6.321  15.432  0.00  0.00    +0.000 N 
ATOM     22  H   UNL     1      46.975   6.361  15.821  0.00  0.00    +0.000 HD
BRANCH  20  23
ATOM     23  C   UNL     1      48.700   6.009  17.689  0.00  0.00    +0.000 A 
ATOM     24  C   UNL     1      48.960   4.790  18.299  0.00  0.00    +0.000 A 
ATOM     25  S   UNL     1      48.589   4.772  19.965  0.00  0.00    +0.000 S 
ATOM     26  C   UNL     1      48.108   6.405  19.933  0.00  0.00    +0.000 A 
ATOM     27  N   UNL     1      47.712   7.042  21.068  0.00  0.00    +0.000 NA
ATOM     28  C   UNL     1      47.408   8.286  20.901  0.00  0.00    +0.000 A 
ATOM     29  N   UNL     1      47.449   8.950  19.702  0.00  0.00    +0.000 N 
ATOM     30  C   UNL     1      47.833   8.342  18.529  0.00  0.00    +0.000 A 
ATOM     31  O   UNL     1      47.850   8.956  17.463  0.00  0.00    +0.000 OA
ATOM     32  C   UNL     1      48.200   6.946  18.665  0.00  0.00    +0.000 A 
ATOM     33  H   UNL     1      47.185   9.920  19.640  0.00  0.00    +0.000 HD
ENDBRANCH  20  23
ENDBRANCH   1  21
BRANCH   1  34
ATOM     34  C   UNL     1      48.069   8.240  13.873  0.00  0.00    +0.000 C 
BRANCH  34  35
ATOM     35  O   UNL     1      47.147   8.903  14.744  0.00  0.00    +0.000 OA
ATOM     36  H   UNL     1      46.650   9.552  14.210  0.00  0.00    +0.000 HD
ENDBRANCH  34  35
ENDBRANCH   1  34
TORSDOF 10
ENDMDL
MODEL 2
REMARK VINA RESULT:    -8.304      1.553      2.053
REMARK INTER + INTRA:         -14.105
REMARK INTER:                 -12.991
REMARK INTRA:                  -1.114
REMARK UNBOUND:                -1.432
REMARK  Name = 
REMARK  10 active torsions:
REMARK  status: ('A' for Active; 'I' for Inactive)
REMARK    1  A    between atoms: C_2  and  C_23
REMARK    2  A    between atoms: N_3  and  CA_4
REMARK    3  A    between atoms: CA_4  and  C_5
REMARK    4  A    between atoms: CA_4  and  C_7
REMARK    5  A    between atoms: C_5  and  O_6
REMARK    6  A    between atoms: C_10  and  C_11
REMARK    7  A    between atoms: C_11  and  O_12
REMARK    8  A    between atoms: C_11  and  C_13
REMARK    9  A    between atoms: C_13  and  C_14
REMARK   10  A    between atoms: C_14  and  C_15
REMARK                            x       y       z     vdW  Elec       q    Type
REMARK                         _______ _______ _______ _____ _____    ______ ____
ROOT
ATOM      1  CA  UNL     1      48.335   6.561  13.685  0.00  0.00    +0.000 C 
ENDROOT
BRANCH   1   2
ATOM      2  C   UNL     1      47.084   6.080  12.966  0.00  0.00    +0.000 A 
ATOM      3  C   UNL     1      46.736   6.493  11.682  0.00  0.00    +0.000 A 
ATOM      4  N   UNL     1      45.674   5.996  11.000  0.00  0.00    +0.000 NA
ATOM      5  C   UNL     1      44.944   5.051  11.643  0.00  0.00    +0.000 A 
ATOM      6  C   UNL     1      45.229   4.693  12.952  0.00  0.00    +0.000 A 
ATOM      7  N   UNL     1      46.294   5.190  13.630  0.00  0.00    +0.000 NA
BRANCH   5   8
ATOM      8  C   UNL     1      43.857   4.365  10.851  0.00  0.00    +0.000 C 
BRANCH   8   9
ATOM      9  O   UNL     1      43.238   5.329   9.992  0.00  0.00    +0.000 OA
ATOM     10  H   UNL     1      43.731   5.278   9.149  0.00  0.00    +0.000 HD
ENDBRANCH   8   9
BRANCH   8  11
ATOM     11  C   UNL     1      44.416   3.245   9.957  0.00  0.00    +0.000 C 
BRANCH  11  12
ATOM     12  C   UNL     1      44.735   3.706   8.531  0.00  0.00    +0.000 C 
BRANCH  12  13
ATOM     13  C   UNL     1      45.826   2.875   7.903  0.00  0.00    +0.000 A 
ATOM     14  C   UNL     1      46.709   3.430   6.974  0.00  0.00    +0.000 A 
ATOM     15  C   UNL     1      47.695   2.622   6.426  0.00  0.00    +0.000 A 
ATOM     16  N   UNL     1      47.853   1.317   6.733  0.00  0.00    +0.000 NA
ATOM     17  C   UNL     1      46.983   0.798   7.624  0.00  0.00    +0.000 A 
ATOM     18  C   UNL     1      45.967   1.523   8.227  0.00  0.00    +0.000 A 
ENDBRANCH  12  13
ENDBRANCH  11  12
ENDBRANCH   8  11
ENDBRANCH   5   8
ENDBRANCH   1   2
BRANCH   1  21
ATOM     19  O   UNL     1      50.053   6.258  15.878  0.00  0.00    +0.000 OA
ATOM     20  C   UNL     1      48.982   6.829  16.057  0.00  0.00    +0.000 C 
ATOM     21  N   UNL     1      48.044   6.948  15.062  0.00  0.00    +0.000 N 
ATOM     22  H   UNL     1      47.213   7.505  15.217  0.00  0.00    +0.000 HD
BRANCH  20  23
ATOM     23  C   UNL     1      48.636   7.424  17.351  0.00  0.00    +0.000 A 
ATOM     24  C   UNL     1      48.601   8.803  17.504  0.00  0.00    +0.000 A 
ATOM     25  S   UNL     1      48.139   9.301  19.070  0.00  0.00    +0.000 S 
ATOM     26  C   UNL     1      47.931   7.690  19.581  0.00  0.00    +0.000 A 
ATOM     27  N   UNL     1      47.490   7.403  20.836  0.00  0.00    +0.000 NA
ATOM     28  C   UNL     1      47.347   6.141  21.074  0.00  0.00    +0.000 A 
ATOM     29  N   UNL     1      47.619   5.139  20.180  0.00  0.00    +0.000 N 
ATOM     30  C   UNL     1      48.077   5.382  18.906  0.00  0.00    +0.000 A 
ATOM     31  O   UNL     1      48.325   4.465  18.126  0.00  0.00    +0.000 OA
ATOM     32  C   UNL     1      48.240   6.786  18.582  0.00  0.00    +0.000 A 
ATOM     33  H   UNL     1      47.498   4.172  20.437  0.00  0.00    +0.000 HD
ENDBRANCH  20  23
ENDBRANCH   1  21
BRANCH   1  34
ATOM     34  C   UNL     1      49.115   7.680  12.951  0.00  0.00    +0.000 C 
BRANCH  34  35
ATOM     35  O   UNL     1      50.533   7.482  12.966  0.00  0.00    +0.000 OA
ATOM     36  H   UNL     1      50.749   6.843  12.260  0.00  0.00    +0.000 HD
ENDBRANCH  34  35
ENDBRANCH   1  34
TORSDOF 10
ENDMDL
MODEL 3
REMARK VINA RESULT:    -8.002      2.917      4.410
REMARK INTER + INTRA:         -13.645
REMARK INTER:                 -12.403
REMARK INTRA:                  -1.242
REMARK UNBOUND:                -1.432
REMARK  Name = 
REMARK  10 active torsions:
REMARK  status: ('A' for Active; 'I' for Inactive)
REMARK    1  A    between atoms: C_2  and  C_23
REMARK    2  A    between atoms: N_3  and  CA_4
REMARK    3  A    between atoms: CA_4  and  C_5
REMARK    4  A    between atoms: CA_4  and  C_7
REMARK    5  A    between atoms: C_5  and  O_6
REMARK    6  A    between atoms: C_10  and  C_11
REMARK    7  A    between atoms: C_11  and  O_12
REMARK    8  A    between atoms: C_11  and  C_13
REMARK    9  A    between atoms: C_13  and  C_14
REMARK   10  A    between atoms: C_14  and  C_15
REMARK                            x       y       z     vdW  Elec       q    Type
REMARK                         _______ _______ _______ _____ _____    ______ ____
ROOT
ATOM      1  CA  UNL     1      47.012   5.110  14.997  0.00  0.00    +0.000 C 
ENDROOT
BRANCH   1   2
ATOM      2  C   UNL     1      46.025   4.812  13.879  0.00  0.00    +0.000 A 
ATOM      3  C   UNL     1      45.262   5.796  13.253  0.00  0.00    +0.000 A 
ATOM      4  N   UNL     1      44.451   5.550  12.194  0.00  0.00    +0.000 NA
ATOM      5  C   UNL     1      44.415   4.266  11.758  0.00  0.00    +0.000 A 
ATOM      6  C   UNL     1      45.102   3.264  12.425  0.00  0.00    +0.000 A 
ATOM      7  N   UNL     1      45.914   3.513  13.482  0.00  0.00    +0.000 NA
BRANCH   5   8
ATOM      8  C   UNL     1      43.649   3.994  10.485  0.00  0.00    +0.000 C 
BRANCH   8   9
ATOM      9  O   UNL     1      43.444   5.234   9.800  0.00  0.00    +0.000 OA
ATOM     10  H   UNL     1      42.706   5.670  10.270  0.00  0.00    +0.000 HD
ENDBRANCH   8   9
BRANCH   8  11
ATOM     11  C   UNL     1      44.426   3.067   9.535  0.00  0.00    +0.000 C 
BRANCH  11  12
ATOM     12  C   UNL     1      45.016   3.794   8.322  0.00  0.00    +0.000 C 
BRANCH  12  13
ATOM     13  C   UNL     1      46.025   2.942   7.593  0.00  0.00    +0.000 A 
ATOM     14  C   UNL     1      46.636   3.394   6.421  0.00  0.00    +0.000 A 
ATOM     15  C   UNL     1      47.558   2.571   5.789  0.00  0.00    +0.000 A 
ATOM     16  N   UNL     1      47.900   1.345   6.236  0.00  0.00    +0.000 NA
ATOM     17  C   UNL     1      47.290   0.922   7.363  0.00  0.00    +0.000 A 
ATOM     18  C   UNL     1      46.359   1.670   8.067  0.00  0.00    +0.000 A 
ENDBRANCH  12  13
ENDBRANCH  11  12
ENDBRANCH   8  11
ENDBRANCH   5   8
ENDBRANCH   1   2
BRANCH   1  21
ATOM     19  O   UNL     1      48.468   6.932  16.551  0.00  0.00    +0.000 OA
ATOM     20  C   UNL     1      48.814   6.758  15.387  0.00  0.00    +0.000 C 
ATOM     21  N   UNL     1      48.110   5.949  14.529  0.00  0.00    +0.000 N 
ATOM     22  H   UNL     1      48.476   5.755  13.606  0.00  0.00    +0.000 HD
BRANCH  20  23
ATOM     23  C   UNL     1      50.010   7.404  14.836  0.00  0.00    +0.000 A 
ATOM     24  C   UNL     1      51.208   7.380  15.537  0.00  0.00    +0.000 A 
ATOM     25  S   UNL     1      52.490   8.150  14.714  0.00  0.00    +0.000 S 
ATOM     26  C   UNL     1      51.496   8.502  13.377  0.00  0.00    +0.000 A 
ATOM     27  N   UNL     1      51.995   9.123  12.274  0.00  0.00    +0.000 NA
ATOM     28  C   UNL     1      51.136   9.295  11.326  0.00  0.00    +0.000 A 
ATOM     29  N   UNL     1      49.819   8.918  11.382  0.00  0.00    +0.000 N 
ATOM     30  C   UNL     1      49.269   8.298  12.480  0.00  0.00    +0.000 A 
ATOM     31  O   UNL     1      48.082   7.980  12.511  0.00  0.00    +0.000 OA
ATOM     32  C   UNL     1      50.198   8.066  13.569  0.00  0.00    +0.000 A 
ATOM     33  H   UNL     1      49.199   9.097  10.608  0.00  0.00    +0.000 HD
ENDBRANCH  20  23
ENDBRANCH   1  21
BRANCH   1  34
ATOM     34  C   UNL     1      47.549   3.861  15.739  0.00  0.00    +0.000 C 
BRANCH  34  35
ATOM     35  O   UNL     1      46.633   3.343  16.709  0.00  0.00    +0.000 OA
ATOM     36  H   UNL     1      46.640   3.950  17.475  0.00  0.00    +0.000 HD
ENDBRANCH  34  35
ENDBRANCH   1  34
TORSDOF 10
ENDMDL
MODEL 4
REMARK VINA RESULT:    -7.641      3.217      4.364
REMARK INTER + INTRA:         -13.094
REMARK INTER:                 -11.648
REMARK INTRA:                  -1.446
REMARK UNBOUND:                -1.432
REMARK  Name = 
REMARK  10 active torsions:
REMARK  status: ('A' for Active; 'I' for Inactive)
REMARK    1  A    between atoms: C_2  and  C_23
REMARK    2  A    between atoms: N_3  and  CA_4
REMARK    3  A    between atoms: CA_4  and  C_5
REMARK    4  A    between atoms: CA_4  and  C_7
REMARK    5  A    between atoms: C_5  and  O_6
REMARK    6  A    between atoms: C_10  and  C_11
REMARK    7  A    between atoms: C_11  and  O_12
REMARK    8  A    between atoms: C_11  and  C_13
REMARK    9  A    between atoms: C_13  and  C_14
REMARK   10  A    between atoms: C_14  and  C_15
REMARK                            x       y       z     vdW  Elec       q    Type
REMARK                         _______ _______ _______ _____ _____    ______ ____
ROOT
ATOM      1  CA  UNL     1      47.180   5.495  14.756  0.00  0.00    +0.000 C 
ENDROOT
BRANCH   1   2
ATOM      2  C   UNL     1      46.160   5.098  13.700  0.00  0.00    +0.000 A 
ATOM      3  C   UNL     1      45.347   6.017  13.042  0.00  0.00    +0.000 A 
ATOM      4  N   UNL     1      44.504   5.682  12.034  0.00  0.00    +0.000 NA
ATOM      5  C   UNL     1      44.487   4.371  11.685  0.00  0.00    +0.000 A 
ATOM      6  C   UNL     1      45.227   3.433  12.388  0.00  0.00    +0.000 A 
ATOM      7  N   UNL     1      46.071   3.773  13.394  0.00  0.00    +0.000 NA
BRANCH   5   8
ATOM      8  C   UNL     1      43.682   3.995  10.464  0.00  0.00    +0.000 C 
BRANCH   8   9
ATOM      9  O   UNL     1      43.392   5.184   9.722  0.00  0.00    +0.000 OA
ATOM     10  H   UNL     1      44.128   5.277   9.084  0.00  0.00    +0.000 HD
ENDBRANCH   8   9
BRANCH   8  11
ATOM     11  C   UNL     1      44.459   3.049   9.532  0.00  0.00    +0.000 C 
BRANCH  11  12
ATOM     12  C   UNL     1      44.952   3.728   8.250  0.00  0.00    +0.000 C 
BRANCH  12  13
ATOM     13  C   UNL     1      46.002   2.904   7.547  0.00  0.00    +0.000 A 
ATOM     14  C   UNL     1      46.351   1.634   8.013  0.00  0.00    +0.000 A 
ATOM     15  C   UNL     1      47.323   0.916   7.330  0.00  0.00    +0.000 A 
ATOM     16  N   UNL     1      47.965   1.376   6.236  0.00  0.00    +0.000 NA
ATOM     17  C   UNL     1      47.622   2.610   5.809  0.00  0.00    +0.000 A 
ATOM     18  C   UNL     1      46.663   3.403   6.421  0.00  0.00    +0.000 A 
ENDBRANCH  12  13
ENDBRANCH  11  12
ENDBRANCH   8  11
ENDBRANCH   5   8
ENDBRANCH   1   2
BRANCH   1  21
ATOM     19  O   UNL     1      47.612   8.246  14.442  0.00  0.00    +0.000 OA
ATOM     20  C   UNL     1      48.511   7.478  14.115  0.00  0.00    +0.000 C 
ATOM     21  N   UNL     1      48.357   6.114  14.155  0.00  0.00    +0.000 N 
ATOM     22  H   UNL     1      49.148   5.512  13.967  0.00  0.00    +0.000 HD
BRANCH  20  23
ATOM     23  C   UNL     1      49.815   7.971  13.660  0.00  0.00    +0.000 A 
ATOM     24  C   UNL     1      49.923   8.686  12.476  0.00  0.00    +0.000 A 
ATOM     25  S   UNL     1      51.514   9.207  12.140  0.00  0.00    +0.000 S 
ATOM     26  C   UNL     1      52.101   8.529  13.588  0.00  0.00    +0.000 A 
ATOM     27  N   UNL     1      53.407   8.661  13.946  0.00  0.00    +0.000 NA
ATOM     28  C   UNL     1      53.704   8.127  15.083  0.00  0.00    +0.000 A 
ATOM     29  N   UNL     1      52.819   7.459  15.891  0.00  0.00    +0.000 N 
ATOM     30  C   UNL     1      51.493   7.293  15.564  0.00  0.00    +0.000 A 
ATOM     31  O   UNL     1      50.722   6.679  16.299  0.00  0.00    +0.000 OA
ATOM     32  C   UNL     1      51.105   7.889  14.300  0.00  0.00    +0.000 A 
ATOM     33  H   UNL     1      53.122   7.053  16.762  0.00  0.00    +0.000 HD
ENDBRANCH  20  23
ENDBRANCH   1  21
BRANCH   1  34
ATOM     34  C   UNL     1      47.590   4.356  15.723  0.00  0.00    +0.000 C 
BRANCH  34  35
ATOM     35  O   UNL     1      48.734   4.678  16.520  0.00  0.00    +0.000 OA
ATOM     36  H   UNL     1      48.527   5.492  17.020  0.00  0.00    +0.000 HD
ENDBRANCH  34  35
ENDBRANCH   1  34
TORSDOF 10
ENDMDL
MODEL 5
REMARK VINA RESULT:    -7.540      3.457      8.386
REMARK INTER + INTRA:         -12.939
REMARK INTER:                 -11.222
REMARK INTRA:                  -1.717
REMARK UNBOUND:                -1.432
REMARK  Name = 
REMARK  10 active torsions:
REMARK  status: ('A' for Active; 'I' for Inactive)
REMARK    1  A    between atoms: C_2  and  C_23
REMARK    2  A    between atoms: N_3  and  CA_4
REMARK    3  A    between atoms: CA_4  and  C_5
REMARK    4  A    between atoms: CA_4  and  C_7
REMARK    5  A    between atoms: C_5  and  O_6
REMARK    6  A    between atoms: C_10  and  C_11
REMARK    7  A    between atoms: C_11  and  O_12
REMARK    8  A    between atoms: C_11  and  C_13
REMARK    9  A    between atoms: C_13  and  C_14
REMARK   10  A    between atoms: C_14  and  C_15
REMARK                            x       y       z     vdW  Elec       q    Type
REMARK                         _______ _______ _______ _____ _____    ______ ____
ROOT
ATOM      1  CA  UNL     1      48.352   7.962  12.281  0.00  0.00    +0.000 C 
ENDROOT
BRANCH   1   2
ATOM      2  C   UNL     1      48.574   7.868  13.783  0.00  0.00    +0.000 A 
ATOM      3  C   UNL     1      48.209   8.876  14.671  0.00  0.00    +0.000 A 
ATOM      4  N   UNL     1      48.318   8.760  16.018  0.00  0.00    +0.000 NA
ATOM      5  C   UNL     1      48.814   7.582  16.475  0.00  0.00    +0.000 A 
ATOM      6  C   UNL     1      49.260   6.605  15.598  0.00  0.00    +0.000 A 
ATOM      7  N   UNL     1      49.147   6.724  14.252  0.00  0.00    +0.000 NA
BRANCH   5   8
ATOM      8  C   UNL     1      48.796   7.362  17.968  0.00  0.00    +0.000 C 
BRANCH   8   9
ATOM      9  O   UNL     1      47.501   6.883  18.346  0.00  0.00    +0.000 OA
ATOM     10  H   UNL     1      47.543   5.912  18.236  0.00  0.00    +0.000 HD
ENDBRANCH   8   9
BRANCH   8  11
ATOM     11  C   UNL     1      49.823   6.304  18.405  0.00  0.00    +0.000 C 
BRANCH  11  12
ATOM     12  C   UNL     1      49.184   5.031  18.969  0.00  0.00    +0.000 C 
BRANCH  12  13
ATOM     13  C   UNL     1      49.287   3.876  18.004  0.00  0.00    +0.000 A 
ATOM     14  C   UNL     1      48.187   3.473  17.243  0.00  0.00    +0.000 A 
ATOM     15  C   UNL     1      48.335   2.406  16.368  0.00  0.00    +0.000 A 
ATOM     16  N   UNL     1      49.487   1.720  16.210  0.00  0.00    +0.000 NA
ATOM     17  C   UNL     1      50.534   2.117  16.963  0.00  0.00    +0.000 A 
ATOM     18  C   UNL     1      50.486   3.172  17.862  0.00  0.00    +0.000 A 
ENDBRANCH  12  13
ENDBRANCH  11  12
ENDBRANCH   8  11
ENDBRANCH   5   8
ENDBRANCH   1   2
BRANCH   1  21
ATOM     19  O   UNL     1      45.591   7.912  11.803  0.00  0.00    +0.000 OA
ATOM     20  C   UNL     1      46.247   6.919  11.507  0.00  0.00    +0.000 C 
ATOM     21  N   UNL     1      47.589   6.822  11.782  0.00  0.00    +0.000 N 
ATOM     22  H   UNL     1      48.117   6.029  11.441  0.00  0.00    +0.000 HD
BRANCH  20  23
ATOM     23  C   UNL     1      45.637   5.768  10.835  0.00  0.00    +0.000 A 
ATOM     24  C   UNL     1      45.870   5.535   9.487  0.00  0.00    +0.000 A 
ATOM     25  S   UNL     1      45.105   4.126   8.900  0.00  0.00    +0.000 S 
ATOM     26  C   UNL     1      44.473   3.760  10.438  0.00  0.00    +0.000 A 
ATOM     27  N   UNL     1      43.744   2.630  10.647  0.00  0.00    +0.000 NA
ATOM     28  C   UNL     1      43.358   2.464  11.868  0.00  0.00    +0.000 A 
ATOM     29  N   UNL     1      43.620   3.330  12.898  0.00  0.00    +0.000 N 
ATOM     30  C   UNL     1      44.344   4.488  12.731  0.00  0.00    +0.000 A 
ATOM     31  O   UNL     1      44.555   5.256  13.668  0.00  0.00    +0.000 OA
ATOM     32  C   UNL     1      44.815   4.714  11.378  0.00  0.00    +0.000 A 
ATOM     33  H   UNL     1      43.276   3.146  13.827  0.00  0.00    +0.000 HD
ENDBRANCH  20  23
ENDBRANCH   1  21
BRANCH   1  34
ATOM     34  C   UNL     1      49.640   8.170  11.445  0.00  0.00    +0.000 C 
BRANCH  34  35
ATOM     35  O   UNL     1      50.710   7.302  11.832  0.00  0.00    +0.000 OA
ATOM     36  H   UNL     1      50.314   6.465  12.143  0.00  0.00    +0.000 HD
ENDBRANCH  34  35
ENDBRANCH   1  34
TORSDOF 10
ENDMDL
MODEL 6
REMARK VINA RESULT:    -7.532      2.818      3.895
REMARK INTER + INTRA:         -12.927
REMARK INTER:                 -11.941
REMARK INTRA:                  -0.986
REMARK UNBOUND:                -1.432
REMARK  Name = 
REMARK  10 active torsions:
REMARK  status: ('A' for Active; 'I' for Inactive)
REMARK    1  A    between atoms: C_2  and  C_23
REMARK    2  A    between atoms: N_3  and  CA_4
REMARK    3  A    between atoms: CA_4  and  C_5
REMARK    4  A    between atoms: CA_4  and  C_7
REMARK    5  A    between atoms: C_5  and  O_6
REMARK    6  A    between atoms: C_10  and  C_11
REMARK    7  A    between atoms: C_11  and  O_12
REMARK    8  A    between atoms: C_11  and  C_13
REMARK    9  A    between atoms: C_13  and  C_14
REMARK   10  A    between atoms: C_14  and  C_15
REMARK                            x       y       z     vdW  Elec       q    Type
REMARK                         _______ _______ _______ _____ _____    ______ ____
ROOT
ATOM      1  CA  UNL     1      47.170   5.056  15.165  0.00  0.00    +0.000 C 
ENDROOT
BRANCH   1   2
ATOM      2  C   UNL     1      46.361   4.753  13.913  0.00  0.00    +0.000 A 
ATOM      3  C   UNL     1      46.200   3.468  13.401  0.00  0.00    +0.000 A 
ATOM      4  N   UNL     1      45.404   3.180  12.342  0.00  0.00    +0.000 NA
ATOM      5  C   UNL     1      44.752   4.232  11.786  0.00  0.00    +0.000 A 
ATOM      6  C   UNL     1      44.969   5.527  12.231  0.00  0.00    +0.000 A 
ATOM      7  N   UNL     1      45.764   5.810  13.293  0.00  0.00    +0.000 NA
BRANCH   5   8
ATOM      8  C   UNL     1      43.737   3.921  10.711  0.00  0.00    +0.000 C 
BRANCH   8   9
ATOM      9  O   UNL     1      43.351   5.146  10.077  0.00  0.00    +0.000 OA
ATOM     10  H   UNL     1      43.070   4.892   9.175  0.00  0.00    +0.000 HD
ENDBRANCH   8   9
BRANCH   8  11
ATOM     11  C   UNL     1      44.317   3.003   9.622  0.00  0.00    +0.000 C 
BRANCH  11  12
ATOM     12  C   UNL     1      44.990   3.766   8.476  0.00  0.00    +0.000 C 
BRANCH  12  13
ATOM     13  C   UNL     1      45.963   2.898   7.719  0.00  0.00    +0.000 A 
ATOM     14  C   UNL     1      46.584   3.358   6.556  0.00  0.00    +0.000 A 
ATOM     15  C   UNL     1      47.473   2.521   5.897  0.00  0.00    +0.000 A 
ATOM     16  N   UNL     1      47.773   1.271   6.310  0.00  0.00    +0.000 NA
ATOM     17  C   UNL     1      47.154   0.841   7.429  0.00  0.00    +0.000 A 
ATOM     18  C   UNL     1      46.253   1.602   8.157  0.00  0.00    +0.000 A 
ENDBRANCH  12  13
ENDBRANCH  11  12
ENDBRANCH   8  11
ENDBRANCH   5   8
ENDBRANCH   1   2
BRANCH   1  21
ATOM     19  O   UNL     1      48.308   6.986  16.849  0.00  0.00    +0.000 OA
ATOM     20  C   UNL     1      48.867   6.746  15.783  0.00  0.00    +0.000 C 
ATOM     21  N   UNL     1      48.337   5.878  14.860  0.00  0.00    +0.000 N 
ATOM     22  H   UNL     1      48.870   5.632  14.036  0.00  0.00    +0.000 HD
BRANCH  20  23
ATOM     23  C   UNL     1      50.144   7.371  15.428  0.00  0.00    +0.000 A 
ATOM     24  C   UNL     1      50.172   8.536  14.675  0.00  0.00    +0.000 A 
ATOM     25  S   UNL     1      51.749   9.129  14.401  0.00  0.00    +0.000 S 
ATOM     26  C   UNL     1      52.442   7.872  15.316  0.00  0.00    +0.000 A 
ATOM     27  N   UNL     1      53.785   7.813  15.525  0.00  0.00    +0.000 NA
ATOM     28  C   UNL     1      54.166   6.825  16.264  0.00  0.00    +0.000 A 
ATOM     29  N   UNL     1      53.331   5.881  16.803  0.00  0.00    +0.000 N 
ATOM     30  C   UNL     1      51.969   5.895  16.609  0.00  0.00    +0.000 A 
ATOM     31  O   UNL     1      51.242   5.030  17.093  0.00  0.00    +0.000 OA
ATOM     32  C   UNL     1      51.487   6.996  15.797  0.00  0.00    +0.000 A 
ATOM     33  H   UNL     1      53.698   5.127  17.361  0.00  0.00    +0.000 HD
ENDBRANCH  20  23
ENDBRANCH   1  21
BRANCH   1  34
ATOM     34  C   UNL     1      47.575   3.810  15.993  0.00  0.00    +0.000 C 
BRANCH  34  35
ATOM     35  O   UNL     1      46.625   3.478  17.011  0.00  0.00    +0.000 OA
ATOM     36  H   UNL     1      46.757   2.538  17.243  0.00  0.00    +0.000 HD
ENDBRANCH  34  35
ENDBRANCH   1  34
TORSDOF 10
ENDMDL
MODEL 7
REMARK VINA RESULT:    -6.954      2.940      8.851
REMARK INTER + INTRA:         -12.045
REMARK INTER:                 -10.762
REMARK INTRA:                  -1.283
REMARK UNBOUND:                -1.432
REMARK  Name = 
REMARK  10 active torsions:
REMARK  status: ('A' for Active; 'I' for Inactive)
REMARK    1  A    between atoms: C_2  and  C_23
REMARK    2  A    between atoms: N_3  and  CA_4
REMARK    3  A    between atoms: CA_4  and  C_5
REMARK    4  A    between atoms: CA_4  and  C_7
REMARK    5  A    between atoms: C_5  and  O_6
REMARK    6  A    between atoms: C_10  and  C_11
REMARK    7  A    between atoms: C_11  and  O_12
REMARK    8  A    between atoms: C_11  and  C_13
REMARK    9  A    between atoms: C_13  and  C_14
REMARK   10  A    between atoms: C_14  and  C_15
REMARK                            x       y       z     vdW  Elec       q    Type
REMARK                         _______ _______ _______ _____ _____    ______ ____
ROOT
ATOM      1  CA  UNL     1      47.693   7.601  12.899  0.00  0.00    +0.000 C 
ENDROOT
BRANCH   1   2
ATOM      2  C   UNL     1      48.314   7.619  14.288  0.00  0.00    +0.000 A 
ATOM      3  C   UNL     1      48.202   8.701  15.158  0.00  0.00    +0.000 A 
ATOM      4  N   UNL     1      48.671   8.686  16.431  0.00  0.00    +0.000 NA
ATOM      5  C   UNL     1      49.273   7.537  16.829  0.00  0.00    +0.000 A 
ATOM      6  C   UNL     1      49.466   6.486  15.946  0.00  0.00    +0.000 A 
ATOM      7  N   UNL     1      48.992   6.503  14.675  0.00  0.00    +0.000 NA
BRANCH   5   8
ATOM      8  C   UNL     1      49.660   7.434  18.285  0.00  0.00    +0.000 C 
BRANCH   8   9
ATOM      9  O   UNL     1      48.467   7.343  19.072  0.00  0.00    +0.000 OA
ATOM     10  H   UNL     1      47.738   7.247  18.426  0.00  0.00    +0.000 HD
ENDBRANCH   8   9
BRANCH   8  11
ATOM     11  C   UNL     1      50.494   6.173  18.569  0.00  0.00    +0.000 C 
BRANCH  11  12
ATOM     12  C   UNL     1      49.667   5.005  19.117  0.00  0.00    +0.000 C 
BRANCH  12  13
ATOM     13  C   UNL     1      49.576   3.870  18.128  0.00  0.00    +0.000 A 
ATOM     14  C   UNL     1      50.701   3.112  17.797  0.00  0.00    +0.000 A 
ATOM     15  C   UNL     1      50.564   2.077  16.883  0.00  0.00    +0.000 A 
ATOM     16  N   UNL     1      49.399   1.757  16.281  0.00  0.00    +0.000 NA
ATOM     17  C   UNL     1      48.327   2.509  16.605  0.00  0.00    +0.000 A 
ATOM     18  C   UNL     1      48.362   3.560  17.508  0.00  0.00    +0.000 A 
ENDBRANCH  12  13
ENDBRANCH  11  12
ENDBRANCH   8  11
ENDBRANCH   5   8
ENDBRANCH   1   2
BRANCH   1  21
ATOM     19  O   UNL     1      45.250   7.508  11.529  0.00  0.00    +0.000 OA
ATOM     20  C   UNL     1      45.720   6.454  11.946  0.00  0.00    +0.000 C 
ATOM     21  N   UNL     1      46.868   6.415  12.699  0.00  0.00    +0.000 N 
ATOM     22  H   UNL     1      47.278   5.523  12.946  0.00  0.00    +0.000 HD
BRANCH  20  23
ATOM     23  C   UNL     1      45.085   5.164  11.662  0.00  0.00    +0.000 A 
ATOM     24  C   UNL     1      44.339   4.517  12.637  0.00  0.00    +0.000 A 
ATOM     25  S   UNL     1      43.648   3.051  12.101  0.00  0.00    +0.000 S 
ATOM     26  C   UNL     1      44.290   3.254  10.537  0.00  0.00    +0.000 A 
ATOM     27  N   UNL     1      44.029   2.356   9.549  0.00  0.00    +0.000 NA
ATOM     28  C   UNL     1      44.552   2.655   8.407  0.00  0.00    +0.000 A 
ATOM     29  N   UNL     1      45.325   3.761   8.163  0.00  0.00    +0.000 N 
ATOM     30  C   UNL     1      45.622   4.689   9.134  0.00  0.00    +0.000 A 
ATOM     31  O   UNL     1      46.328   5.667   8.894  0.00  0.00    +0.000 OA
ATOM     32  C   UNL     1      45.044   4.407  10.434  0.00  0.00    +0.000 A 
ATOM     33  H   UNL     1      45.714   3.927   7.249  0.00  0.00    +0.000 HD
ENDBRANCH  20  23
ENDBRANCH   1  21
BRANCH   1  34
ATOM     34  C   UNL     1      48.701   7.775  11.735  0.00  0.00    +0.000 C 
BRANCH  34  35
ATOM     35  O   UNL     1      49.993   7.231  12.022  0.00  0.00    +0.000 OA
ATOM     36  H   UNL     1      50.138   6.479  11.416  0.00  0.00    +0.000 HD
ENDBRANCH  34  35
ENDBRANCH   1  34
TORSDOF 10
ENDMDL
MODEL 8
REMARK VINA RESULT:    -6.788      4.395      8.827
REMARK INTER + INTRA:         -11.791
REMARK INTER:                 -10.568
REMARK INTRA:                  -1.223
REMARK UNBOUND:                -1.432
REMARK  Name = 
REMARK  10 active torsions:
REMARK  status: ('A' for Active; 'I' for Inactive)
REMARK    1  A    between atoms: C_2  and  C_23
REMARK    2  A    between atoms: N_3  and  CA_4
REMARK    3  A    between atoms: CA_4  and  C_5
REMARK    4  A    between atoms: CA_4  and  C_7
REMARK    5  A    between atoms: C_5  and  O_6
REMARK    6  A    between atoms: C_10  and  C_11
REMARK    7  A    between atoms: C_11  and  O_12
REMARK    8  A    between atoms: C_11  and  C_13
REMARK    9  A    between atoms: C_13  and  C_14
REMARK   10  A    between atoms: C_14  and  C_15
REMARK                            x       y       z     vdW  Elec       q    Type
REMARK                         _______ _______ _______ _____ _____    ______ ____
ROOT
ATOM      1  CA  UNL     1      46.651   5.100  13.413  0.00  0.00    +0.000 C 
ENDROOT
BRANCH   1   2
ATOM      2  C   UNL     1      47.297   4.923  14.778  0.00  0.00    +0.000 A 
ATOM      3  C   UNL     1      48.023   5.928  15.413  0.00  0.00    +0.000 A 
ATOM      4  N   UNL     1      48.521   5.808  16.669  0.00  0.00    +0.000 NA
ATOM      5  C   UNL     1      48.274   4.632  17.298  0.00  0.00    +0.000 A 
ATOM      6  C   UNL     1      47.627   3.593  16.645  0.00  0.00    +0.000 A 
ATOM      7  N   UNL     1      47.128   3.718  15.390  0.00  0.00    +0.000 NA
BRANCH   5   8
ATOM      8  C   UNL     1      48.675   4.531  18.750  0.00  0.00    +0.000 C 
BRANCH   8   9
ATOM      9  O   UNL     1      48.410   3.200  19.207  0.00  0.00    +0.000 OA
ATOM     10  H   UNL     1      48.839   3.138  20.084  0.00  0.00    +0.000 HD
ENDBRANCH   8   9
BRANCH   8  11
ATOM     11  C   UNL     1      50.176   4.796  18.951  0.00  0.00    +0.000 C 
BRANCH  11  12
ATOM     12  C   UNL     1      51.024   4.466  17.718  0.00  0.00    +0.000 C 
BRANCH  12  13
ATOM     13  C   UNL     1      51.784   3.175  17.888  0.00  0.00    +0.000 A 
ATOM     14  C   UNL     1      51.247   1.961  17.455  0.00  0.00    +0.000 A 
ATOM     15  C   UNL     1      51.988   0.801  17.634  0.00  0.00    +0.000 A 
ATOM     16  N   UNL     1      53.206   0.771  18.215  0.00  0.00    +0.000 NA
ATOM     17  C   UNL     1      53.702   1.953  18.637  0.00  0.00    +0.000 A 
ATOM     18  C   UNL     1      53.041   3.164  18.501  0.00  0.00    +0.000 A 
ENDBRANCH  12  13
ENDBRANCH  11  12
ENDBRANCH   8  11
ENDBRANCH   5   8
ENDBRANCH   1   2
BRANCH   1  21
ATOM     19  O   UNL     1      47.861   6.975  11.717  0.00  0.00    +0.000 OA
ATOM     20  C   UNL     1      46.826   7.298  12.293  0.00  0.00    +0.000 C 
ATOM     21  N   UNL     1      46.211   6.476  13.205  0.00  0.00    +0.000 N 
ATOM     22  H   UNL     1      45.312   6.735  13.590  0.00  0.00    +0.000 HD
BRANCH  20  23
ATOM     23  C   UNL     1      46.177   8.588  12.040  0.00  0.00    +0.000 A 
ATOM     24  C   UNL     1      46.889   9.772  12.170  0.00  0.00    +0.000 A 
ATOM     25  S   UNL     1      45.971  11.161  11.794  0.00  0.00    +0.000 S 
ATOM     26  C   UNL     1      44.605  10.222  11.405  0.00  0.00    +0.000 A 
ATOM     27  N   UNL     1      43.461  10.801  10.952  0.00  0.00    +0.000 NA
ATOM     28  C   UNL     1      42.519   9.966  10.665  0.00  0.00    +0.000 A 
ATOM     29  N   UNL     1      42.609   8.605  10.802  0.00  0.00    +0.000 N 
ATOM     30  C   UNL     1      43.742   7.977  11.266  0.00  0.00    +0.000 A 
ATOM     31  O   UNL     1      43.794   6.755  11.393  0.00  0.00    +0.000 OA
ATOM     32  C   UNL     1      44.837   8.872  11.589  0.00  0.00    +0.000 A 
ATOM     33  H   UNL     1      41.828   8.010  10.572  0.00  0.00    +0.000 HD
ENDBRANCH  20  23
ENDBRANCH   1  21
BRANCH   1  34
ATOM     34  C   UNL     1      45.506   4.103  13.102  0.00  0.00    +0.000 C 
BRANCH  34  35
ATOM     35  O   UNL     1      45.963   2.760  12.913  0.00  0.00    +0.000 OA
ATOM     36  H   UNL     1      45.806   2.523  11.979  0.00  0.00    +0.000 HD
ENDBRANCH  34  35
ENDBRANCH   1  34
TORSDOF 10
ENDMDL
MODEL 9
REMARK VINA RESULT:    -6.480      3.738      9.044
REMARK INTER + INTRA:         -11.321
REMARK INTER:                  -9.905
REMARK INTRA:                  -1.415
REMARK UNBOUND:                -1.432
REMARK  Name = 
REMARK  10 active torsions:
REMARK  status: ('A' for Active; 'I' for Inactive)
REMARK    1  A    between atoms: C_2  and  C_23
REMARK    2  A    between atoms: N_3  and  CA_4
REMARK    3  A    between atoms: CA_4  and  C_5
REMARK    4  A    between atoms: CA_4  and  C_7
REMARK    5  A    between atoms: C_5  and  O_6
REMARK    6  A    between atoms: C_10  and  C_11
REMARK    7  A    between atoms: C_11  and  O_12
REMARK    8  A    between atoms: C_11  and  C_13
REMARK    9  A    between atoms: C_13  and  C_14
REMARK   10  A    between atoms: C_14  and  C_15
REMARK                            x       y       z     vdW  Elec       q    Type
REMARK                         _______ _______ _______ _____ _____    ______ ____
ROOT
ATOM      1  CA  UNL     1      48.089   6.888  13.538  0.00  0.00    +0.000 C 
ENDROOT
BRANCH   1   2
ATOM      2  C   UNL     1      48.294   6.359  14.949  0.00  0.00    +0.000 A 
ATOM      3  C   UNL     1      47.906   5.082  15.348  0.00  0.00    +0.000 A 
ATOM      4  N   UNL     1      48.170   4.571  16.576  0.00  0.00    +0.000 NA
ATOM      5  C   UNL     1      48.850   5.383  17.424  0.00  0.00    +0.000 A 
ATOM      6  C   UNL     1      49.166   6.686  17.069  0.00  0.00    +0.000 A 
ATOM      7  N   UNL     1      48.903   7.192  15.838  0.00  0.00    +0.000 NA
BRANCH   5   8
ATOM      8  C   UNL     1      49.298   4.786  18.736  0.00  0.00    +0.000 C 
BRANCH   8   9
ATOM      9  O   UNL     1      48.874   3.420  18.787  0.00  0.00    +0.000 OA
ATOM     10  H   UNL     1      48.470   3.242  17.914  0.00  0.00    +0.000 HD
ENDBRANCH   8   9
BRANCH   8  11
ATOM     11  C   UNL     1      50.830   4.798  18.879  0.00  0.00    +0.000 C 
BRANCH  11  12
ATOM     12  C   UNL     1      51.561   4.267  17.641  0.00  0.00    +0.000 C 
BRANCH  12  13
ATOM     13  C   UNL     1      52.278   2.972  17.925  0.00  0.00    +0.000 A 
ATOM     14  C   UNL     1      51.742   1.748  17.518  0.00  0.00    +0.000 A 
ATOM     15  C   UNL     1      52.442   0.584  17.803  0.00  0.00    +0.000 A 
ATOM     16  N   UNL     1      53.619   0.559  18.463  0.00  0.00    +0.000 NA
ATOM     17  C   UNL     1      54.115   1.751  18.857  0.00  0.00    +0.000 A 
ATOM     18  C   UNL     1      53.492   2.966  18.618  0.00  0.00    +0.000 A 
ENDBRANCH  12  13
ENDBRANCH  11  12
ENDBRANCH   8  11
ENDBRANCH   5   8
ENDBRANCH   1   2
BRANCH   1  21
ATOM     19  O   UNL     1      46.060   7.689  11.778  0.00  0.00    +0.000 OA
ATOM     20  C   UNL     1      46.316   6.492  11.859  0.00  0.00    +0.000 C 
ATOM     21  N   UNL     1      47.235   6.001  12.754  0.00  0.00    +0.000 N 
ATOM     22  H   UNL     1      47.489   5.022  12.729  0.00  0.00    +0.000 HD
BRANCH  20  23
ATOM     23  C   UNL     1      45.656   5.505  10.999  0.00  0.00    +0.000 A 
ATOM     24  C   UNL     1      45.804   5.562   9.621  0.00  0.00    +0.000 A 
ATOM     25  S   UNL     1      44.993   4.305   8.798  0.00  0.00    +0.000 S 
ATOM     26  C   UNL     1      44.453   3.621  10.261  0.00  0.00    +0.000 A 
ATOM     27  N   UNL     1      43.728   2.469  10.272  0.00  0.00    +0.000 NA
ATOM     28  C   UNL     1      43.415   2.049  11.453  0.00  0.00    +0.000 A 
ATOM     29  N   UNL     1      43.747   2.680  12.624  0.00  0.00    +0.000 N 
ATOM     30  C   UNL     1      44.470   3.850  12.659  0.00  0.00    +0.000 A 
ATOM     31  O   UNL     1      44.744   4.404  13.722  0.00  0.00    +0.000 OA
ATOM     32  C   UNL     1      44.859   4.357  11.357  0.00  0.00    +0.000 A 
ATOM     33  H   UNL     1      43.458   2.303  13.512  0.00  0.00    +0.000 HD
ENDBRANCH  20  23
ENDBRANCH   1  21
BRANCH   1  34
ATOM     34  C   UNL     1      49.395   7.215  12.771  0.00  0.00    +0.000 C 
BRANCH  34  35
ATOM     35  O   UNL     1      50.300   8.033  13.520  0.00  0.00    +0.000 OA
ATOM     36  H   UNL     1      49.767   8.584  14.126  0.00  0.00    +0.000 HD
ENDBRANCH  34  35
ENDBRANCH   1  34
TORSDOF 10
ENDMDL
