MODEL 1
REMARK VINA RESULT:    -8.003      0.000      0.000
REMARK INTER + INTRA:          -9.280
REMARK INTER:                  -8.938
REMARK INTRA:                  -0.342
REMARK UNBOUND:                -0.342
REMARK  Name = 
REMARK  3 active torsions:
REMARK  status: ('A' for Active; 'I' for Inactive)
REMARK    1  A    between atoms: C_1  and  C_2
REMARK    2  A    between atoms: C_8  and  C_9
REMARK    3  A    between atoms: C_19  and  C_20
REMARK                            x       y       z     vdW  Elec       q    Type
REMARK                         _______ _______ _______ _____ _____    ______ ____
ROOT
ATOM      1  C   UNL     1      47.440   2.924  17.453  0.00  0.00    +0.000 C 
ATOM      2  C   UNL     1      47.646   4.019  16.451  0.00  0.00    +0.000 A 
ATOM      3  N   UNL     1      46.957   3.864  15.294  0.00  0.00    +0.000 NA
ATOM      4  C   UNL     1      47.024   4.810  14.343  0.00  0.00    +0.000 A 
ATOM      5  N   UNL     1      46.197   4.687  13.243  0.00  0.00    +0.000 N 
ATOM      6  C   UNL     1      46.406   5.587  12.117  0.00  0.00    +0.000 C 
ATOM      7  C   UNL     1      45.077   5.733  11.373  0.00  0.00    +0.000 C 
ATOM      8  C   UNL     1      44.488   4.374  10.932  0.00  0.00    +0.000 C 
ATOM      9  C   UNL     1      44.432   3.422  12.143  0.00  0.00    +0.000 C 
ATOM     10  C   UNL     1      45.752   3.340  12.913  0.00  0.00    +0.000 C 
ATOM     11  N   UNL     1      47.794   5.899  14.486  0.00  0.00    +0.000 NA
ATOM     12  C   UNL     1      48.486   6.028  15.641  0.00  0.00    +0.000 A 
ATOM     13  C   UNL     1      48.433   5.129  16.684  0.00  0.00    +0.000 A 
ENDROOT
BRANCH   8  14
ATOM     14  C   UNL     1      45.145   3.828   9.674  0.00  0.00    +0.000 A 
ATOM     15  C   UNL     1      45.219   2.471   9.345  0.00  0.00    +0.000 A 
ATOM     16  C   UNL     1      45.821   2.067   8.156  0.00  0.00    +0.000 A 
ATOM     17  C   UNL     1      46.327   3.036   7.310  0.00  0.00    +0.000 A 
ATOM     18  N   UNL     1      46.263   4.356   7.571  0.00  0.00    +0.000 NA
ATOM     19  C   UNL     1      45.671   4.717   8.733  0.00  0.00    +0.000 A 
ENDBRANCH   8  14
BRANCH  13  20
ATOM     20  C   UNL     1      49.182   5.346  17.938  0.00  0.00    +0.000 C 
ATOM     21  N   UNL     1      50.476   4.901  17.994  0.00  0.00    +0.000 N 
ATOM     22  O   UNL     1      48.691   5.919  18.901  0.00  0.00    +0.000 OA
ATOM     23  H   UNL     1      51.015   4.620  17.187  0.00  0.00    +0.000 HD
ATOM     24  H   UNL     1      50.992   5.145  18.831  0.00  0.00    +0.000 HD
ENDBRANCH  13  20
TORSDOF 2
ENDMDL
MODEL 2
REMARK VINA RESULT:    -6.731      2.822      7.892
REMARK INTER + INTRA:          -7.860
REMARK INTER:                  -7.646
REMARK INTRA:                  -0.215
REMARK UNBOUND:                -0.342
REMARK  Name = 
REMARK  3 active torsions:
REMARK  status: ('A' for Active; 'I' for Inactive)
REMARK    1  A    between atoms: C_1  and  C_2
REMARK    2  A    between atoms: C_8  and  C_9
REMARK    3  A    between atoms: C_19  and  C_20
REMARK                            x       y       z     vdW  Elec       q    Type
REMARK                         _______ _______ _______ _____ _____    ______ ____
ROOT
ATOM      1  C   UNL     1      45.851   7.490  11.940  0.00  0.00    +0.000 C 
ATOM      2  C   UNL     1      45.878   6.079  12.445  0.00  0.00    +0.000 A 
ATOM      3  N   UNL     1      46.593   5.900  13.584  0.00  0.00    +0.000 NA
ATOM      4  C   UNL     1      46.645   4.686  14.156  0.00  0.00    +0.000 A 
ATOM      5  N   UNL     1      47.260   4.573  15.389  0.00  0.00    +0.000 N 
ATOM      6  C   UNL     1      47.505   3.241  15.921  0.00  0.00    +0.000 C 
ATOM      7  C   UNL     1      47.553   3.340  17.447  0.00  0.00    +0.000 C 
ATOM      8  C   UNL     1      48.596   4.366  17.944  0.00  0.00    +0.000 C 
ATOM      9  C   UNL     1      48.370   5.714  17.231  0.00  0.00    +0.000 C 
ATOM     10  C   UNL     1      48.258   5.585  15.711  0.00  0.00    +0.000 C 
ATOM     11  N   UNL     1      46.040   3.621  13.609  0.00  0.00    +0.000 NA
ATOM     12  C   UNL     1      45.345   3.818  12.465  0.00  0.00    +0.000 A 
ATOM     13  C   UNL     1      45.201   5.038  11.841  0.00  0.00    +0.000 A 
ENDROOT
BRANCH   8  14
ATOM     14  C   UNL     1      50.016   3.822  17.924  0.00  0.00    +0.000 A 
ATOM     15  C   UNL     1      50.362   2.531  17.514  0.00  0.00    +0.000 A 
ATOM     16  C   UNL     1      51.697   2.130  17.507  0.00  0.00    +0.000 A 
ATOM     17  C   UNL     1      52.661   3.039  17.900  0.00  0.00    +0.000 A 
ATOM     18  N   UNL     1      52.380   4.300  18.283  0.00  0.00    +0.000 NA
ATOM     19  C   UNL     1      51.076   4.659  18.279  0.00  0.00    +0.000 A 
ENDBRANCH   8  14
BRANCH  13  20
ATOM     20  C   UNL     1      44.396   5.196  10.614  0.00  0.00    +0.000 C 
ATOM     21  N   UNL     1      45.039   5.092   9.410  0.00  0.00    +0.000 N 
ATOM     22  O   UNL     1      43.189   5.395  10.646  0.00  0.00    +0.000 OA
ATOM     23  H   UNL     1      45.972   4.720   9.295  0.00  0.00    +0.000 HD
ATOM     24  H   UNL     1      44.447   5.112   8.588  0.00  0.00    +0.000 HD
ENDBRANCH  13  20
TORSDOF 2
ENDMDL
MODEL 3
REMARK VINA RESULT:    -6.026      2.959      8.253
REMARK INTER + INTRA:          -7.073
REMARK INTER:                  -6.754
REMARK INTRA:                  -0.319
REMARK UNBOUND:                -0.342
REMARK  Name = 
REMARK  3 active torsions:
REMARK  status: ('A' for Active; 'I' for Inactive)
REMARK    1  A    between atoms: C_1  and  C_2
REMARK    2  A    between atoms: C_8  and  C_9
REMARK    3  A    between atoms: C_19  and  C_20
REMARK                            x       y       z     vdW  Elec       q    Type
REMARK                         _______ _______ _______ _____ _____    ______ ____
ROOT
ATOM      1  C   UNL     1      44.528   2.962  12.445  0.00  0.00    +0.000 C 
ATOM      2  C   UNL     1      45.389   4.177  12.612  0.00  0.00    +0.000 A 
ATOM      3  N   UNL     1      46.066   4.234  13.786  0.00  0.00    +0.000 NA
ATOM      4  C   UNL     1      46.907   5.253  14.024  0.00  0.00    +0.000 A 
ATOM      5  N   UNL     1      47.686   5.201  15.165  0.00  0.00    +0.000 N 
ATOM      6  C   UNL     1      48.445   6.386  15.538  0.00  0.00    +0.000 C 
ATOM      7  C   UNL     1      49.658   5.935  16.355  0.00  0.00    +0.000 C 
ATOM      8  C   UNL     1      49.265   5.084  17.584  0.00  0.00    +0.000 C 
ATOM      9  C   UNL     1      48.342   3.933  17.136  0.00  0.00    +0.000 C 
ATOM     10  C   UNL     1      47.173   4.396  16.265  0.00  0.00    +0.000 C 
ATOM     11  N   UNL     1      47.073   6.251  13.144  0.00  0.00    +0.000 NA
ATOM     12  C   UNL     1      46.377   6.184  11.986  0.00  0.00    +0.000 A 
ATOM     13  C   UNL     1      45.532   5.151  11.644  0.00  0.00    +0.000 A 
ENDROOT
BRANCH   8  14
ATOM     14  C   UNL     1      48.776   5.925  18.752  0.00  0.00    +0.000 A 
ATOM     15  C   UNL     1      47.834   5.500  19.694  0.00  0.00    +0.000 A 
ATOM     16  C   UNL     1      47.465   6.336  20.746  0.00  0.00    +0.000 A 
ATOM     17  C   UNL     1      48.060   7.580  20.841  0.00  0.00    +0.000 A 
ATOM     18  N   UNL     1      48.986   8.028  19.971  0.00  0.00    +0.000 NA
ATOM     19  C   UNL     1      49.324   7.194  18.961  0.00  0.00    +0.000 A 
ENDBRANCH   8  14
BRANCH  13  20
ATOM     20  C   UNL     1      44.831   5.115  10.345  0.00  0.00    +0.000 C 
ATOM     21  N   UNL     1      43.538   5.565  10.306  0.00  0.00    +0.000 N 
ATOM     22  O   UNL     1      45.371   4.720   9.322  0.00  0.00    +0.000 OA
ATOM     23  H   UNL     1      43.100   6.099  11.043  0.00  0.00    +0.000 HD
ATOM     24  H   UNL     1      43.114   5.614   9.386  0.00  0.00    +0.000 HD
ENDBRANCH  13  20
TORSDOF 2
ENDMDL
MODEL 4
REMARK VINA RESULT:    -5.872      3.023      7.819
REMARK INTER + INTRA:          -6.901
REMARK INTER:                  -6.568
REMARK INTRA:                  -0.333
REMARK UNBOUND:                -0.342
REMARK  Name = 
REMARK  3 active torsions:
REMARK  status: ('A' for Active; 'I' for Inactive)
REMARK    1  A    between atoms: C_1  and  C_2
REMARK    2  A    between atoms: C_8  and  C_9
REMARK    3  A    between atoms: C_19  and  C_20
REMARK                            x       y       z     vdW  Elec       q    Type
REMARK                         _______ _______ _______ _____ _____    ______ ____
ROOT
ATOM      1  C   UNL     1      45.359   6.097  10.636  0.00  0.00    +0.000 C 
ATOM      2  C   UNL     1      45.708   5.182  11.770  0.00  0.00    +0.000 A 
ATOM      3  N   UNL     1      46.568   5.708  12.677  0.00  0.00    +0.000 NA
ATOM      4  C   UNL     1      46.911   4.996  13.763  0.00  0.00    +0.000 A 
ATOM      5  N   UNL     1      47.672   5.619  14.735  0.00  0.00    +0.000 N 
ATOM      6  C   UNL     1      48.222   4.805  15.810  0.00  0.00    +0.000 C 
ATOM      7  C   UNL     1      48.423   5.705  17.031  0.00  0.00    +0.000 C 
ATOM      8  C   UNL     1      49.304   6.937  16.725  0.00  0.00    +0.000 C 
ATOM      9  C   UNL     1      48.750   7.668  15.486  0.00  0.00    +0.000 C 
ATOM     10  C   UNL     1      48.493   6.741  14.297  0.00  0.00    +0.000 C 
ATOM     11  N   UNL     1      46.458   3.750  13.963  0.00  0.00    +0.000 NA
ATOM     12  C   UNL     1      45.614   3.238  13.038  0.00  0.00    +0.000 A 
ATOM     13  C   UNL     1      45.174   3.918  11.924  0.00  0.00    +0.000 A 
ENDROOT
BRANCH   8  14
ATOM     14  C   UNL     1      50.790   6.610  16.706  0.00  0.00    +0.000 A 
ATOM     15  C   UNL     1      51.374   5.546  17.401  0.00  0.00    +0.000 A 
ATOM     16  C   UNL     1      52.744   5.312  17.303  0.00  0.00    +0.000 A 
ATOM     17  C   UNL     1      53.500   6.142  16.497  0.00  0.00    +0.000 A 
ATOM     18  N   UNL     1      52.982   7.166  15.792  0.00  0.00    +0.000 NA
ATOM     19  C   UNL     1      51.649   7.369  15.907  0.00  0.00    +0.000 A 
ENDBRANCH   8  14
BRANCH  13  20
ATOM     20  C   UNL     1      44.219   3.318  10.971  0.00  0.00    +0.000 C 
ATOM     21  N   UNL     1      44.722   2.510   9.987  0.00  0.00    +0.000 N 
ATOM     22  O   UNL     1      43.013   3.506  11.049  0.00  0.00    +0.000 OA
ATOM     23  H   UNL     1      45.660   2.136   9.984  0.00  0.00    +0.000 HD
ATOM     24  H   UNL     1      44.037   2.040   9.406  0.00  0.00    +0.000 HD
ENDBRANCH  13  20
TORSDOF 2
ENDMDL
MODEL 5
REMARK VINA RESULT:    -5.817      2.131      2.755
REMARK INTER + INTRA:          -6.839
REMARK INTER:                  -6.604
REMARK INTRA:                  -0.235
REMARK UNBOUND:                -0.342
REMARK  Name = 
REMARK  3 active torsions:
REMARK  status: ('A' for Active; 'I' for Inactive)
REMARK    1  A    between atoms: C_1  and  C_2
REMARK    2  A    between atoms: C_8  and  C_9
REMARK    3  A    between atoms: C_19  and  C_20
REMARK                            x       y       z     vdW  Elec       q    Type
REMARK                         _______ _______ _______ _____ _____    ______ ____
ROOT
ATOM      1  C   UNL     1      48.568   5.986  16.044  0.00  0.00    +0.000 C 
ATOM      2  C   UNL     1      48.045   6.656  14.809  0.00  0.00    +0.000 A 
ATOM      3  N   UNL     1      47.390   5.832  13.952  0.00  0.00    +0.000 NA
ATOM      4  C   UNL     1      46.835   6.333  12.837  0.00  0.00    +0.000 A 
ATOM      5  N   UNL     1      46.054   5.493  12.066  0.00  0.00    +0.000 N 
ATOM      6  C   UNL     1      45.619   5.960  10.757  0.00  0.00    +0.000 C 
ATOM      7  C   UNL     1      44.321   5.233  10.401  0.00  0.00    +0.000 C 
ATOM      8  C   UNL     1      44.466   3.696  10.451  0.00  0.00    +0.000 C 
ATOM      9  C   UNL     1      45.069   3.282  11.808  0.00  0.00    +0.000 C 
ATOM     10  C   UNL     1      46.329   4.066  12.178  0.00  0.00    +0.000 C 
ATOM     11  N   UNL     1      46.943   7.630  12.516  0.00  0.00    +0.000 NA
ATOM     12  C   UNL     1      47.614   8.432  13.375  0.00  0.00    +0.000 A 
ATOM     13  C   UNL     1      48.170   8.009  14.562  0.00  0.00    +0.000 A 
ENDROOT
BRANCH   8  14
ATOM     14  C   UNL     1      45.139   3.126   9.212  0.00  0.00    +0.000 A 
ATOM     15  C   UNL     1      45.485   3.875   8.084  0.00  0.00    +0.000 A 
ATOM     16  C   UNL     1      46.122   3.267   7.004  0.00  0.00    +0.000 A 
ATOM     17  C   UNL     1      46.413   1.918   7.084  0.00  0.00    +0.000 A 
ATOM     18  N   UNL     1      46.119   1.157   8.156  0.00  0.00    +0.000 NA
ATOM     19  C   UNL     1      45.501   1.776   9.188  0.00  0.00    +0.000 A 
ENDBRANCH   8  14
BRANCH  13  20
ATOM     20  C   UNL     1      48.856   8.942  15.478  0.00  0.00    +0.000 C 
ATOM     21  N   UNL     1      50.131   9.327  15.159  0.00  0.00    +0.000 N 
ATOM     22  O   UNL     1      48.318   9.385  16.483  0.00  0.00    +0.000 OA
ATOM     23  H   UNL     1      50.558   9.183  14.255  0.00  0.00    +0.000 HD
ATOM     24  H   UNL     1      50.541  10.037  15.755  0.00  0.00    +0.000 HD
ENDBRANCH  13  20
TORSDOF 2
ENDMDL
MODEL 6
REMARK VINA RESULT:    -5.618      4.368      7.308
REMARK INTER + INTRA:          -6.617
REMARK INTER:                  -6.263
REMARK INTRA:                  -0.354
REMARK UNBOUND:                -0.342
REMARK  Name = 
REMARK  3 active torsions:
REMARK  status: ('A' for Active; 'I' for Inactive)
REMARK    1  A    between atoms: C_1  and  C_2
REMARK    2  A    between atoms: C_8  and  C_9
REMARK    3  A    between atoms: C_19  and  C_20
REMARK                            x       y       z     vdW  Elec       q    Type
REMARK                         _______ _______ _______ _____ _____    ______ ____
ROOT
ATOM      1  C   UNL     1      44.873   5.539  10.443  0.00  0.00    +0.000 C 
ATOM      2  C   UNL     1      45.659   5.510  11.719  0.00  0.00    +0.000 A 
ATOM      3  N   UNL     1      46.765   6.295  11.721  0.00  0.00    +0.000 NA
ATOM      4  C   UNL     1      47.518   6.386  12.829  0.00  0.00    +0.000 A 
ATOM      5  N   UNL     1      48.551   7.305  12.839  0.00  0.00    +0.000 N 
ATOM      6  C   UNL     1      49.496   7.271  13.946  0.00  0.00    +0.000 C 
ATOM      7  C   UNL     1      50.086   8.673  14.110  0.00  0.00    +0.000 C 
ATOM      8  C   UNL     1      50.731   9.204  12.810  0.00  0.00    +0.000 C 
ATOM      9  C   UNL     1      49.725   9.075  11.649  0.00  0.00    +0.000 C 
ATOM     10  C   UNL     1      49.096   7.684  11.542  0.00  0.00    +0.000 C 
ATOM     11  N   UNL     1      47.232   5.686  13.936  0.00  0.00    +0.000 NA
ATOM     12  C   UNL     1      46.134   4.896  13.908  0.00  0.00    +0.000 A 
ATOM     13  C   UNL     1      45.282   4.784  12.832  0.00  0.00    +0.000 A 
ENDROOT
BRANCH   8  14
ATOM     14  C   UNL     1      52.120   8.635  12.565  0.00  0.00    +0.000 A 
ATOM     15  C   UNL     1      52.650   8.358  11.301  0.00  0.00    +0.000 A 
ATOM     16  C   UNL     1      53.945   7.859  11.176  0.00  0.00    +0.000 A 
ATOM     17  C   UNL     1      54.689   7.660  12.324  0.00  0.00    +0.000 A 
ATOM     18  N   UNL     1      54.232   7.929  13.562  0.00  0.00    +0.000 NA
ATOM     19  C   UNL     1      52.971   8.413  13.651  0.00  0.00    +0.000 A 
ENDBRANCH   8  14
BRANCH  13  20
ATOM     20  C   UNL     1      44.076   3.934  12.878  0.00  0.00    +0.000 C 
ATOM     21  N   UNL     1      44.205   2.621  12.512  0.00  0.00    +0.000 N 
ATOM     22  O   UNL     1      42.990   4.362  13.245  0.00  0.00    +0.000 OA
ATOM     23  H   UNL     1      45.090   2.146  12.408  0.00  0.00    +0.000 HD
ATOM     24  H   UNL     1      43.383   2.042  12.642  0.00  0.00    +0.000 HD
ENDBRANCH  13  20
TORSDOF 2
ENDMDL
MODEL 7
REMARK VINA RESULT:    -5.296      3.617      7.736
REMARK INTER + INTRA:          -6.258
REMARK INTER:                  -6.010
REMARK INTRA:                  -0.248
REMARK UNBOUND:                -0.342
REMARK  Name = 
REMARK  3 active torsions:
REMARK  status: ('A' for Active; 'I' for Inactive)
REMARK    1  A    between atoms: C_1  and  C_2
REMARK    2  A    between atoms: C_8  and  C_9
REMARK    3  A    between atoms: C_19  and  C_20
REMARK                            x       y       z     vdW  Elec       q    Type
REMARK                         _______ _______ _______ _____ _____    ______ ____
ROOT
ATOM      1  C   UNL     1      45.427   5.487   9.545  0.00  0.00    +0.000 C 
ATOM      2  C   UNL     1      45.709   5.223  10.993  0.00  0.00    +0.000 A 
ATOM      3  N   UNL     1      46.673   6.009  11.534  0.00  0.00    +0.000 NA
ATOM      4  C   UNL     1      46.974   5.897  12.838  0.00  0.00    +0.000 A 
ATOM      5  N   UNL     1      47.855   6.812  13.384  0.00  0.00    +0.000 N 
ATOM      6  C   UNL     1      48.346   6.578  14.734  0.00  0.00    +0.000 C 
ATOM      7  C   UNL     1      48.720   7.930  15.344  0.00  0.00    +0.000 C 
ATOM      8  C   UNL     1      49.737   8.712  14.482  0.00  0.00    +0.000 C 
ATOM      9  C   UNL     1      49.222   8.794  13.031  0.00  0.00    +0.000 C 
ATOM     10  C   UNL     1      48.790   7.441  12.462  0.00  0.00    +0.000 C 
ATOM     11  N   UNL     1      46.374   4.992  13.625  0.00  0.00    +0.000 NA
ATOM     12  C   UNL     1      45.427   4.206  13.062  0.00  0.00    +0.000 A 
ATOM     13  C   UNL     1      45.025   4.291  11.748  0.00  0.00    +0.000 A 
ENDROOT
BRANCH   8  14
ATOM     14  C   UNL     1      51.165   8.221  14.664  0.00  0.00    +0.000 A 
ATOM     15  C   UNL     1      52.225   8.535  13.808  0.00  0.00    +0.000 A 
ATOM     16  C   UNL     1      53.506   8.056  14.071  0.00  0.00    +0.000 A 
ATOM     17  C   UNL     1      53.703   7.282  15.199  0.00  0.00    +0.000 A 
ATOM     18  N   UNL     1      52.720   6.968  16.065  0.00  0.00    +0.000 NA
ATOM     19  C   UNL     1      51.487   7.448  15.783  0.00  0.00    +0.000 A 
ENDBRANCH   8  14
BRANCH  13  20
ATOM     20  C   UNL     1      43.956   3.431  11.203  0.00  0.00    +0.000 C 
ATOM     21  N   UNL     1      44.327   2.274  10.570  0.00  0.00    +0.000 N 
ATOM     22  O   UNL     1      42.770   3.711  11.317  0.00  0.00    +0.000 OA
ATOM     23  H   UNL     1      45.251   1.870  10.623  0.00  0.00    +0.000 HD
ATOM     24  H   UNL     1      43.571   1.661  10.288  0.00  0.00    +0.000 HD
ENDBRANCH  13  20
TORSDOF 2
ENDMDL
