MODEL 1
REMARK VINA RESULT:    -8.556      0.000      0.000
REMARK INTER + INTRA:         -11.884
REMARK INTER:                 -11.056
REMARK INTRA:                  -0.828
REMARK UNBOUND:                -0.828
REMARK  Name = 
REMARK  7 active torsions:
REMARK  status: ('A' for Active; 'I' for Inactive)
REMARK    1  A    between atoms: C_1  and  C_2
REMARK    2  A    between atoms: C_2  and  N_3
REMARK    3  A    between atoms: C_2  and  C_17
REMARK    4  A    between atoms: C_4  and  C_6
REMARK    5  A    between atoms: N_12  and  C_13
REMARK    6  A    between atoms: C_20  and  C_21
REMARK    7  A    between atoms: C_21  and  C_22
REMARK                            x       y       z     vdW  Elec       q    Type
REMARK                         _______ _______ _______ _____ _____    ______ ____
ROOT
ATOM      1  C   UNL     1      43.031   5.116  13.514  0.00  0.00    +0.000 C 
ATOM      2  C   UNL     1      44.345   4.411  13.159  0.00  0.00    +0.000 C 
ENDROOT
BRANCH   2   3
ATOM      3  C   UNL     1      44.528   4.210  11.661  0.00  0.00    +0.000 A 
ATOM      4  C   UNL     1      44.047   3.031  11.073  0.00  0.00    +0.000 A 
ATOM      5  C   UNL     1      44.160   2.815   9.696  0.00  0.00    +0.000 A 
ATOM      6  C   UNL     1      44.768   3.769   8.871  0.00  0.00    +0.000 A 
ATOM      7  C   UNL     1      45.303   4.921   9.459  0.00  0.00    +0.000 A 
ATOM      8  C   UNL     1      45.200   5.129  10.839  0.00  0.00    +0.000 A 
BRANCH   6   9
ATOM      9  C   UNL     1      44.787   3.591   7.369  0.00  0.00    +0.000 C 
BRANCH   9  10
ATOM     10  C   UNL     1      45.998   2.822   6.893  0.00  0.00    +0.000 A 
ATOM     11  C   UNL     1      46.512   1.758   7.641  0.00  0.00    +0.000 A 
ATOM     12  C   UNL     1      47.683   1.148   7.216  0.00  0.00    +0.000 A 
ATOM     13  N   UNL     1      48.360   1.510   6.106  0.00  0.00    +0.000 NA
ATOM     14  C   UNL     1      47.841   2.529   5.390  0.00  0.00    +0.000 A 
ATOM     15  C   UNL     1      46.681   3.205   5.734  0.00  0.00    +0.000 A 
ENDBRANCH   9  10
ENDBRANCH   6   9
ENDBRANCH   2   3
BRANCH   2  16
ATOM     16  N   UNL     1      45.492   5.135  13.662  0.00  0.00    +0.000 N 
ATOM     17  C   UNL     1      46.681   4.568  14.047  0.00  0.00    +0.000 C 
ATOM     18  O   UNL     1      46.932   3.378  13.905  0.00  0.00    +0.000 OA
ATOM     19  H   UNL     1      45.288   6.078  13.959  0.00  0.00    +0.000 HD
BRANCH  17  20
ATOM     20  C   UNL     1      47.672   5.521  14.569  0.00  0.00    +0.000 A 
ATOM     21  C   UNL     1      48.165   6.554  13.783  0.00  0.00    +0.000 A 
ATOM     22  S   UNL     1      49.209   7.607  14.637  0.00  0.00    +0.000 S 
ATOM     23  C   UNL     1      49.071   6.688  16.064  0.00  0.00    +0.000 A 
ATOM     24  N   UNL     1      49.697   7.055  17.212  0.00  0.00    +0.000 NA
ATOM     25  C   UNL     1      49.494   6.259  18.212  0.00  0.00    +0.000 A 
ATOM     26  N   UNL     1      48.739   5.104  18.178  0.00  0.00    +0.000 N 
ATOM     27  C   UNL     1      48.560   4.280  19.352  0.00  0.00    +0.000 C 
ATOM     28  C   UNL     1      48.116   4.687  17.014  0.00  0.00    +0.000 A 
ATOM     29  O   UNL     1      47.456   3.647  16.959  0.00  0.00    +0.000 OA
ATOM     30  C   UNL     1      48.264   5.583  15.883  0.00  0.00    +0.000 A 
ENDBRANCH  17  20
ENDBRANCH   2  16
TORSDOF 5
ENDMDL
MODEL 2
REMARK VINA RESULT:    -8.254      1.554      2.940
REMARK INTER + INTRA:         -11.494
REMARK INTER:                 -10.721
REMARK INTRA:                  -0.773
REMARK UNBOUND:                -0.828
REMARK  Name = 
REMARK  7 active torsions:
REMARK  status: ('A' for Active; 'I' for Inactive)
REMARK    1  A    between atoms: C_1  and  C_2
REMARK    2  A    between atoms: C_2  and  N_3
REMARK    3  A    between atoms: C_2  and  C_17
REMARK    4  A    between atoms: C_4  and  C_6
REMARK    5  A    between atoms: N_12  and  C_13
REMARK    6  A    between atoms: C_20  and  C_21
REMARK    7  A    between atoms: C_21  and  C_22
REMARK                            x       y       z     vdW  Elec       q    Type
REMARK                         _______ _______ _______ _____ _____    ______ ____
ROOT
ATOM      1  C   UNL     1      42.986   5.086  13.520  0.00  0.00    +0.000 C 
ATOM      2  C   UNL     1      44.281   4.339  13.185  0.00  0.00    +0.000 C 
ENDROOT
BRANCH   2   3
ATOM      3  C   UNL     1      44.525   4.211  11.688  0.00  0.00    +0.000 A 
ATOM      4  C   UNL     1      44.084   3.056  11.026  0.00  0.00    +0.000 A 
ATOM      5  C   UNL     1      44.254   2.907   9.646  0.00  0.00    +0.000 A 
ATOM      6  C   UNL     1      44.881   3.906   8.892  0.00  0.00    +0.000 A 
ATOM      7  C   UNL     1      45.377   5.035   9.554  0.00  0.00    +0.000 A 
ATOM      8  C   UNL     1      45.217   5.177  10.937  0.00  0.00    +0.000 A 
BRANCH   6   9
ATOM      9  C   UNL     1      44.961   3.800   7.385  0.00  0.00    +0.000 C 
BRANCH   9  10
ATOM     10  C   UNL     1      46.187   3.045   6.923  0.00  0.00    +0.000 A 
ATOM     11  C   UNL     1      46.764   3.308   5.677  0.00  0.00    +0.000 A 
ATOM     12  C   UNL     1      47.826   2.521   5.254  0.00  0.00    +0.000 A 
ATOM     13  N   UNL     1      48.353   1.514   5.983  0.00  0.00    +0.000 NA
ATOM     14  C   UNL     1      47.791   1.285   7.188  0.00  0.00    +0.000 A 
ATOM     15  C   UNL     1      46.726   2.012   7.696  0.00  0.00    +0.000 A 
ENDBRANCH   9  10
ENDBRANCH   6   9
ENDBRANCH   2   3
BRANCH   2  16
ATOM     16  N   UNL     1      45.435   4.979  13.778  0.00  0.00    +0.000 N 
ATOM     17  C   UNL     1      46.593   4.340  14.146  0.00  0.00    +0.000 C 
ATOM     18  O   UNL     1      46.811   3.159  13.910  0.00  0.00    +0.000 OA
ATOM     19  H   UNL     1      45.253   5.900  14.150  0.00  0.00    +0.000 HD
BRANCH  17  20
ATOM     20  C   UNL     1      47.598   5.212  14.774  0.00  0.00    +0.000 A 
ATOM     21  C   UNL     1      47.991   5.027  16.093  0.00  0.00    +0.000 A 
ATOM     22  S   UNL     1      49.256   6.077  16.569  0.00  0.00    +0.000 S 
ATOM     23  C   UNL     1      49.281   6.838  15.046  0.00  0.00    +0.000 A 
ATOM     24  N   UNL     1      50.169   7.826  14.757  0.00  0.00    +0.000 NA
ATOM     25  C   UNL     1      50.068   8.304  13.558  0.00  0.00    +0.000 A 
ATOM     26  N   UNL     1      49.144   7.909  12.612  0.00  0.00    +0.000 N 
ATOM     27  C   UNL     1      49.114   8.494  11.291  0.00  0.00    +0.000 C 
ATOM     28  C   UNL     1      48.207   6.928  12.888  0.00  0.00    +0.000 A 
ATOM     29  O   UNL     1      47.361   6.577  12.063  0.00  0.00    +0.000 OA
ATOM     30  C   UNL     1      48.324   6.318  14.200  0.00  0.00    +0.000 A 
ENDBRANCH  17  20
ENDBRANCH   2  16
TORSDOF 5
ENDMDL
MODEL 3
REMARK VINA RESULT:    -7.833      2.164      3.321
REMARK INTER + INTRA:         -10.951
REMARK INTER:                  -9.478
REMARK INTRA:                  -1.472
REMARK UNBOUND:                -0.828
REMARK  Name = 
REMARK  7 active torsions:
REMARK  status: ('A' for Active; 'I' for Inactive)
REMARK    1  A    between atoms: C_1  and  C_2
REMARK    2  A    between atoms: C_2  and  N_3
REMARK    3  A    between atoms: C_2  and  C_17
REMARK    4  A    between atoms: C_4  and  C_6
REMARK    5  A    between atoms: N_12  and  C_13
REMARK    6  A    between atoms: C_20  and  C_21
REMARK    7  A    between atoms: C_21  and  C_22
REMARK                            x       y       z     vdW  Elec       q    Type
REMARK                         _______ _______ _______ _____ _____    ______ ____
ROOT
ATOM      1  C   UNL     1      47.365   9.274  12.536  0.00  0.00    +0.000 C 
ATOM      2  C   UNL     1      46.831   8.188  13.477  0.00  0.00    +0.000 C 
ENDROOT
BRANCH   2   3
ATOM      3  C   UNL     1      46.044   7.105  12.751  0.00  0.00    +0.000 A 
ATOM      4  C   UNL     1      44.913   7.474  12.008  0.00  0.00    +0.000 A 
ATOM      5  C   UNL     1      44.177   6.522  11.297  0.00  0.00    +0.000 A 
ATOM      6  C   UNL     1      44.547   5.171  11.318  0.00  0.00    +0.000 A 
ATOM      7  C   UNL     1      45.639   4.788  12.104  0.00  0.00    +0.000 A 
ATOM      8  C   UNL     1      46.367   5.741  12.826  0.00  0.00    +0.000 A 
BRANCH   6   9
ATOM      9  C   UNL     1      43.825   4.159  10.456  0.00  0.00    +0.000 C 
BRANCH   9  10
ATOM     10  C   UNL     1      44.720   3.557   9.397  0.00  0.00    +0.000 A 
ATOM     11  C   UNL     1      44.935   2.177   9.339  0.00  0.00    +0.000 A 
ATOM     12  C   UNL     1      45.843   1.681   8.414  0.00  0.00    +0.000 A 
ATOM     13  N   UNL     1      46.530   2.454   7.547  0.00  0.00    +0.000 NA
ATOM     14  C   UNL     1      46.299   3.782   7.609  0.00  0.00    +0.000 A 
ATOM     15  C   UNL     1      45.416   4.373   8.499  0.00  0.00    +0.000 A 
ENDBRANCH   9  10
ENDBRANCH   6   9
ENDBRANCH   2   3
BRANCH   2  16
ATOM     16  N   UNL     1      47.898   7.552  14.218  0.00  0.00    +0.000 N 
ATOM     17  C   UNL     1      48.453   8.033  15.377  0.00  0.00    +0.000 C 
ATOM     18  O   UNL     1      48.024   9.015  15.968  0.00  0.00    +0.000 OA
ATOM     19  H   UNL     1      48.400   6.847  13.698  0.00  0.00    +0.000 HD
BRANCH  17  20
ATOM     20  C   UNL     1      49.560   7.221  15.907  0.00  0.00    +0.000 A 
ATOM     21  C   UNL     1      50.863   7.699  15.923  0.00  0.00    +0.000 A 
ATOM     22  S   UNL     1      51.959   6.635  16.695  0.00  0.00    +0.000 S 
ATOM     23  C   UNL     1      50.735   5.486  16.985  0.00  0.00    +0.000 A 
ATOM     24  N   UNL     1      50.987   4.328  17.650  0.00  0.00    +0.000 NA
ATOM     25  C   UNL     1      49.957   3.559  17.796  0.00  0.00    +0.000 A 
ATOM     26  N   UNL     1      48.687   3.817  17.320  0.00  0.00    +0.000 N 
ATOM     27  C   UNL     1      47.592   2.901  17.542  0.00  0.00    +0.000 C 
ATOM     28  C   UNL     1      48.408   4.974  16.612  0.00  0.00    +0.000 A 
ATOM     29  O   UNL     1      47.286   5.213  16.160  0.00  0.00    +0.000 OA
ATOM     30  C   UNL     1      49.520   5.897  16.478  0.00  0.00    +0.000 A 
ENDBRANCH  17  20
ENDBRANCH   2  16
TORSDOF 5
ENDMDL
MODEL 4
REMARK VINA RESULT:    -7.693      2.328      3.892
REMARK INTER + INTRA:         -10.769
REMARK INTER:                  -9.516
REMARK INTRA:                  -1.253
REMARK UNBOUND:                -0.828
REMARK  Name = 
REMARK  7 active torsions:
REMARK  status: ('A' for Active; 'I' for Inactive)
REMARK    1  A    between atoms: C_1  and  C_2
REMARK    2  A    between atoms: C_2  and  N_3
REMARK    3  A    between atoms: C_2  and  C_17
REMARK    4  A    between atoms: C_4  and  C_6
REMARK    5  A    between atoms: N_12  and  C_13
REMARK    6  A    between atoms: C_20  and  C_21
REMARK    7  A    between atoms: C_21  and  C_22
REMARK                            x       y       z     vdW  Elec       q    Type
REMARK                         _______ _______ _______ _____ _____    ______ ____
ROOT
ATOM      1  C   UNL     1      49.553   7.469  13.033  0.00  0.00    +0.000 C 
ATOM      2  C   UNL     1      48.150   7.821  13.541  0.00  0.00    +0.000 C 
ENDROOT
BRANCH   2   3
ATOM      3  C   UNL     1      47.052   7.007  12.870  0.00  0.00    +0.000 A 
ATOM      4  C   UNL     1      46.154   7.658  12.012  0.00  0.00    +0.000 A 
ATOM      5  C   UNL     1      45.150   6.948  11.347  0.00  0.00    +0.000 A 
ATOM      6  C   UNL     1      45.010   5.567  11.531  0.00  0.00    +0.000 A 
ATOM      7  C   UNL     1      45.864   4.920  12.432  0.00  0.00    +0.000 A 
ATOM      8  C   UNL     1      46.861   5.635  13.107  0.00  0.00    +0.000 A 
BRANCH   6   9
ATOM      9  C   UNL     1      44.002   4.778  10.725  0.00  0.00    +0.000 C 
BRANCH   9  10
ATOM     10  C   UNL     1      44.654   3.917   9.667  0.00  0.00    +0.000 A 
ATOM     11  C   UNL     1      44.568   2.523   9.723  0.00  0.00    +0.000 A 
ATOM     12  C   UNL     1      45.267   1.773   8.789  0.00  0.00    +0.000 A 
ATOM     13  N   UNL     1      46.023   2.309   7.807  0.00  0.00    +0.000 NA
ATOM     14  C   UNL     1      46.082   3.656   7.761  0.00  0.00    +0.000 A 
ATOM     15  C   UNL     1      45.425   4.491   8.651  0.00  0.00    +0.000 A 
ENDBRANCH   9  10
ENDBRANCH   6   9
ENDBRANCH   2   3
BRANCH   2  16
ATOM     16  N   UNL     1      48.039   7.640  14.971  0.00  0.00    +0.000 N 
ATOM     17  C   UNL     1      48.666   8.411  15.919  0.00  0.00    +0.000 C 
ATOM     18  O   UNL     1      49.313   9.412  15.645  0.00  0.00    +0.000 OA
ATOM     19  H   UNL     1      47.668   6.742  15.247  0.00  0.00    +0.000 HD
BRANCH  17  20
ATOM     20  C   UNL     1      48.427   7.986  17.306  0.00  0.00    +0.000 A 
ATOM     21  C   UNL     1      47.906   8.860  18.250  0.00  0.00    +0.000 A 
ATOM     22  S   UNL     1      47.600   8.115  19.760  0.00  0.00    +0.000 S 
ATOM     23  C   UNL     1      48.198   6.617  19.211  0.00  0.00    +0.000 A 
ATOM     24  N   UNL     1      48.197   5.515  20.005  0.00  0.00    +0.000 NA
ATOM     25  C   UNL     1      48.679   4.451  19.447  0.00  0.00    +0.000 A 
ATOM     26  N   UNL     1      49.193   4.378  18.168  0.00  0.00    +0.000 N 
ATOM     27  C   UNL     1      49.702   3.140  17.624  0.00  0.00    +0.000 C 
ATOM     28  C   UNL     1      49.237   5.493  17.347  0.00  0.00    +0.000 A 
ATOM     29  O   UNL     1      49.711   5.452  16.210  0.00  0.00    +0.000 OA
ATOM     30  C   UNL     1      48.648   6.694  17.909  0.00  0.00    +0.000 A 
ENDBRANCH  17  20
ENDBRANCH   2  16
TORSDOF 5
ENDMDL
MODEL 5
REMARK VINA RESULT:    -7.452      2.633      3.647
REMARK INTER + INTRA:         -10.458
REMARK INTER:                  -9.387
REMARK INTRA:                  -1.071
REMARK UNBOUND:                -0.828
REMARK  Name = 
REMARK  7 active torsions:
REMARK  status: ('A' for Active; 'I' for Inactive)
REMARK    1  A    between atoms: C_1  and  C_2
REMARK    2  A    between atoms: C_2  and  N_3
REMARK    3  A    between atoms: C_2  and  C_17
REMARK    4  A    between atoms: C_4  and  C_6
REMARK    5  A    between atoms: N_12  and  C_13
REMARK    6  A    between atoms: C_20  and  C_21
REMARK    7  A    between atoms: C_21  and  C_22
REMARK                            x       y       z     vdW  Elec       q    Type
REMARK                         _______ _______ _______ _____ _____    ______ ____
ROOT
ATOM      1  C   UNL     1      47.141   4.314  16.062  0.00  0.00    +0.000 C 
ATOM      2  C   UNL     1      47.714   5.000  14.817  0.00  0.00    +0.000 C 
ENDROOT
BRANCH   2   3
ATOM      3  C   UNL     1      46.826   4.845  13.589  0.00  0.00    +0.000 A 
ATOM      4  C   UNL     1      46.759   5.898  12.666  0.00  0.00    +0.000 A 
ATOM      5  C   UNL     1      45.984   5.791  11.506  0.00  0.00    +0.000 A 
ATOM      6  C   UNL     1      45.248   4.629  11.245  0.00  0.00    +0.000 A 
ATOM      7  C   UNL     1      45.263   3.598  12.191  0.00  0.00    +0.000 A 
ATOM      8  C   UNL     1      46.028   3.712  13.357  0.00  0.00    +0.000 A 
BRANCH   6   9
ATOM      9  C   UNL     1      44.504   4.464   9.937  0.00  0.00    +0.000 C 
BRANCH   9  10
ATOM     10  C   UNL     1      45.265   3.615   8.944  0.00  0.00    +0.000 A 
ATOM     11  C   UNL     1      45.298   2.223   9.066  0.00  0.00    +0.000 A 
ATOM     12  C   UNL     1      46.091   1.494   8.191  0.00  0.00    +0.000 A 
ATOM     13  N   UNL     1      46.830   2.049   7.207  0.00  0.00    +0.000 NA
ATOM     14  C   UNL     1      46.774   3.392   7.096  0.00  0.00    +0.000 A 
ATOM     15  C   UNL     1      46.017   4.206   7.924  0.00  0.00    +0.000 A 
ENDBRANCH   9  10
ENDBRANCH   6   9
ENDBRANCH   2   3
BRANCH   2  16
ATOM     16  N   UNL     1      47.935   6.412  15.040  0.00  0.00    +0.000 N 
ATOM     17  C   UNL     1      49.082   6.963  15.555  0.00  0.00    +0.000 C 
ATOM     18  O   UNL     1      50.091   6.311  15.788  0.00  0.00    +0.000 OA
ATOM     19  H   UNL     1      47.093   6.970  15.031  0.00  0.00    +0.000 HD
BRANCH  17  20
ATOM     20  C   UNL     1      49.034   8.422  15.729  0.00  0.00    +0.000 A 
ATOM     21  C   UNL     1      49.459   9.284  14.727  0.00  0.00    +0.000 A 
ATOM     22  S   UNL     1      49.196  10.932  15.102  0.00  0.00    +0.000 S 
ATOM     23  C   UNL     1      48.553  10.545  16.631  0.00  0.00    +0.000 A 
ATOM     24  N   UNL     1      48.092  11.506  17.474  0.00  0.00    +0.000 NA
ATOM     25  C   UNL     1      47.630  11.057  18.597  0.00  0.00    +0.000 A 
ATOM     26  N   UNL     1      47.602   9.732  18.981  0.00  0.00    +0.000 N 
ATOM     27  C   UNL     1      47.055   9.323  20.255  0.00  0.00    +0.000 C 
ATOM     28  C   UNL     1      48.094   8.735  18.156  0.00  0.00    +0.000 A 
ATOM     29  O   UNL     1      48.097   7.548  18.491  0.00  0.00    +0.000 OA
ATOM     30  C   UNL     1      48.564   9.186  16.860  0.00  0.00    +0.000 A 
ENDBRANCH  17  20
ENDBRANCH   2  16
TORSDOF 5
ENDMDL
MODEL 6
REMARK VINA RESULT:    -7.255      2.722      4.381
REMARK INTER + INTRA:         -10.203
REMARK INTER:                  -8.977
REMARK INTRA:                  -1.227
REMARK UNBOUND:                -0.828
REMARK  Name = 
REMARK  7 active torsions:
REMARK  status: ('A' for Active; 'I' for Inactive)
REMARK    1  A    between atoms: C_1  and  C_2
REMARK    2  A    between atoms: C_2  and  N_3
REMARK    3  A    between atoms: C_2  and  C_17
REMARK    4  A    between atoms: C_4  and  C_6
REMARK    5  A    between atoms: N_12  and  C_13
REMARK    6  A    between atoms: C_20  and  C_21
REMARK    7  A    between atoms: C_21  and  C_22
REMARK                            x       y       z     vdW  Elec       q    Type
REMARK                         _______ _______ _______ _____ _____    ______ ____
ROOT
ATOM      1  C   UNL     1      47.094   3.935  16.318  0.00  0.00    +0.000 C 
ATOM      2  C   UNL     1      47.662   4.659  15.092  0.00  0.00    +0.000 C 
ENDROOT
BRANCH   2   3
ATOM      3  C   UNL     1      46.753   4.572  13.874  0.00  0.00    +0.000 A 
ATOM      4  C   UNL     1      46.453   5.746  13.168  0.00  0.00    +0.000 A 
ATOM      5  C   UNL     1      45.650   5.713  12.023  0.00  0.00    +0.000 A 
ATOM      6  C   UNL     1      45.117   4.505  11.560  0.00  0.00    +0.000 A 
ATOM      7  C   UNL     1      45.362   3.338  12.293  0.00  0.00    +0.000 A 
ATOM      8  C   UNL     1      46.155   3.375  13.445  0.00  0.00    +0.000 A 
BRANCH   6   9
ATOM      9  C   UNL     1      44.347   4.449  10.259  0.00  0.00    +0.000 C 
BRANCH   9  10
ATOM     10  C   UNL     1      45.086   3.687   9.182  0.00  0.00    +0.000 A 
ATOM     11  C   UNL     1      45.139   2.290   9.199  0.00  0.00    +0.000 A 
ATOM     12  C   UNL     1      45.913   1.640   8.248  0.00  0.00    +0.000 A 
ATOM     13  N   UNL     1      46.616   2.276   7.287  0.00  0.00    +0.000 NA
ATOM     14  C   UNL     1      46.541   3.623   7.279  0.00  0.00    +0.000 A 
ATOM     15  C   UNL     1      45.800   4.363   8.187  0.00  0.00    +0.000 A 
ENDBRANCH   9  10
ENDBRANCH   6   9
ENDBRANCH   2   3
BRANCH   2  16
ATOM     16  N   UNL     1      47.918   6.055  15.367  0.00  0.00    +0.000 N 
ATOM     17  C   UNL     1      49.065   6.555  15.931  0.00  0.00    +0.000 C 
ATOM     18  O   UNL     1      50.049   5.867  16.169  0.00  0.00    +0.000 OA
ATOM     19  H   UNL     1      47.093   6.637  15.354  0.00  0.00    +0.000 HD
BRANCH  17  20
ATOM     20  C   UNL     1      49.055   8.009  16.151  0.00  0.00    +0.000 A 
ATOM     21  C   UNL     1      48.961   8.546  17.428  0.00  0.00    +0.000 A 
ATOM     22  S   UNL     1      49.092  10.252  17.450  0.00  0.00    +0.000 S 
ATOM     23  C   UNL     1      49.228  10.325  15.754  0.00  0.00    +0.000 A 
ATOM     24  N   UNL     1      49.401  11.505  15.103  0.00  0.00    +0.000 NA
ATOM     25  C   UNL     1      49.492  11.399  13.816  0.00  0.00    +0.000 A 
ATOM     26  N   UNL     1      49.400  10.224  13.098  0.00  0.00    +0.000 N 
ATOM     27  C   UNL     1      49.524  10.202  11.659  0.00  0.00    +0.000 C 
ATOM     28  C   UNL     1      49.191   9.010  13.732  0.00  0.00    +0.000 A 
ATOM     29  O   UNL     1      49.086   7.953  13.107  0.00  0.00    +0.000 OA
ATOM     30  C   UNL     1      49.147   9.073  15.181  0.00  0.00    +0.000 A 
ENDBRANCH  17  20
ENDBRANCH   2  16
TORSDOF 5
ENDMDL
MODEL 7
REMARK VINA RESULT:    -7.076      2.626      4.166
REMARK INTER + INTRA:          -9.972
REMARK INTER:                  -8.780
REMARK INTRA:                  -1.192
REMARK UNBOUND:                -0.828
REMARK  Name = 
REMARK  7 active torsions:
REMARK  status: ('A' for Active; 'I' for Inactive)
REMARK    1  A    between atoms: C_1  and  C_2
REMARK    2  A    between atoms: C_2  and  N_3
REMARK    3  A    between atoms: C_2  and  C_17
REMARK    4  A    between atoms: C_4  and  C_6
REMARK    5  A    between atoms: N_12  and  C_13
REMARK    6  A    between atoms: C_20  and  C_21
REMARK    7  A    between atoms: C_21  and  C_22
REMARK                            x       y       z     vdW  Elec       q    Type
REMARK                         _______ _______ _______ _____ _____    ______ ____
ROOT
ATOM      1  C   UNL     1      49.647   7.600  12.766  0.00  0.00    +0.000 C 
ATOM      2  C   UNL     1      48.414   7.307  13.628  0.00  0.00    +0.000 C 
ENDROOT
BRANCH   2   3
ATOM      3  C   UNL     1      47.335   6.533  12.882  0.00  0.00    +0.000 A 
ATOM      4  C   UNL     1      46.757   7.107  11.741  0.00  0.00    +0.000 A 
ATOM      5  C   UNL     1      45.787   6.421  11.003  0.00  0.00    +0.000 A 
ATOM      6  C   UNL     1      45.362   5.145  11.393  0.00  0.00    +0.000 A 
ATOM      7  C   UNL     1      45.891   4.591  12.564  0.00  0.00    +0.000 A 
ATOM      8  C   UNL     1      46.853   5.284  13.309  0.00  0.00    +0.000 A 
BRANCH   6   9
ATOM      9  C   UNL     1      44.402   4.354  10.533  0.00  0.00    +0.000 C 
BRANCH   9  10
ATOM     10  C   UNL     1      45.106   3.585   9.438  0.00  0.00    +0.000 A 
ATOM     11  C   UNL     1      45.668   4.248   8.343  0.00  0.00    +0.000 A 
ATOM     12  C   UNL     1      46.215   3.494   7.315  0.00  0.00    +0.000 A 
ATOM     13  N   UNL     1      46.252   2.144   7.309  0.00  0.00    +0.000 NA
ATOM     14  C   UNL     1      45.716   1.523   8.381  0.00  0.00    +0.000 A 
ATOM     15  C   UNL     1      45.144   2.187   9.454  0.00  0.00    +0.000 A 
ENDBRANCH   9  10
ENDBRANCH   6   9
ENDBRANCH   2   3
BRANCH   2  16
ATOM     16  N   UNL     1      48.760   6.566  14.821  0.00  0.00    +0.000 N 
ATOM     17  C   UNL     1      48.732   7.065  16.100  0.00  0.00    +0.000 C 
ATOM     18  O   UNL     1      48.305   8.178  16.375  0.00  0.00    +0.000 OA
ATOM     19  H   UNL     1      49.275   5.716  14.645  0.00  0.00    +0.000 HD
BRANCH  17  20
ATOM     20  C   UNL     1      49.178   6.119  17.134  0.00  0.00    +0.000 A 
ATOM     21  C   UNL     1      48.278   5.523  18.006  0.00  0.00    +0.000 A 
ATOM     22  S   UNL     1      49.006   4.369  19.039  0.00  0.00    +0.000 S 
ATOM     23  C   UNL     1      50.551   4.668  18.385  0.00  0.00    +0.000 A 
ATOM     24  N   UNL     1      51.647   3.982  18.803  0.00  0.00    +0.000 NA
ATOM     25  C   UNL     1      52.747   4.318  18.210  0.00  0.00    +0.000 A 
ATOM     26  N   UNL     1      52.874   5.298  17.247  0.00  0.00    +0.000 N 
ATOM     27  C   UNL     1      54.147   5.597  16.631  0.00  0.00    +0.000 C 
ATOM     28  C   UNL     1      51.781   6.035  16.824  0.00  0.00    +0.000 A 
ATOM     29  O   UNL     1      51.877   6.928  15.980  0.00  0.00    +0.000 OA
ATOM     30  C   UNL     1      50.513   5.649  17.416  0.00  0.00    +0.000 A 
ENDBRANCH  17  20
ENDBRANCH   2  16
TORSDOF 5
ENDMDL
MODEL 8
REMARK VINA RESULT:    -6.830      3.559      9.471
REMARK INTER + INTRA:          -9.654
REMARK INTER:                  -9.349
REMARK INTRA:                  -0.304
REMARK UNBOUND:                -0.828
REMARK  Name = 
REMARK  7 active torsions:
REMARK  status: ('A' for Active; 'I' for Inactive)
REMARK    1  A    between atoms: C_1  and  C_2
REMARK    2  A    between atoms: C_2  and  N_3
REMARK    3  A    between atoms: C_2  and  C_17
REMARK    4  A    between atoms: C_4  and  C_6
REMARK    5  A    between atoms: N_12  and  C_13
REMARK    6  A    between atoms: C_20  and  C_21
REMARK    7  A    between atoms: C_21  and  C_22
REMARK                            x       y       z     vdW  Elec       q    Type
REMARK                         _______ _______ _______ _____ _____    ______ ____
ROOT
ATOM      1  C   UNL     1      47.078   2.876  17.428  0.00  0.00    +0.000 C 
ATOM      2  C   UNL     1      47.670   4.288  17.359  0.00  0.00    +0.000 C 
ENDROOT
BRANCH   2   3
ATOM      3  C   UNL     1      49.189   4.304  17.459  0.00  0.00    +0.000 A 
ATOM      4  C   UNL     1      49.869   3.087  17.611  0.00  0.00    +0.000 A 
ATOM      5  C   UNL     1      51.266   3.046  17.674  0.00  0.00    +0.000 A 
ATOM      6  C   UNL     1      52.019   4.223  17.595  0.00  0.00    +0.000 A 
ATOM      7  C   UNL     1      51.345   5.446  17.503  0.00  0.00    +0.000 A 
ATOM      8  C   UNL     1      49.947   5.486  17.454  0.00  0.00    +0.000 A 
BRANCH   6   9
ATOM      9  C   UNL     1      53.531   4.171  17.544  0.00  0.00    +0.000 C 
BRANCH   9  10
ATOM     10  C   UNL     1      54.114   3.259  18.600  0.00  0.00    +0.000 A 
ATOM     11  C   UNL     1      54.554   1.973  18.274  0.00  0.00    +0.000 A 
ATOM     12  C   UNL     1      54.987   1.138  19.293  0.00  0.00    +0.000 A 
ATOM     13  N   UNL     1      55.025   1.495  20.594  0.00  0.00    +0.000 NA
ATOM     14  C   UNL     1      54.610   2.745  20.887  0.00  0.00    +0.000 A 
ATOM     15  C   UNL     1      54.155   3.651  19.942  0.00  0.00    +0.000 A 
ENDBRANCH   9  10
ENDBRANCH   6   9
ENDBRANCH   2   3
BRANCH   2  16
ATOM     16  N   UNL     1      47.290   4.968  16.140  0.00  0.00    +0.000 N 
ATOM     17  C   UNL     1      47.328   4.419  14.882  0.00  0.00    +0.000 C 
ATOM     18  O   UNL     1      47.597   3.244  14.672  0.00  0.00    +0.000 OA
ATOM     19  H   UNL     1      47.228   5.972  16.227  0.00  0.00    +0.000 HD
BRANCH  17  20
ATOM     20  C   UNL     1      46.936   5.339  13.803  0.00  0.00    +0.000 A 
ATOM     21  C   UNL     1      47.429   6.635  13.743  0.00  0.00    +0.000 A 
ATOM     22  S   UNL     1      46.934   7.477  12.338  0.00  0.00    +0.000 S 
ATOM     23  C   UNL     1      46.010   6.153  11.795  0.00  0.00    +0.000 A 
ATOM     24  N   UNL     1      45.336   6.190  10.615  0.00  0.00    +0.000 NA
ATOM     25  C   UNL     1      44.683   5.107  10.337  0.00  0.00    +0.000 A 
ATOM     26  N   UNL     1      44.611   3.985  11.137  0.00  0.00    +0.000 N 
ATOM     27  C   UNL     1      43.862   2.815  10.738  0.00  0.00    +0.000 C 
ATOM     28  C   UNL     1      45.260   3.931  12.359  0.00  0.00    +0.000 A 
ATOM     29  O   UNL     1      45.190   2.946  13.097  0.00  0.00    +0.000 OA
ATOM     30  C   UNL     1      46.057   5.099  12.684  0.00  0.00    +0.000 A 
ENDBRANCH  17  20
ENDBRANCH   2  16
TORSDOF 5
ENDMDL
MODEL 9
REMARK VINA RESULT:    -6.786      3.366      5.402
REMARK INTER + INTRA:          -9.597
REMARK INTER:                  -8.155
REMARK INTRA:                  -1.442
REMARK UNBOUND:                -0.828
REMARK  Name = 
REMARK  7 active torsions:
REMARK  status: ('A' for Active; 'I' for Inactive)
REMARK    1  A    between atoms: C_1  and  C_2
REMARK    2  A    between atoms: C_2  and  N_3
REMARK    3  A    between atoms: C_2  and  C_17
REMARK    4  A    between atoms: C_4  and  C_6
REMARK    5  A    between atoms: N_12  and  C_13
REMARK    6  A    between atoms: C_20  and  C_21
REMARK    7  A    between atoms: C_21  and  C_22
REMARK                            x       y       z     vdW  Elec       q    Type
REMARK                         _______ _______ _______ _____ _____    ______ ____
ROOT
ATOM      1  C   UNL     1      50.825   8.468  13.544  0.00  0.00    +0.000 C 
ATOM      2  C   UNL     1      49.496   8.690  14.276  0.00  0.00    +0.000 C 
ENDROOT
BRANCH   2   3
ATOM      3  C   UNL     1      48.284   8.297  13.442  0.00  0.00    +0.000 A 
ATOM      4  C   UNL     1      48.369   7.167  12.616  0.00  0.00    +0.000 A 
ATOM      5  C   UNL     1      47.272   6.746  11.857  0.00  0.00    +0.000 A 
ATOM      6  C   UNL     1      46.063   7.450  11.898  0.00  0.00    +0.000 A 
ATOM      7  C   UNL     1      45.990   8.613  12.674  0.00  0.00    +0.000 A 
ATOM      8  C   UNL     1      47.093   9.040  13.423  0.00  0.00    +0.000 A 
BRANCH   6   9
ATOM      9  C   UNL     1      44.842   6.931  11.171  0.00  0.00    +0.000 C 
BRANCH   9  10
ATOM     10  C   UNL     1      44.420   5.563  11.656  0.00  0.00    +0.000 A 
ATOM     11  C   UNL     1      43.842   5.395  12.918  0.00  0.00    +0.000 A 
ATOM     12  C   UNL     1      43.564   4.110  13.359  0.00  0.00    +0.000 A 
ATOM     13  N   UNL     1      43.805   2.997  12.635  0.00  0.00    +0.000 NA
ATOM     14  C   UNL     1      44.350   3.180  11.414  0.00  0.00    +0.000 A 
ATOM     15  C   UNL     1      44.668   4.421  10.886  0.00  0.00    +0.000 A 
ENDBRANCH   9  10
ENDBRANCH   6   9
ENDBRANCH   2   3
BRANCH   2  16
ATOM     16  N   UNL     1      49.445   7.958  15.522  0.00  0.00    +0.000 N 
ATOM     17  C   UNL     1      48.732   8.335  16.634  0.00  0.00    +0.000 C 
ATOM     18  O   UNL     1      47.972   9.294  16.648  0.00  0.00    +0.000 OA
ATOM     19  H   UNL     1      50.174   7.268  15.628  0.00  0.00    +0.000 HD
BRANCH  17  20
ATOM     20  C   UNL     1      48.888   7.441  17.791  0.00  0.00    +0.000 A 
ATOM     21  C   UNL     1      49.198   7.936  19.050  0.00  0.00    +0.000 A 
ATOM     22  S   UNL     1      49.207   6.729  20.263  0.00  0.00    +0.000 S 
ATOM     23  C   UNL     1      48.845   5.506  19.135  0.00  0.00    +0.000 A 
ATOM     24  N   UNL     1      48.676   4.212  19.515  0.00  0.00    +0.000 NA
ATOM     25  C   UNL     1      48.401   3.400  18.546  0.00  0.00    +0.000 A 
ATOM     26  N   UNL     1      48.300   3.745  17.213  0.00  0.00    +0.000 N 
ATOM     27  C   UNL     1      47.977   2.767  16.199  0.00  0.00    +0.000 C 
ATOM     28  C   UNL     1      48.498   5.049  16.792  0.00  0.00    +0.000 A 
ATOM     29  O   UNL     1      48.433   5.372  15.604  0.00  0.00    +0.000 OA
ATOM     30  C   UNL     1      48.746   6.007  17.853  0.00  0.00    +0.000 A 
ENDBRANCH  17  20
ENDBRANCH   2  16
TORSDOF 5
ENDMDL
