MODEL 1
REMARK VINA RESULT:    -7.559      0.000      0.000
REMARK INTER + INTRA:         -12.551
REMARK INTER:                 -11.094
REMARK INTRA:                  -1.457
REMARK UNBOUND:                -1.457
REMARK  Name = 
REMARK  10 active torsions:
REMARK  status: ('A' for Active; 'I' for Inactive)
REMARK    1  A    between atoms: C_1  and  C_2
REMARK    2  A    between atoms: C_2  and  C_3
REMARK    3  A    between atoms: C_3  and  N_4
REMARK    4  A    between atoms: C_3  and  C_18
REMARK    5  A    between atoms: C_5  and  C_7
REMARK    6  A    between atoms: N_13  and  C_14
REMARK    7  A    between atoms: C_21  and  C_22
REMARK    8  A    between atoms: C_22  and  N_23
REMARK    9  A    between atoms: N_23  and  C_24
REMARK   10  A    between atoms: C_24  and  C_25
REMARK                            x       y       z     vdW  Elec       q    Type
REMARK                         _______ _______ _______ _____ _____    ______ ____
ROOT
ATOM      1  C   UNL     1      47.393   7.924  13.276  0.00  0.00    +0.000 C 
ENDROOT
BRANCH   1   2
ATOM      2  C   UNL     1      46.374   6.928  12.773  0.00  0.00    +0.000 A 
ATOM      3  C   UNL     1      46.599   5.565  12.817  0.00  0.00    +0.000 A 
ATOM      4  N   UNL     1      45.706   4.636  12.409  0.00  0.00    +0.000 NA
ATOM      5  C   UNL     1      44.540   5.103  11.915  0.00  0.00    +0.000 A 
ATOM      6  N   UNL     1      44.236   6.407  11.785  0.00  0.00    +0.000 NA
ATOM      7  C   UNL     1      45.170   7.283  12.200  0.00  0.00    +0.000 A 
BRANCH   5   8
ATOM      8  C   UNL     1      43.446   4.100  11.587  0.00  0.00    +0.000 C 
BRANCH   8   9
ATOM      9  N   UNL     1      43.711   3.234  10.420  0.00  0.00    +0.000 NA
ATOM     10  H   UNL     1      42.820   2.803  10.158  0.00  0.00    +0.000 HD
BRANCH   9  11
ATOM     11  C   UNL     1      44.165   4.010   9.258  0.00  0.00    +0.000 C 
BRANCH  11  12
ATOM     12  C   UNL     1      45.291   3.296   8.546  0.00  0.00    +0.000 A 
ATOM     13  C   UNL     1      45.514   1.938   8.758  0.00  0.00    +0.000 A 
ATOM     14  N   UNL     1      46.469   1.238   8.102  0.00  0.00    +0.000 NA
ATOM     15  C   UNL     1      47.183   1.947   7.199  0.00  0.00    +0.000 A 
ATOM     16  C   UNL     1      46.964   3.295   6.974  0.00  0.00    +0.000 A 
ATOM     17  N   UNL     1      46.020   3.999   7.637  0.00  0.00    +0.000 NA
ENDBRANCH  11  12
ENDBRANCH   9  11
ENDBRANCH   8   9
ENDBRANCH   5   8
ENDBRANCH   1   2
BRANCH   1  18
ATOM     18  N   UNL     1      48.370   7.229  14.094  0.00  0.00    +0.000 N 
ATOM     19  C   UNL     1      48.883   7.715  15.268  0.00  0.00    +0.000 C 
ATOM     20  O   UNL     1      48.599   8.831  15.696  0.00  0.00    +0.000 OA
ATOM     21  H   UNL     1      48.583   6.273  13.830  0.00  0.00    +0.000 HD
BRANCH  19  22
ATOM     22  C   UNL     1      49.817   6.829  15.976  0.00  0.00    +0.000 A 
ATOM     23  C   UNL     1      51.149   7.190  16.129  0.00  0.00    +0.000 A 
ATOM     24  S   UNL     1      52.064   6.053  17.015  0.00  0.00    +0.000 S 
ATOM     25  C   UNL     1      50.705   5.061  17.258  0.00  0.00    +0.000 A 
ATOM     26  N   UNL     1      50.788   3.928  18.000  0.00  0.00    +0.000 NA
ATOM     27  C   UNL     1      49.675   3.280  18.123  0.00  0.00    +0.000 A 
ATOM     28  N   UNL     1      48.474   3.640  17.549  0.00  0.00    +0.000 N 
ATOM     29  C   UNL     1      47.296   2.811  17.692  0.00  0.00    +0.000 C 
ATOM     30  C   UNL     1      48.372   4.760  16.731  0.00  0.00    +0.000 A 
ATOM     31  O   UNL     1      47.350   5.023  16.106  0.00  0.00    +0.000 OA
ATOM     32  C   UNL     1      49.582   5.555  16.625  0.00  0.00    +0.000 A 
ENDBRANCH  19  22
ENDBRANCH   1  18
BRANCH   1  34
ATOM     33  C   UNL     1      49.206   7.904  11.473  0.00  0.00    +0.000 C 
ATOM     34  C   UNL     1      48.106   8.707  12.155  0.00  0.00    +0.000 C 
ENDBRANCH   1  34
TORSDOF 8
ENDMDL
MODEL 2
REMARK VINA RESULT:    -7.506      1.571      1.867
REMARK INTER + INTRA:         -12.474
REMARK INTER:                 -11.478
REMARK INTRA:                  -0.996
REMARK UNBOUND:                -1.457
REMARK  Name = 
REMARK  10 active torsions:
REMARK  status: ('A' for Active; 'I' for Inactive)
REMARK    1  A    between atoms: C_1  and  C_2
REMARK    2  A    between atoms: C_2  and  C_3
REMARK    3  A    between atoms: C_3  and  N_4
REMARK    4  A    between atoms: C_3  and  C_18
REMARK    5  A    between atoms: C_5  and  C_7
REMARK    6  A    between atoms: N_13  and  C_14
REMARK    7  A    between atoms: C_21  and  C_22
REMARK    8  A    between atoms: C_22  and  N_23
REMARK    9  A    between atoms: N_23  and  C_24
REMARK   10  A    between atoms: C_24  and  C_25
REMARK                            x       y       z     vdW  Elec       q    Type
REMARK                         _______ _______ _______ _____ _____    ______ ____
ROOT
ATOM      1  C   UNL     1      47.659   7.188  13.441  0.00  0.00    +0.000 C 
ENDROOT
BRANCH   1   2
ATOM      2  C   UNL     1      46.488   6.300  13.091  0.00  0.00    +0.000 A 
ATOM      3  C   UNL     1      45.385   6.777  12.408  0.00  0.00    +0.000 A 
ATOM      4  N   UNL     1      44.329   6.015  12.046  0.00  0.00    +0.000 NA
ATOM      5  C   UNL     1      44.378   4.715  12.405  0.00  0.00    +0.000 A 
ATOM      6  N   UNL     1      45.379   4.156  13.108  0.00  0.00    +0.000 NA
ATOM      7  C   UNL     1      46.397   4.970  13.448  0.00  0.00    +0.000 A 
BRANCH   5   8
ATOM      8  C   UNL     1      43.292   3.786  11.889  0.00  0.00    +0.000 C 
BRANCH   8   9
ATOM      9  N   UNL     1      43.647   3.003  10.688  0.00  0.00    +0.000 NA
ATOM     10  H   UNL     1      42.804   2.500  10.397  0.00  0.00    +0.000 HD
BRANCH   9  11
ATOM     11  C   UNL     1      44.030   3.870   9.566  0.00  0.00    +0.000 C 
BRANCH  11  12
ATOM     12  C   UNL     1      45.156   3.248   8.771  0.00  0.00    +0.000 A 
ATOM     13  C   UNL     1      45.429   1.888   8.877  0.00  0.00    +0.000 A 
ATOM     14  N   UNL     1      46.385   1.269   8.144  0.00  0.00    +0.000 NA
ATOM     15  C   UNL     1      47.047   2.065   7.275  0.00  0.00    +0.000 A 
ATOM     16  C   UNL     1      46.779   3.418   7.155  0.00  0.00    +0.000 A 
ATOM     17  N   UNL     1      45.834   4.040   7.896  0.00  0.00    +0.000 NA
ENDBRANCH  11  12
ENDBRANCH   9  11
ENDBRANCH   8   9
ENDBRANCH   5   8
ENDBRANCH   1   2
BRANCH   1  18
ATOM     18  N   UNL     1      47.889   7.124  14.872  0.00  0.00    +0.000 N 
ATOM     19  C   UNL     1      48.604   8.052  15.583  0.00  0.00    +0.000 C 
ATOM     20  O   UNL     1      49.174   8.996  15.042  0.00  0.00    +0.000 OA
ATOM     21  H   UNL     1      47.379   6.411  15.381  0.00  0.00    +0.000 HD
BRANCH  19  22
ATOM     22  C   UNL     1      48.670   7.838  17.035  0.00  0.00    +0.000 A 
ATOM     23  C   UNL     1      48.590   8.913  17.909  0.00  0.00    +0.000 A 
ATOM     24  S   UNL     1      48.642   8.458  19.554  0.00  0.00    +0.000 S 
ATOM     25  C   UNL     1      48.735   6.807  19.154  0.00  0.00    +0.000 A 
ATOM     26  N   UNL     1      48.755   5.853  20.119  0.00  0.00    +0.000 NA
ATOM     27  C   UNL     1      48.805   4.638  19.676  0.00  0.00    +0.000 A 
ATOM     28  N   UNL     1      48.864   4.275  18.347  0.00  0.00    +0.000 N 
ATOM     29  C   UNL     1      48.984   2.887  17.954  0.00  0.00    +0.000 C 
ATOM     30  C   UNL     1      48.911   5.232  17.339  0.00  0.00    +0.000 A 
ATOM     31  O   UNL     1      49.098   4.935  16.163  0.00  0.00    +0.000 OA
ATOM     32  C   UNL     1      48.785   6.606  17.790  0.00  0.00    +0.000 A 
ENDBRANCH  19  22
ENDBRANCH   1  18
BRANCH   1  34
ATOM     33  C   UNL     1      49.315   7.855  11.610  0.00  0.00    +0.000 C 
ATOM     34  C   UNL     1      48.956   6.836  12.683  0.00  0.00    +0.000 C 
ENDBRANCH   1  34
TORSDOF 8
ENDMDL
MODEL 3
REMARK VINA RESULT:    -6.988      1.636      2.078
REMARK INTER + INTRA:         -11.713
REMARK INTER:                 -10.814
REMARK INTRA:                  -0.899
REMARK UNBOUND:                -1.457
REMARK  Name = 
REMARK  10 active torsions:
REMARK  status: ('A' for Active; 'I' for Inactive)
REMARK    1  A    between atoms: C_1  and  C_2
REMARK    2  A    between atoms: C_2  and  C_3
REMARK    3  A    between atoms: C_3  and  N_4
REMARK    4  A    between atoms: C_3  and  C_18
REMARK    5  A    between atoms: C_5  and  C_7
REMARK    6  A    between atoms: N_13  and  C_14
REMARK    7  A    between atoms: C_21  and  C_22
REMARK    8  A    between atoms: C_22  and  N_23
REMARK    9  A    between atoms: N_23  and  C_24
REMARK   10  A    between atoms: C_24  and  C_25
REMARK                            x       y       z     vdW  Elec       q    Type
REMARK                         _______ _______ _______ _____ _____    ______ ____
ROOT
ATOM      1  C   UNL     1      45.305   7.972  12.768  0.00  0.00    +0.000 C 
ENDROOT
BRANCH   1   2
ATOM      2  C   UNL     1      44.807   6.646  12.243  0.00  0.00    +0.000 A 
ATOM      3  C   UNL     1      44.681   6.394  10.890  0.00  0.00    +0.000 A 
ATOM      4  N   UNL     1      44.271   5.214  10.374  0.00  0.00    +0.000 NA
ATOM      5  C   UNL     1      43.953   4.250  11.262  0.00  0.00    +0.000 A 
ATOM      6  N   UNL     1      43.995   4.401  12.598  0.00  0.00    +0.000 NA
ATOM      7  C   UNL     1      44.402   5.602  13.051  0.00  0.00    +0.000 A 
BRANCH   5   8
ATOM      8  C   UNL     1      43.635   2.861  10.732  0.00  0.00    +0.000 C 
BRANCH   8   9
ATOM      9  N   UNL     1      44.803   2.067  10.300  0.00  0.00    +0.000 NA
ATOM     10  H   UNL     1      44.825   1.224  10.882  0.00  0.00    +0.000 HD
BRANCH   9  11
ATOM     11  C   UNL     1      44.670   1.616   8.907  0.00  0.00    +0.000 C 
BRANCH  11  12
ATOM     12  C   UNL     1      45.911   1.959   8.115  0.00  0.00    +0.000 A 
ATOM     13  C   UNL     1      46.788   0.958   7.706  0.00  0.00    +0.000 A 
ATOM     14  N   UNL     1      47.880   1.203   6.944  0.00  0.00    +0.000 NA
ATOM     15  C   UNL     1      48.052   2.494   6.585  0.00  0.00    +0.000 A 
ATOM     16  C   UNL     1      47.182   3.497   6.979  0.00  0.00    +0.000 A 
ATOM     17  N   UNL     1      46.098   3.257   7.750  0.00  0.00    +0.000 NA
ENDBRANCH  11  12
ENDBRANCH   9  11
ENDBRANCH   8   9
ENDBRANCH   5   8
ENDBRANCH   1   2
BRANCH   1  18
ATOM     18  N   UNL     1      46.406   7.734  13.683  0.00  0.00    +0.000 N 
ATOM     19  C   UNL     1      47.623   7.225  13.314  0.00  0.00    +0.000 C 
ATOM     20  O   UNL     1      47.861   6.858  12.166  0.00  0.00    +0.000 OA
ATOM     21  H   UNL     1      46.295   8.089  14.626  0.00  0.00    +0.000 HD
BRANCH  19  22
ATOM     22  C   UNL     1      48.626   7.118  14.382  0.00  0.00    +0.000 A 
ATOM     23  C   UNL     1      49.677   8.021  14.454  0.00  0.00    +0.000 A 
ATOM     24  S   UNL     1      50.711   7.760  15.787  0.00  0.00    +0.000 S 
ATOM     25  C   UNL     1      49.768   6.454  16.336  0.00  0.00    +0.000 A 
ATOM     26  N   UNL     1      50.075   5.802  17.485  0.00  0.00    +0.000 NA
ATOM     27  C   UNL     1      49.263   4.845  17.797  0.00  0.00    +0.000 A 
ATOM     28  N   UNL     1      48.172   4.450  17.052  0.00  0.00    +0.000 N 
ATOM     29  C   UNL     1      47.359   3.321  17.453  0.00  0.00    +0.000 C 
ATOM     30  C   UNL     1      47.868   5.056  15.838  0.00  0.00    +0.000 A 
ATOM     31  O   UNL     1      46.986   4.635  15.098  0.00  0.00    +0.000 OA
ATOM     32  C   UNL     1      48.714   6.183  15.486  0.00  0.00    +0.000 A 
ENDBRANCH  19  22
ENDBRANCH   1  18
BRANCH   1  34
ATOM     33  C   UNL     1      45.880  10.388  12.159  0.00  0.00    +0.000 C 
ATOM     34  C   UNL     1      45.743   8.956  11.663  0.00  0.00    +0.000 C 
ENDBRANCH   1  34
TORSDOF 8
ENDMDL
MODEL 4
REMARK VINA RESULT:    -6.719      1.608      1.869
REMARK INTER + INTRA:         -11.318
REMARK INTER:                 -10.100
REMARK INTRA:                  -1.217
REMARK UNBOUND:                -1.457
REMARK  Name = 
REMARK  10 active torsions:
REMARK  status: ('A' for Active; 'I' for Inactive)
REMARK    1  A    between atoms: C_1  and  C_2
REMARK    2  A    between atoms: C_2  and  C_3
REMARK    3  A    between atoms: C_3  and  N_4
REMARK    4  A    between atoms: C_3  and  C_18
REMARK    5  A    between atoms: C_5  and  C_7
REMARK    6  A    between atoms: N_13  and  C_14
REMARK    7  A    between atoms: C_21  and  C_22
REMARK    8  A    between atoms: C_22  and  N_23
REMARK    9  A    between atoms: N_23  and  C_24
REMARK   10  A    between atoms: C_24  and  C_25
REMARK                            x       y       z     vdW  Elec       q    Type
REMARK                         _______ _______ _______ _____ _____    ______ ____
ROOT
ATOM      1  C   UNL     1      48.573   7.859  13.822  0.00  0.00    +0.000 C 
ENDROOT
BRANCH   1   2
ATOM      2  C   UNL     1      47.422   6.988  13.378  0.00  0.00    +0.000 A 
ATOM      3  C   UNL     1      47.563   5.626  13.193  0.00  0.00    +0.000 A 
ATOM      4  N   UNL     1      46.555   4.802  12.828  0.00  0.00    +0.000 NA
ATOM      5  C   UNL     1      45.354   5.380  12.620  0.00  0.00    +0.000 A 
ATOM      6  N   UNL     1      45.116   6.700  12.727  0.00  0.00    +0.000 NA
ATOM      7  C   UNL     1      46.162   7.469  13.084  0.00  0.00    +0.000 A 
BRANCH   5   8
ATOM      8  C   UNL     1      44.158   4.480  12.359  0.00  0.00    +0.000 C 
BRANCH   8   9
ATOM      9  N   UNL     1      44.483   3.114  11.902  0.00  0.00    +0.000 NA
ATOM     10  H   UNL     1      44.117   2.466  12.606  0.00  0.00    +0.000 HD
BRANCH   9  11
ATOM     11  C   UNL     1      43.810   2.788  10.637  0.00  0.00    +0.000 C 
BRANCH  11  12
ATOM     12  C   UNL     1      44.750   2.977   9.468  0.00  0.00    +0.000 A 
ATOM     13  C   UNL     1      45.023   4.251   8.978  0.00  0.00    +0.000 A 
ATOM     14  N   UNL     1      45.902   4.480   7.974  0.00  0.00    +0.000 NA
ATOM     15  C   UNL     1      46.521   3.381   7.490  0.00  0.00    +0.000 A 
ATOM     16  C   UNL     1      46.263   2.110   7.974  0.00  0.00    +0.000 A 
ATOM     17  N   UNL     1      45.376   1.877   8.968  0.00  0.00    +0.000 NA
ENDBRANCH  11  12
ENDBRANCH   9  11
ENDBRANCH   8   9
ENDBRANCH   5   8
ENDBRANCH   1   2
BRANCH   1  18
ATOM     18  N   UNL     1      48.933   7.509  15.184  0.00  0.00    +0.000 N 
ATOM     19  C   UNL     1      48.591   8.245  16.288  0.00  0.00    +0.000 C 
ATOM     20  O   UNL     1      47.997   9.317  16.205  0.00  0.00    +0.000 OA
ATOM     21  H   UNL     1      49.355   6.597  15.320  0.00  0.00    +0.000 HD
BRANCH  19  22
ATOM     22  C   UNL     1      49.000   7.687  17.584  0.00  0.00    +0.000 A 
ATOM     23  C   UNL     1      49.609   8.493  18.536  0.00  0.00    +0.000 A 
ATOM     24  S   UNL     1      49.970   7.675  19.990  0.00  0.00    +0.000 S 
ATOM     25  C   UNL     1      49.292   6.226  19.412  0.00  0.00    +0.000 A 
ATOM     26  N   UNL     1      49.227   5.121  20.196  0.00  0.00    +0.000 NA
ATOM     27  C   UNL     1      48.667   4.096  19.639  0.00  0.00    +0.000 A 
ATOM     28  N   UNL     1      48.179   4.055  18.350  0.00  0.00    +0.000 N 
ATOM     29  C   UNL     1      47.628   2.837  17.795  0.00  0.00    +0.000 C 
ATOM     30  C   UNL     1      48.290   5.151  17.501  0.00  0.00    +0.000 A 
ATOM     31  O   UNL     1      47.986   5.094  16.314  0.00  0.00    +0.000 OA
ATOM     32  C   UNL     1      48.849   6.345  18.110  0.00  0.00    +0.000 A 
ENDBRANCH  19  22
ENDBRANCH   1  18
BRANCH   1  34
ATOM     33  C   UNL     1      49.536   8.197  11.477  0.00  0.00    +0.000 C 
ATOM     34  C   UNL     1      49.815   7.765  12.910  0.00  0.00    +0.000 C 
ENDBRANCH   1  34
TORSDOF 8
ENDMDL
MODEL 5
REMARK VINA RESULT:    -6.335      2.925      3.673
REMARK INTER + INTRA:         -10.754
REMARK INTER:                 -10.111
REMARK INTRA:                  -0.643
REMARK UNBOUND:                -1.457
REMARK  Name = 
REMARK  10 active torsions:
REMARK  status: ('A' for Active; 'I' for Inactive)
REMARK    1  A    between atoms: C_1  and  C_2
REMARK    2  A    between atoms: C_2  and  C_3
REMARK    3  A    between atoms: C_3  and  N_4
REMARK    4  A    between atoms: C_3  and  C_18
REMARK    5  A    between atoms: C_5  and  C_7
REMARK    6  A    between atoms: N_13  and  C_14
REMARK    7  A    between atoms: C_21  and  C_22
REMARK    8  A    between atoms: C_22  and  N_23
REMARK    9  A    between atoms: N_23  and  C_24
REMARK   10  A    between atoms: C_24  and  C_25
REMARK                            x       y       z     vdW  Elec       q    Type
REMARK                         _______ _______ _______ _____ _____    ______ ____
ROOT
ATOM      1  C   UNL     1      45.674   8.412  12.829  0.00  0.00    +0.000 C 
ENDROOT
BRANCH   1   2
ATOM      2  C   UNL     1      45.177   7.106  12.257  0.00  0.00    +0.000 A 
ATOM      3  C   UNL     1      45.708   6.561  11.104  0.00  0.00    +0.000 A 
ATOM      4  N   UNL     1      45.318   5.381  10.573  0.00  0.00    +0.000 NA
ATOM      5  C   UNL     1      44.332   4.729  11.223  0.00  0.00    +0.000 A 
ATOM      6  N   UNL     1      43.713   5.188  12.326  0.00  0.00    +0.000 NA
ATOM      7  C   UNL     1      44.140   6.374  12.801  0.00  0.00    +0.000 A 
BRANCH   5   8
ATOM      8  C   UNL     1      43.965   3.330  10.755  0.00  0.00    +0.000 C 
BRANCH   8   9
ATOM      9  N   UNL     1      45.103   2.482  10.346  0.00  0.00    +0.000 NA
ATOM     10  H   UNL     1      45.211   1.758  11.062  0.00  0.00    +0.000 HD
BRANCH   9  11
ATOM     11  C   UNL     1      44.836   1.787   9.079  0.00  0.00    +0.000 C 
BRANCH  11  12
ATOM     12  C   UNL     1      45.956   2.026   8.093  0.00  0.00    +0.000 A 
ATOM     13  C   UNL     1      46.808   0.988   7.724  0.00  0.00    +0.000 A 
ATOM     14  N   UNL     1      47.788   1.133   6.801  0.00  0.00    +0.000 NA
ATOM     15  C   UNL     1      47.870   2.359   6.239  0.00  0.00    +0.000 A 
ATOM     16  C   UNL     1      47.024   3.396   6.591  0.00  0.00    +0.000 A 
ATOM     17  N   UNL     1      46.053   3.257   7.522  0.00  0.00    +0.000 NA
ENDBRANCH  11  12
ENDBRANCH   9  11
ENDBRANCH   8   9
ENDBRANCH   5   8
ENDBRANCH   1   2
BRANCH   1  18
ATOM     18  N   UNL     1      47.086   8.554  12.525  0.00  0.00    +0.000 N 
ATOM     19  C   UNL     1      48.074   8.659  13.470  0.00  0.00    +0.000 C 
ATOM     20  O   UNL     1      47.830   8.711  14.672  0.00  0.00    +0.000 OA
ATOM     21  H   UNL     1      47.354   8.441  11.554  0.00  0.00    +0.000 HD
BRANCH  19  22
ATOM     22  C   UNL     1      49.448   8.734  12.956  0.00  0.00    +0.000 A 
ATOM     23  C   UNL     1      49.703   9.275  11.703  0.00  0.00    +0.000 A 
ATOM     24  S   UNL     1      51.361   9.314  11.302  0.00  0.00    +0.000 S 
ATOM     25  C   UNL     1      51.799   8.646  12.804  0.00  0.00    +0.000 A 
ATOM     26  N   UNL     1      53.102   8.461  13.136  0.00  0.00    +0.000 NA
ATOM     27  C   UNL     1      53.294   7.965  14.315  0.00  0.00    +0.000 A 
ATOM     28  N   UNL     1      52.301   7.607  15.202  0.00  0.00    +0.000 N 
ATOM     29  C   UNL     1      52.617   6.998  16.476  0.00  0.00    +0.000 C 
ATOM     30  C   UNL     1      50.956   7.724  14.866  0.00  0.00    +0.000 A 
ATOM     31  O   UNL     1      50.062   7.288  15.583  0.00  0.00    +0.000 OA
ATOM     32  C   UNL     1      50.697   8.342  13.577  0.00  0.00    +0.000 A 
ENDBRANCH  19  22
ENDBRANCH   1  18
BRANCH   1  34
ATOM     33  C   UNL     1      45.794  10.666  11.625  0.00  0.00    +0.000 C 
ATOM     34  C   UNL     1      44.901   9.649  12.324  0.00  0.00    +0.000 C 
ENDBRANCH   1  34
TORSDOF 8
ENDMDL
MODEL 6
REMARK VINA RESULT:    -6.141      3.647      5.938
REMARK INTER + INTRA:         -10.471
REMARK INTER:                  -9.531
REMARK INTRA:                  -0.939
REMARK UNBOUND:                -1.457
REMARK  Name = 
REMARK  10 active torsions:
REMARK  status: ('A' for Active; 'I' for Inactive)
REMARK    1  A    between atoms: C_1  and  C_2
REMARK    2  A    between atoms: C_2  and  C_3
REMARK    3  A    between atoms: C_3  and  N_4
REMARK    4  A    between atoms: C_3  and  C_18
REMARK    5  A    between atoms: C_5  and  C_7
REMARK    6  A    between atoms: N_13  and  C_14
REMARK    7  A    between atoms: C_21  and  C_22
REMARK    8  A    between atoms: C_22  and  N_23
REMARK    9  A    between atoms: N_23  and  C_24
REMARK   10  A    between atoms: C_24  and  C_25
REMARK                            x       y       z     vdW  Elec       q    Type
REMARK                         _______ _______ _______ _____ _____    ______ ____
ROOT
ATOM      1  C   UNL     1      48.948   7.133  13.554  0.00  0.00    +0.000 C 
ENDROOT
BRANCH   1   2
ATOM      2  C   UNL     1      47.755   6.404  12.983  0.00  0.00    +0.000 A 
ATOM      3  C   UNL     1      47.119   6.828  11.832  0.00  0.00    +0.000 A 
ATOM      4  N   UNL     1      46.070   6.191  11.267  0.00  0.00    +0.000 NA
ATOM      5  C   UNL     1      45.628   5.085  11.902  0.00  0.00    +0.000 A 
ATOM      6  N   UNL     1      46.142   4.609  13.050  0.00  0.00    +0.000 NA
ATOM      7  C   UNL     1      47.179   5.294  13.569  0.00  0.00    +0.000 A 
BRANCH   5   8
ATOM      8  C   UNL     1      44.554   4.249  11.226  0.00  0.00    +0.000 C 
BRANCH   8   9
ATOM      9  N   UNL     1      44.943   2.862  10.901  0.00  0.00    +0.000 NA
ATOM     10  H   UNL     1      44.537   2.259  11.623  0.00  0.00    +0.000 HD
BRANCH   9  11
ATOM     11  C   UNL     1      44.377   2.424   9.617  0.00  0.00    +0.000 C 
BRANCH  11  12
ATOM     12  C   UNL     1      45.449   2.372   8.552  0.00  0.00    +0.000 A 
ATOM     13  C   UNL     1      45.806   3.519   7.850  0.00  0.00    +0.000 A 
ATOM     14  N   UNL     1      46.799   3.541   6.930  0.00  0.00    +0.000 NA
ATOM     15  C   UNL     1      47.444   2.366   6.754  0.00  0.00    +0.000 A 
ATOM     16  C   UNL     1      47.104   1.220   7.453  0.00  0.00    +0.000 A 
ATOM     17  N   UNL     1      46.104   1.194   8.362  0.00  0.00    +0.000 NA
ENDBRANCH  11  12
ENDBRANCH   9  11
ENDBRANCH   8   9
ENDBRANCH   5   8
ENDBRANCH   1   2
BRANCH   1  18
ATOM     18  N   UNL     1      49.466   8.048  12.554  0.00  0.00    +0.000 N 
ATOM     19  C   UNL     1      50.759   8.501  12.516  0.00  0.00    +0.000 C 
ATOM     20  O   UNL     1      51.581   8.214  13.381  0.00  0.00    +0.000 OA
ATOM     21  H   UNL     1      48.855   8.257  11.773  0.00  0.00    +0.000 HD
BRANCH  19  22
ATOM     22  C   UNL     1      51.099   9.375  11.385  0.00  0.00    +0.000 A 
ATOM     23  C   UNL     1      50.526  10.635  11.272  0.00  0.00    +0.000 A 
ATOM     24  S   UNL     1      51.078  11.516   9.918  0.00  0.00    +0.000 S 
ATOM     25  C   UNL     1      52.131  10.261   9.459  0.00  0.00    +0.000 A 
ATOM     26  N   UNL     1      52.954  10.394   8.389  0.00  0.00    +0.000 NA
ATOM     27  C   UNL     1      53.718   9.374   8.164  0.00  0.00    +0.000 A 
ATOM     28  N   UNL     1      53.725   8.206   8.897  0.00  0.00    +0.000 N 
ATOM     29  C   UNL     1      54.572   7.092   8.526  0.00  0.00    +0.000 C 
ATOM     30  C   UNL     1      52.848   8.015   9.959  0.00  0.00    +0.000 A 
ATOM     31  O   UNL     1      52.744   6.938  10.537  0.00  0.00    +0.000 OA
ATOM     32  C   UNL     1      52.022   9.163  10.288  0.00  0.00    +0.000 A 
ENDBRANCH  19  22
ENDBRANCH   1  18
BRANCH   1  34
ATOM     33  C   UNL     1      49.106   7.155  16.107  0.00  0.00    +0.000 C 
ATOM     34  C   UNL     1      48.645   7.898  14.860  0.00  0.00    +0.000 C 
ENDBRANCH   1  34
TORSDOF 8
ENDMDL
MODEL 7
REMARK VINA RESULT:    -5.831      3.014      8.639
REMARK INTER + INTRA:         -10.014
REMARK INTER:                  -8.468
REMARK INTRA:                  -1.547
REMARK UNBOUND:                -1.457
REMARK  Name = 
REMARK  10 active torsions:
REMARK  status: ('A' for Active; 'I' for Inactive)
REMARK    1  A    between atoms: C_1  and  C_2
REMARK    2  A    between atoms: C_2  and  C_3
REMARK    3  A    between atoms: C_3  and  N_4
REMARK    4  A    between atoms: C_3  and  C_18
REMARK    5  A    between atoms: C_5  and  C_7
REMARK    6  A    between atoms: N_13  and  C_14
REMARK    7  A    between atoms: C_21  and  C_22
REMARK    8  A    between atoms: C_22  and  N_23
REMARK    9  A    between atoms: N_23  and  C_24
REMARK   10  A    between atoms: C_24  and  C_25
REMARK                            x       y       z     vdW  Elec       q    Type
REMARK                         _______ _______ _______ _____ _____    ______ ____
ROOT
ATOM      1  C   UNL     1      49.012   6.776  17.634  0.00  0.00    +0.000 C 
ENDROOT
BRANCH   1   2
ATOM      2  C   UNL     1      49.514   5.354  17.539  0.00  0.00    +0.000 A 
ATOM      3  C   UNL     1      48.662   4.270  17.619  0.00  0.00    +0.000 A 
ATOM      4  N   UNL     1      49.059   2.983  17.508  0.00  0.00    +0.000 NA
ATOM      5  C   UNL     1      50.381   2.778  17.327  0.00  0.00    +0.000 A 
ATOM      6  N   UNL     1      51.303   3.756  17.280  0.00  0.00    +0.000 NA
ATOM      7  C   UNL     1      50.846   5.016  17.407  0.00  0.00    +0.000 A 
BRANCH   5   8
ATOM      8  C   UNL     1      50.856   1.363  17.043  0.00  0.00    +0.000 C 
BRANCH   8   9
ATOM      9  N   UNL     1      51.668   0.742  18.109  0.00  0.00    +0.000 NA
ATOM     10  H   UNL     1      51.279  -0.190  18.280  0.00  0.00    +0.000 HD
BRANCH   9  11
ATOM     11  C   UNL     1      53.063   0.548  17.688  0.00  0.00    +0.000 C 
BRANCH  11  12
ATOM     12  C   UNL     1      53.938   1.664  18.210  0.00  0.00    +0.000 A 
ATOM     13  C   UNL     1      54.703   2.431  17.336  0.00  0.00    +0.000 A 
ATOM     14  N   UNL     1      55.457   3.480  17.744  0.00  0.00    +0.000 NA
ATOM     15  C   UNL     1      55.397   3.750  19.067  0.00  0.00    +0.000 A 
ATOM     16  C   UNL     1      54.634   2.999  19.945  0.00  0.00    +0.000 A 
ATOM     17  N   UNL     1      53.891   1.944  19.542  0.00  0.00    +0.000 NA
ENDBRANCH  11  12
ENDBRANCH   9  11
ENDBRANCH   8   9
ENDBRANCH   5   8
ENDBRANCH   1   2
BRANCH   1  18
ATOM     18  N   UNL     1      48.277   7.100  16.425  0.00  0.00    +0.000 N 
ATOM     19  C   UNL     1      48.861   7.438  15.232  0.00  0.00    +0.000 C 
ATOM     20  O   UNL     1      50.077   7.561  15.107  0.00  0.00    +0.000 OA
ATOM     21  H   UNL     1      47.276   6.941  16.448  0.00  0.00    +0.000 HD
BRANCH  19  22
ATOM     22  C   UNL     1      47.941   7.671  14.111  0.00  0.00    +0.000 A 
ATOM     23  C   UNL     1      47.792   8.944  13.576  0.00  0.00    +0.000 A 
ATOM     24  S   UNL     1      46.714   9.005  12.254  0.00  0.00    +0.000 S 
ATOM     25  C   UNL     1      46.438   7.328  12.327  0.00  0.00    +0.000 A 
ATOM     26  N   UNL     1      45.638   6.710  11.422  0.00  0.00    +0.000 NA
ATOM     27  C   UNL     1      45.534   5.430  11.579  0.00  0.00    +0.000 A 
ATOM     28  N   UNL     1      46.137   4.696  12.579  0.00  0.00    +0.000 N 
ATOM     29  C   UNL     1      45.905   3.273  12.710  0.00  0.00    +0.000 C 
ATOM     30  C   UNL     1      46.910   5.310  13.558  0.00  0.00    +0.000 A 
ATOM     31  O   UNL     1      47.344   4.699  14.529  0.00  0.00    +0.000 OA
ATOM     32  C   UNL     1      47.111   6.737  13.377  0.00  0.00    +0.000 A 
ENDBRANCH  19  22
ENDBRANCH   1  18
BRANCH   1  34
ATOM     33  C   UNL     1      48.936   7.175  20.159  0.00  0.00    +0.000 C 
ATOM     34  C   UNL     1      48.132   7.045  18.873  0.00  0.00    +0.000 C 
ENDBRANCH   1  34
TORSDOF 8
ENDMDL
MODEL 8
REMARK VINA RESULT:    -5.617      3.306      6.153
REMARK INTER + INTRA:          -9.700
REMARK INTER:                  -7.886
REMARK INTRA:                  -1.815
REMARK UNBOUND:                -1.457
REMARK  Name = 
REMARK  10 active torsions:
REMARK  status: ('A' for Active; 'I' for Inactive)
REMARK    1  A    between atoms: C_1  and  C_2
REMARK    2  A    between atoms: C_2  and  C_3
REMARK    3  A    between atoms: C_3  and  N_4
REMARK    4  A    between atoms: C_3  and  C_18
REMARK    5  A    between atoms: C_5  and  C_7
REMARK    6  A    between atoms: N_13  and  C_14
REMARK    7  A    between atoms: C_21  and  C_22
REMARK    8  A    between atoms: C_22  and  N_23
REMARK    9  A    between atoms: N_23  and  C_24
REMARK   10  A    between atoms: C_24  and  C_25
REMARK                            x       y       z     vdW  Elec       q    Type
REMARK                         _______ _______ _______ _____ _____    ______ ____
ROOT
ATOM      1  C   UNL     1      45.866   5.358  13.195  0.00  0.00    +0.000 C 
ENDROOT
BRANCH   1   2
ATOM      2  C   UNL     1      46.195   6.753  12.720  0.00  0.00    +0.000 A 
ATOM      3  C   UNL     1      45.285   7.790  12.805  0.00  0.00    +0.000 A 
ATOM      4  N   UNL     1      45.545   9.060  12.422  0.00  0.00    +0.000 NA
ATOM      5  C   UNL     1      46.773   9.293  11.913  0.00  0.00    +0.000 A 
ATOM      6  N   UNL     1      47.718   8.351  11.744  0.00  0.00    +0.000 NA
ATOM      7  C   UNL     1      47.395   7.103  12.134  0.00  0.00    +0.000 A 
BRANCH   5   8
ATOM      8  C   UNL     1      47.165  10.730  11.613  0.00  0.00    +0.000 C 
BRANCH   8   9
ATOM      9  N   UNL     1      48.558  10.924  11.162  0.00  0.00    +0.000 NA
ATOM     10  H   UNL     1      48.543  11.659  10.449  0.00  0.00    +0.000 HD
BRANCH   9  11
ATOM     11  C   UNL     1      49.421  11.405  12.250  0.00  0.00    +0.000 C 
BRANCH  11  12
ATOM     12  C   UNL     1      50.563  10.445  12.489  0.00  0.00    +0.000 A 
ATOM     13  C   UNL     1      51.164  10.358  13.742  0.00  0.00    +0.000 A 
ATOM     14  N   UNL     1      52.149   9.474  14.026  0.00  0.00    +0.000 NA
ATOM     15  C   UNL     1      52.498   8.656  13.008  0.00  0.00    +0.000 A 
ATOM     16  C   UNL     1      51.902   8.728  11.761  0.00  0.00    +0.000 A 
ATOM     17  N   UNL     1      50.928   9.619  11.471  0.00  0.00    +0.000 NA
ENDBRANCH  11  12
ENDBRANCH   9  11
ENDBRANCH   8   9
ENDBRANCH   5   8
ENDBRANCH   1   2
BRANCH   1  18
ATOM     18  N   UNL     1      46.416   5.169  14.525  0.00  0.00    +0.000 N 
ATOM     19  C   UNL     1      47.181   4.097  14.901  0.00  0.00    +0.000 C 
ATOM     20  O   UNL     1      47.412   3.157  14.145  0.00  0.00    +0.000 OA
ATOM     21  H   UNL     1      46.322   5.948  15.168  0.00  0.00    +0.000 HD
BRANCH  19  22
ATOM     22  C   UNL     1      47.692   4.123  16.278  0.00  0.00    +0.000 A 
ATOM     23  C   UNL     1      47.469   3.051  17.132  0.00  0.00    +0.000 A 
ATOM     24  S   UNL     1      48.176   3.250  18.673  0.00  0.00    +0.000 S 
ATOM     25  C   UNL     1      48.836   4.757  18.240  0.00  0.00    +0.000 A 
ATOM     26  N   UNL     1      49.617   5.454  19.103  0.00  0.00    +0.000 NA
ATOM     27  C   UNL     1      50.071   6.573  18.638  0.00  0.00    +0.000 A 
ATOM     28  N   UNL     1      49.799   7.086  17.388  0.00  0.00    +0.000 N 
ATOM     29  C   UNL     1      50.303   8.382  16.983  0.00  0.00    +0.000 C 
ATOM     30  C   UNL     1      48.950   6.427  16.505  0.00  0.00    +0.000 A 
ATOM     31  O   UNL     1      48.590   6.928  15.446  0.00  0.00    +0.000 OA
ATOM     32  C   UNL     1      48.476   5.132  16.962  0.00  0.00    +0.000 A 
ENDBRANCH  19  22
ENDBRANCH   1  18
BRANCH   1  34
ATOM     33  C   UNL     1      44.020   3.727  12.508  0.00  0.00    +0.000 C 
ATOM     34  C   UNL     1      44.356   5.040  13.201  0.00  0.00    +0.000 C 
ENDBRANCH   1  34
TORSDOF 8
ENDMDL
MODEL 9
REMARK VINA RESULT:    -5.538      3.741      8.507
REMARK INTER + INTRA:          -9.585
REMARK INTER:                  -8.535
REMARK INTRA:                  -1.050
REMARK UNBOUND:                -1.457
REMARK  Name = 
REMARK  10 active torsions:
REMARK  status: ('A' for Active; 'I' for Inactive)
REMARK    1  A    between atoms: C_1  and  C_2
REMARK    2  A    between atoms: C_2  and  C_3
REMARK    3  A    between atoms: C_3  and  N_4
REMARK    4  A    between atoms: C_3  and  C_18
REMARK    5  A    between atoms: C_5  and  C_7
REMARK    6  A    between atoms: N_13  and  C_14
REMARK    7  A    between atoms: C_21  and  C_22
REMARK    8  A    between atoms: C_22  and  N_23
REMARK    9  A    between atoms: N_23  and  C_24
REMARK   10  A    between atoms: C_24  and  C_25
REMARK                            x       y       z     vdW  Elec       q    Type
REMARK                         _______ _______ _______ _____ _____    ______ ____
ROOT
ATOM      1  C   UNL     1      48.907   6.612  17.744  0.00  0.00    +0.000 C 
ENDROOT
BRANCH   1   2
ATOM      2  C   UNL     1      49.487   5.222  17.633  0.00  0.00    +0.000 A 
ATOM      3  C   UNL     1      48.690   4.106  17.460  0.00  0.00    +0.000 A 
ATOM      4  N   UNL     1      49.165   2.849  17.324  0.00  0.00    +0.000 NA
ATOM      5  C   UNL     1      50.506   2.705  17.384  0.00  0.00    +0.000 A 
ATOM      6  N   UNL     1      51.371   3.713  17.594  0.00  0.00    +0.000 NA
ATOM      7  C   UNL     1      50.835   4.942  17.732  0.00  0.00    +0.000 A 
BRANCH   5   8
ATOM      8  C   UNL     1      51.096   1.337  17.084  0.00  0.00    +0.000 C 
BRANCH   8   9
ATOM      9  N   UNL     1      51.959   0.775  18.142  0.00  0.00    +0.000 NA
ATOM     10  H   UNL     1      51.836  -0.242  18.121  0.00  0.00    +0.000 HD
BRANCH   9  11
ATOM     11  C   UNL     1      53.382   1.034  17.879  0.00  0.00    +0.000 C 
BRANCH  11  12
ATOM     12  C   UNL     1      54.109  -0.253  17.563  0.00  0.00    +0.000 A 
ATOM     13  C   UNL     1      54.233  -1.250  18.526  0.00  0.00    +0.000 A 
ATOM     14  N   UNL     1      54.821  -2.445  18.278  0.00  0.00    +0.000 NA
ATOM     15  C   UNL     1      55.263  -2.615  17.012  0.00  0.00    +0.000 A 
ATOM     16  C   UNL     1      55.138  -1.633  16.043  0.00  0.00    +0.000 A 
ATOM     17  N   UNL     1      54.563  -0.435  16.293  0.00  0.00    +0.000 NA
ENDBRANCH  11  12
ENDBRANCH   9  11
ENDBRANCH   8   9
ENDBRANCH   5   8
ENDBRANCH   1   2
BRANCH   1  18
ATOM     18  N   UNL     1      48.263   6.957  16.490  0.00  0.00    +0.000 N 
ATOM     19  C   UNL     1      48.933   7.255  15.333  0.00  0.00    +0.000 C 
ATOM     20  O   UNL     1      50.158   7.319  15.281  0.00  0.00    +0.000 OA
ATOM     21  H   UNL     1      47.256   6.845  16.453  0.00  0.00    +0.000 HD
BRANCH  19  22
ATOM     22  C   UNL     1      48.095   7.519  14.155  0.00  0.00    +0.000 A 
ATOM     23  C   UNL     1      48.067   8.783  13.581  0.00  0.00    +0.000 A 
ATOM     24  S   UNL     1      47.070   8.881  12.199  0.00  0.00    +0.000 S 
ATOM     25  C   UNL     1      46.672   7.230  12.298  0.00  0.00    +0.000 A 
ATOM     26  N   UNL     1      45.880   6.643  11.365  0.00  0.00    +0.000 NA
ATOM     27  C   UNL     1      45.676   5.378  11.548  0.00  0.00    +0.000 A 
ATOM     28  N   UNL     1      46.170   4.634  12.598  0.00  0.00    +0.000 N 
ATOM     29  C   UNL     1      45.830   3.235  12.752  0.00  0.00    +0.000 C 
ATOM     30  C   UNL     1      46.930   5.221  13.604  0.00  0.00    +0.000 A 
ATOM     31  O   UNL     1      47.266   4.609  14.613  0.00  0.00    +0.000 OA
ATOM     32  C   UNL     1      47.242   6.624  13.399  0.00  0.00    +0.000 A 
ENDBRANCH  19  22
ENDBRANCH   1  18
BRANCH   1  34
ATOM     33  C   UNL     1      48.542   6.538  20.274  0.00  0.00    +0.000 C 
ATOM     34  C   UNL     1      47.910   6.780  18.910  0.00  0.00    +0.000 C 
ENDBRANCH   1  34
TORSDOF 8
ENDMDL
