MODEL 1
REMARK VINA RESULT:    -6.733      0.000      0.000
REMARK INTER + INTRA:         -11.134
REMARK INTER:                  -9.882
REMARK INTRA:                  -1.252
REMARK UNBOUND:                -1.252
REMARK  Name = 
REMARK  10 active torsions:
REMARK  status: ('A' for Active; 'I' for Inactive)
REMARK    1  A    between atoms: C_1  and  O_2
REMARK    2  A    between atoms: O_2  and  C_3
REMARK    3  A    between atoms: C_10  and  C_11
REMARK    4  A    between atoms: N_13  and  C_14
REMARK    5  A    between atoms: C_14  and  C_15
REMARK    6  A    between atoms: C_18  and  N_19
REMARK    7  A    between atoms: N_19  and  C_20
REMARK    8  A    between atoms: C_20  and  C_21
REMARK    9  A    between atoms: C_21  and  C_22
REMARK   10  A    between atoms: N_25  and  C_26
REMARK                            x       y       z     vdW  Elec       q    Type
REMARK                         _______ _______ _______ _____ _____    ______ ____
ROOT
ATOM      1  C   UNL     1      47.456   6.289  13.622  0.00  0.00    +0.000 A 
ATOM      2  C   UNL     1      46.919   6.934  12.504  0.00  0.00    +0.000 A 
ATOM      3  C   UNL     1      45.812   6.400  11.844  0.00  0.00    +0.000 A 
ATOM      4  C   UNL     1      45.234   5.196  12.260  0.00  0.00    +0.000 A 
ATOM      5  C   UNL     1      45.750   4.578  13.403  0.00  0.00    +0.000 A 
ATOM      6  C   UNL     1      46.854   5.110  14.074  0.00  0.00    +0.000 A 
ENDROOT
BRANCH   4   7
ATOM      7  N   UNL     1      44.096   4.650  11.642  0.00  0.00    +0.000 N 
ATOM      8  H   UNL     1      43.252   4.910  12.146  0.00  0.00    +0.000 HD
BRANCH   7   9
ATOM      9  C   UNL     1      44.156   3.223  11.316  0.00  0.00    +0.000 C 
BRANCH   9  10
ATOM     10  C   UNL     1      45.152   3.006  10.181  0.00  0.00    +0.000 C 
BRANCH  10  11
ATOM     11  C   UNL     1      44.502   2.602   8.841  0.00  0.00    +0.000 C 
ATOM     12  C   UNL     1      45.007   1.219   8.404  0.00  0.00    +0.000 C 
ATOM     13  C   UNL     1      46.488   1.254   8.009  0.00  0.00    +0.000 C 
ATOM     14  N   UNL     1      46.771   2.258   6.975  0.00  0.00    +0.000 NA
ATOM     15  C   UNL     1      48.213   2.326   6.724  0.00  0.00    +0.000 C 
ATOM     16  C   UNL     1      46.260   3.597   7.302  0.00  0.00    +0.000 C 
ATOM     17  C   UNL     1      44.779   3.572   7.683  0.00  0.00    +0.000 C 
ENDBRANCH  10  11
ENDBRANCH   9  10
ENDBRANCH   7   9
ENDBRANCH   4   7
BRANCH   1  18
ATOM     18  C   UNL     1      48.591   6.912  14.384  0.00  0.00    +0.000 C 
BRANCH  18  21
ATOM     19  C   UNL     1      49.185   6.478  16.716  0.00  0.00    +0.000 C 
ATOM     20  O   UNL     1      50.219   5.905  16.383  0.00  0.00    +0.000 OA
ATOM     21  N   UNL     1      48.287   6.937  15.792  0.00  0.00    +0.000 N 
ATOM     22  H   UNL     1      47.517   7.519  16.100  0.00  0.00    +0.000 HD
BRANCH  19  30
ATOM     23  C   UNL     1      47.759   9.056  18.401  0.00  0.00    +0.000 A 
ATOM     24  N   UNL     1      47.252   9.957  19.277  0.00  0.00    +0.000 NA
ATOM     25  C   UNL     1      47.166   9.644  20.578  0.00  0.00    +0.000 A 
ATOM     26  C   UNL     1      47.557   8.434  21.105  0.00  0.00    +0.000 A 
ATOM     27  C   UNL     1      48.085   7.506  20.198  0.00  0.00    +0.000 A 
ATOM     28  S   UNL     1      48.652   5.938  20.605  0.00  0.00    +0.000 S 
ATOM     29  C   UNL     1      49.109   5.618  19.007  0.00  0.00    +0.000 A 
ATOM     30  C   UNL     1      48.822   6.649  18.128  0.00  0.00    +0.000 A 
ATOM     31  C   UNL     1      48.208   7.780  18.827  0.00  0.00    +0.000 A 
BRANCH  23  33
ATOM     32  C   UNL     1      48.906  10.302  16.780  0.00  0.00    +0.000 C 
ATOM     33  O   UNL     1      47.826   9.415  17.068  0.00  0.00    +0.000 OA
ENDBRANCH  23  33
ENDBRANCH  19  30
ENDBRANCH  18  21
ENDBRANCH   1  18
TORSDOF 8
ENDMDL
MODEL 2
REMARK VINA RESULT:    -6.670      2.393      3.653
REMARK INTER + INTRA:         -11.041
REMARK INTER:                  -9.848
REMARK INTRA:                  -1.193
REMARK UNBOUND:                -1.252
REMARK  Name = 
REMARK  10 active torsions:
REMARK  status: ('A' for Active; 'I' for Inactive)
REMARK    1  A    between atoms: C_1  and  O_2
REMARK    2  A    between atoms: O_2  and  C_3
REMARK    3  A    between atoms: C_10  and  C_11
REMARK    4  A    between atoms: N_13  and  C_14
REMARK    5  A    between atoms: C_14  and  C_15
REMARK    6  A    between atoms: C_18  and  N_19
REMARK    7  A    between atoms: N_19  and  C_20
REMARK    8  A    between atoms: C_20  and  C_21
REMARK    9  A    between atoms: C_21  and  C_22
REMARK   10  A    between atoms: N_25  and  C_26
REMARK                            x       y       z     vdW  Elec       q    Type
REMARK                         _______ _______ _______ _____ _____    ______ ____
ROOT
ATOM      1  C   UNL     1      47.341   6.996  13.479  0.00  0.00    +0.000 A 
ATOM      2  C   UNL     1      47.514   5.703  13.982  0.00  0.00    +0.000 A 
ATOM      3  C   UNL     1      46.514   4.743  13.822  0.00  0.00    +0.000 A 
ATOM      4  C   UNL     1      45.306   5.056  13.189  0.00  0.00    +0.000 A 
ATOM      5  C   UNL     1      45.157   6.338  12.652  0.00  0.00    +0.000 A 
ATOM      6  C   UNL     1      46.155   7.303  12.801  0.00  0.00    +0.000 A 
ENDROOT
BRANCH   4   7
ATOM      7  N   UNL     1      44.295   4.103  12.977  0.00  0.00    +0.000 N 
ATOM      8  H   UNL     1      43.842   3.857  13.854  0.00  0.00    +0.000 HD
BRANCH   7   9
ATOM      9  C   UNL     1      44.661   2.937  12.171  0.00  0.00    +0.000 C 
BRANCH   9  10
ATOM     10  C   UNL     1      45.283   3.405  10.858  0.00  0.00    +0.000 C 
BRANCH  10  11
ATOM     11  C   UNL     1      44.390   3.174   9.620  0.00  0.00    +0.000 C 
ATOM     12  C   UNL     1      44.610   1.759   9.067  0.00  0.00    +0.000 C 
ATOM     13  C   UNL     1      46.005   1.599   8.453  0.00  0.00    +0.000 C 
ATOM     14  N   UNL     1      46.284   2.606   7.421  0.00  0.00    +0.000 NA
ATOM     15  C   UNL     1      47.667   2.477   6.955  0.00  0.00    +0.000 C 
ATOM     16  C   UNL     1      46.036   3.985   7.864  0.00  0.00    +0.000 C 
ATOM     17  C   UNL     1      44.640   4.155   8.465  0.00  0.00    +0.000 C 
ENDBRANCH  10  11
ENDBRANCH   9  10
ENDBRANCH   7   9
ENDBRANCH   4   7
BRANCH   1  18
ATOM     18  C   UNL     1      48.453   8.001  13.573  0.00  0.00    +0.000 C 
BRANCH  18  21
ATOM     19  C   UNL     1      50.162   7.831  15.313  0.00  0.00    +0.000 C 
ATOM     20  O   UNL     1      49.750   8.846  15.868  0.00  0.00    +0.000 OA
ATOM     21  N   UNL     1      49.630   7.387  14.134  0.00  0.00    +0.000 N 
ATOM     22  H   UNL     1      49.904   6.479  13.780  0.00  0.00    +0.000 HD
BRANCH  19  30
ATOM     23  C   UNL     1      50.313   5.117  17.347  0.00  0.00    +0.000 A 
ATOM     24  N   UNL     1      50.616   4.085  18.170  0.00  0.00    +0.000 NA
ATOM     25  C   UNL     1      51.898   3.783  18.415  0.00  0.00    +0.000 A 
ATOM     26  C   UNL     1      52.964   4.460  17.867  0.00  0.00    +0.000 A 
ATOM     27  C   UNL     1      52.649   5.529  17.020  0.00  0.00    +0.000 A 
ATOM     28  S   UNL     1      53.794   6.532  16.226  0.00  0.00    +0.000 S 
ATOM     29  C   UNL     1      52.576   7.487  15.538  0.00  0.00    +0.000 A 
ATOM     30  C   UNL     1      51.294   7.066  15.852  0.00  0.00    +0.000 A 
ATOM     31  C   UNL     1      51.325   5.897  16.733  0.00  0.00    +0.000 A 
BRANCH  23  33
ATOM     32  C   UNL     1      48.391   6.211  18.125  0.00  0.00    +0.000 C 
ATOM     33  O   UNL     1      48.978   5.392  17.115  0.00  0.00    +0.000 OA
ENDBRANCH  23  33
ENDBRANCH  19  30
ENDBRANCH  18  21
ENDBRANCH   1  18
TORSDOF 8
ENDMDL
MODEL 3
REMARK VINA RESULT:    -6.666      1.561      2.556
REMARK INTER + INTRA:         -11.035
REMARK INTER:                  -9.948
REMARK INTRA:                  -1.088
REMARK UNBOUND:                -1.252
REMARK  Name = 
REMARK  10 active torsions:
REMARK  status: ('A' for Active; 'I' for Inactive)
REMARK    1  A    between atoms: C_1  and  O_2
REMARK    2  A    between atoms: O_2  and  C_3
REMARK    3  A    between atoms: C_10  and  C_11
REMARK    4  A    between atoms: N_13  and  C_14
REMARK    5  A    between atoms: C_14  and  C_15
REMARK    6  A    between atoms: C_18  and  N_19
REMARK    7  A    between atoms: N_19  and  C_20
REMARK    8  A    between atoms: C_20  and  C_21
REMARK    9  A    between atoms: C_21  and  C_22
REMARK   10  A    between atoms: N_25  and  C_26
REMARK                            x       y       z     vdW  Elec       q    Type
REMARK                         _______ _______ _______ _____ _____    ______ ____
ROOT
ATOM      1  C   UNL     1      46.997   7.843  13.505  0.00  0.00    +0.000 A 
ATOM      2  C   UNL     1      47.167   6.457  13.563  0.00  0.00    +0.000 A 
ATOM      3  C   UNL     1      46.323   5.610  12.843  0.00  0.00    +0.000 A 
ATOM      4  C   UNL     1      45.270   6.122  12.076  0.00  0.00    +0.000 A 
ATOM      5  C   UNL     1      45.132   7.510  11.990  0.00  0.00    +0.000 A 
ATOM      6  C   UNL     1      45.977   8.365  12.702  0.00  0.00    +0.000 A 
ENDROOT
BRANCH   4   7
ATOM      7  N   UNL     1      44.425   5.301  11.309  0.00  0.00    +0.000 N 
ATOM      8  H   UNL     1      43.484   5.683  11.275  0.00  0.00    +0.000 HD
BRANCH   7   9
ATOM      9  C   UNL     1      44.455   3.870  11.621  0.00  0.00    +0.000 C 
BRANCH   9  10
ATOM     10  C   UNL     1      45.249   3.135  10.544  0.00  0.00    +0.000 C 
BRANCH  10  11
ATOM     11  C   UNL     1      44.456   2.873   9.246  0.00  0.00    +0.000 C 
ATOM     12  C   UNL     1      44.768   1.467   8.712  0.00  0.00    +0.000 C 
ATOM     13  C   UNL     1      46.208   1.361   8.198  0.00  0.00    +0.000 C 
ATOM     14  N   UNL     1      46.523   2.380   7.188  0.00  0.00    +0.000 NA
ATOM     15  C   UNL     1      47.939   2.303   6.822  0.00  0.00    +0.000 C 
ATOM     16  C   UNL     1      46.192   3.747   7.611  0.00  0.00    +0.000 C 
ATOM     17  C   UNL     1      44.751   3.864   8.111  0.00  0.00    +0.000 C 
ENDBRANCH  10  11
ENDBRANCH   9  10
ENDBRANCH   7   9
ENDBRANCH   4   7
BRANCH   1  18
ATOM     18  C   UNL     1      47.962   8.755  14.208  0.00  0.00    +0.000 C 
BRANCH  18  21
ATOM     19  C   UNL     1      48.321   9.609  16.471  0.00  0.00    +0.000 C 
ATOM     20  O   UNL     1      49.120  10.449  16.066  0.00  0.00    +0.000 OA
ATOM     21  N   UNL     1      47.762   8.684  15.633  0.00  0.00    +0.000 N 
ATOM     22  H   UNL     1      47.011   8.097  15.977  0.00  0.00    +0.000 HD
BRANCH  19  30
ATOM     23  C   UNL     1      48.124   6.962  18.587  0.00  0.00    +0.000 A 
ATOM     24  N   UNL     1      47.937   6.066  19.586  0.00  0.00    +0.000 NA
ATOM     25  C   UNL     1      47.521   6.488  20.789  0.00  0.00    +0.000 A 
ATOM     26  C   UNL     1      47.272   7.806  21.096  0.00  0.00    +0.000 A 
ATOM     27  C   UNL     1      47.462   8.730  20.061  0.00  0.00    +0.000 A 
ATOM     28  S   UNL     1      47.210  10.423  20.187  0.00  0.00    +0.000 S 
ATOM     29  C   UNL     1      47.605  10.668  18.559  0.00  0.00    +0.000 A 
ATOM     30  C   UNL     1      47.966   9.509  17.892  0.00  0.00    +0.000 A 
ATOM     31  C   UNL     1      47.888   8.347  18.779  0.00  0.00    +0.000 A 
BRANCH  23  33
ATOM     32  C   UNL     1      48.206   5.124  17.134  0.00  0.00    +0.000 C 
ATOM     33  O   UNL     1      48.559   6.487  17.364  0.00  0.00    +0.000 OA
ENDBRANCH  23  33
ENDBRANCH  19  30
ENDBRANCH  18  21
ENDBRANCH   1  18
TORSDOF 8
ENDMDL
MODEL 4
REMARK VINA RESULT:    -6.505      3.650      5.534
REMARK INTER + INTRA:         -10.800
REMARK INTER:                  -9.814
REMARK INTRA:                  -0.985
REMARK UNBOUND:                -1.252
REMARK  Name = 
REMARK  10 active torsions:
REMARK  status: ('A' for Active; 'I' for Inactive)
REMARK    1  A    between atoms: C_1  and  O_2
REMARK    2  A    between atoms: O_2  and  C_3
REMARK    3  A    between atoms: C_10  and  C_11
REMARK    4  A    between atoms: N_13  and  C_14
REMARK    5  A    between atoms: C_14  and  C_15
REMARK    6  A    between atoms: C_18  and  N_19
REMARK    7  A    between atoms: N_19  and  C_20
REMARK    8  A    between atoms: C_20  and  C_21
REMARK    9  A    between atoms: C_21  and  C_22
REMARK   10  A    between atoms: N_25  and  C_26
REMARK                            x       y       z     vdW  Elec       q    Type
REMARK                         _______ _______ _______ _____ _____    ______ ____
ROOT
ATOM      1  C   UNL     1      47.678   4.265  16.360  0.00  0.00    +0.000 A 
ATOM      2  C   UNL     1      47.075   3.782  15.196  0.00  0.00    +0.000 A 
ATOM      3  C   UNL     1      47.054   4.556  14.035  0.00  0.00    +0.000 A 
ATOM      4  C   UNL     1      47.605   5.843  14.016  0.00  0.00    +0.000 A 
ATOM      5  C   UNL     1      48.243   6.303  15.171  0.00  0.00    +0.000 A 
ATOM      6  C   UNL     1      48.274   5.531  16.335  0.00  0.00    +0.000 A 
ENDROOT
BRANCH   4   7
ATOM      7  N   UNL     1      47.636   6.634  12.855  0.00  0.00    +0.000 N 
ATOM      8  H   UNL     1      48.562   7.027  12.710  0.00  0.00    +0.000 HD
BRANCH   7   9
ATOM      9  C   UNL     1      46.563   7.622  12.715  0.00  0.00    +0.000 C 
BRANCH   9  10
ATOM     10  C   UNL     1      45.218   6.904  12.664  0.00  0.00    +0.000 C 
BRANCH  10  11
ATOM     11  C   UNL     1      44.650   6.732  11.239  0.00  0.00    +0.000 C 
ATOM     12  C   UNL     1      43.143   6.446  11.302  0.00  0.00    +0.000 C 
ATOM     13  C   UNL     1      42.850   5.066  11.900  0.00  0.00    +0.000 C 
ATOM     14  N   UNL     1      43.551   3.986  11.192  0.00  0.00    +0.000 NA
ATOM     15  C   UNL     1      43.328   2.710  11.877  0.00  0.00    +0.000 C 
ATOM     16  C   UNL     1      44.993   4.223  11.042  0.00  0.00    +0.000 C 
ATOM     17  C   UNL     1      45.293   5.594  10.432  0.00  0.00    +0.000 C 
ENDBRANCH  10  11
ENDBRANCH   9  10
ENDBRANCH   7   9
ENDBRANCH   4   7
BRANCH   1  18
ATOM     18  C   UNL     1      47.778   3.395  17.580  0.00  0.00    +0.000 C 
BRANCH  18  21
ATOM     19  C   UNL     1      49.932   2.338  17.110  0.00  0.00    +0.000 C 
ATOM     20  O   UNL     1      49.451   1.688  16.185  0.00  0.00    +0.000 OA
ATOM     21  N   UNL     1      49.160   3.145  17.899  0.00  0.00    +0.000 N 
ATOM     22  H   UNL     1      49.612   3.764  18.562  0.00  0.00    +0.000 HD
BRANCH  19  30
ATOM     23  C   UNL     1      52.246   4.686  17.917  0.00  0.00    +0.000 A 
ATOM     24  N   UNL     1      53.333   5.438  18.216  0.00  0.00    +0.000 NA
ATOM     25  C   UNL     1      54.518   4.845  18.413  0.00  0.00    +0.000 A 
ATOM     26  C   UNL     1      54.718   3.485  18.343  0.00  0.00    +0.000 A 
ATOM     27  C   UNL     1      53.594   2.710  18.029  0.00  0.00    +0.000 A 
ATOM     28  S   UNL     1      53.584   1.000  17.872  0.00  0.00    +0.000 S 
ATOM     29  C   UNL     1      51.941   0.984  17.459  0.00  0.00    +0.000 A 
ATOM     30  C   UNL     1      51.354   2.238  17.462  0.00  0.00    +0.000 A 
ATOM     31  C   UNL     1      52.329   3.275  17.803  0.00  0.00    +0.000 A 
BRANCH  23  33
ATOM     32  C   UNL     1      50.956   6.577  18.424  0.00  0.00    +0.000 C 
ATOM     33  O   UNL     1      51.040   5.336  17.726  0.00  0.00    +0.000 OA
ENDBRANCH  23  33
ENDBRANCH  19  30
ENDBRANCH  18  21
ENDBRANCH   1  18
TORSDOF 8
ENDMDL
MODEL 5
REMARK VINA RESULT:    -6.438      3.849      9.121
REMARK INTER + INTRA:         -10.700
REMARK INTER:                  -8.806
REMARK INTRA:                  -1.894
REMARK UNBOUND:                -1.252
REMARK  Name = 
REMARK  10 active torsions:
REMARK  status: ('A' for Active; 'I' for Inactive)
REMARK    1  A    between atoms: C_1  and  O_2
REMARK    2  A    between atoms: O_2  and  C_3
REMARK    3  A    between atoms: C_10  and  C_11
REMARK    4  A    between atoms: N_13  and  C_14
REMARK    5  A    between atoms: C_14  and  C_15
REMARK    6  A    between atoms: C_18  and  N_19
REMARK    7  A    between atoms: N_19  and  C_20
REMARK    8  A    between atoms: C_20  and  C_21
REMARK    9  A    between atoms: C_21  and  C_22
REMARK   10  A    between atoms: N_25  and  C_26
REMARK                            x       y       z     vdW  Elec       q    Type
REMARK                         _______ _______ _______ _____ _____    ______ ____
ROOT
ATOM      1  C   UNL     1      48.439   3.669  17.602  0.00  0.00    +0.000 A 
ATOM      2  C   UNL     1      48.378   4.491  18.730  0.00  0.00    +0.000 A 
ATOM      3  C   UNL     1      49.540   4.823  19.427  0.00  0.00    +0.000 A 
ATOM      4  C   UNL     1      50.785   4.318  19.037  0.00  0.00    +0.000 A 
ATOM      5  C   UNL     1      50.845   3.531  17.884  0.00  0.00    +0.000 A 
ATOM      6  C   UNL     1      49.687   3.199  17.176  0.00  0.00    +0.000 A 
ENDROOT
BRANCH   4   7
ATOM      7  N   UNL     1      51.979   4.663  19.693  0.00  0.00    +0.000 N 
ATOM      8  H   UNL     1      51.789   5.022  20.626  0.00  0.00    +0.000 HD
BRANCH   7   9
ATOM      9  C   UNL     1      52.918   5.496  18.937  0.00  0.00    +0.000 C 
BRANCH   9  10
ATOM     10  C   UNL     1      52.275   6.850  18.652  0.00  0.00    +0.000 C 
BRANCH  10  11
ATOM     11  C   UNL     1      52.426   7.323  17.190  0.00  0.00    +0.000 C 
ATOM     12  C   UNL     1      52.199   8.839  17.100  0.00  0.00    +0.000 C 
ATOM     13  C   UNL     1      50.738   9.213  17.376  0.00  0.00    +0.000 C 
ATOM     14  N   UNL     1      49.799   8.496  16.503  0.00  0.00    +0.000 NA
ATOM     15  C   UNL     1      48.420   8.804  16.890  0.00  0.00    +0.000 C 
ATOM     16  C   UNL     1      50.000   7.041  16.494  0.00  0.00    +0.000 C 
ATOM     17  C   UNL     1      51.453   6.660  16.204  0.00  0.00    +0.000 C 
ENDBRANCH  10  11
ENDBRANCH   9  10
ENDBRANCH   7   9
ENDBRANCH   4   7
BRANCH   1  18
ATOM     18  C   UNL     1      47.200   3.386  16.801  0.00  0.00    +0.000 C 
BRANCH  18  21
ATOM     19  C   UNL     1      46.925   4.268  14.537  0.00  0.00    +0.000 C 
ATOM     20  O   UNL     1      47.260   3.195  14.040  0.00  0.00    +0.000 OA
ATOM     21  N   UNL     1      46.941   4.472  15.889  0.00  0.00    +0.000 N 
ATOM     22  H   UNL     1      46.533   5.318  16.265  0.00  0.00    +0.000 HD
BRANCH  19  30
ATOM     23  C   UNL     1      44.158   4.909  12.678  0.00  0.00    +0.000 A 
ATOM     24  N   UNL     1      43.185   5.355  11.847  0.00  0.00    +0.000 NA
ATOM     25  C   UNL     1      43.331   6.533  11.225  0.00  0.00    +0.000 A 
ATOM     26  C   UNL     1      44.425   7.354  11.380  0.00  0.00    +0.000 A 
ATOM     27  C   UNL     1      45.431   6.889  12.236  0.00  0.00    +0.000 A 
ATOM     28  S   UNL     1      46.892   7.718  12.587  0.00  0.00    +0.000 S 
ATOM     29  C   UNL     1      47.442   6.461  13.580  0.00  0.00    +0.000 A 
ATOM     30  C   UNL     1      46.543   5.414  13.703  0.00  0.00    +0.000 A 
ATOM     31  C   UNL     1      45.338   5.660  12.908  0.00  0.00    +0.000 A 
BRANCH  23  33
ATOM     32  C   UNL     1      43.589   2.651  12.405  0.00  0.00    +0.000 C 
ATOM     33  O   UNL     1      43.967   3.691  13.305  0.00  0.00    +0.000 OA
ENDBRANCH  23  33
ENDBRANCH  19  30
ENDBRANCH  18  21
ENDBRANCH   1  18
TORSDOF 8
ENDMDL
MODEL 6
REMARK VINA RESULT:    -6.144      3.267      5.082
REMARK INTER + INTRA:         -10.269
REMARK INTER:                  -9.091
REMARK INTRA:                  -1.179
REMARK UNBOUND:                -1.252
REMARK  Name = 
REMARK  10 active torsions:
REMARK  status: ('A' for Active; 'I' for Inactive)
REMARK    1  A    between atoms: C_1  and  O_2
REMARK    2  A    between atoms: O_2  and  C_3
REMARK    3  A    between atoms: C_10  and  C_11
REMARK    4  A    between atoms: N_13  and  C_14
REMARK    5  A    between atoms: C_14  and  C_15
REMARK    6  A    between atoms: C_18  and  N_19
REMARK    7  A    between atoms: N_19  and  C_20
REMARK    8  A    between atoms: C_20  and  C_21
REMARK    9  A    between atoms: C_21  and  C_22
REMARK   10  A    between atoms: N_25  and  C_26
REMARK                            x       y       z     vdW  Elec       q    Type
REMARK                         _______ _______ _______ _____ _____    ______ ____
ROOT
ATOM      1  C   UNL     1      49.597   7.212  15.391  0.00  0.00    +0.000 A 
ATOM      2  C   UNL     1      48.651   6.278  15.822  0.00  0.00    +0.000 A 
ATOM      3  C   UNL     1      47.722   5.749  14.926  0.00  0.00    +0.000 A 
ATOM      4  C   UNL     1      47.691   6.161  13.589  0.00  0.00    +0.000 A 
ATOM      5  C   UNL     1      48.667   7.063  13.156  0.00  0.00    +0.000 A 
ATOM      6  C   UNL     1      49.605   7.593  14.045  0.00  0.00    +0.000 A 
ENDROOT
BRANCH   4   7
ATOM      7  N   UNL     1      46.794   5.620  12.652  0.00  0.00    +0.000 N 
ATOM      8  H   UNL     1      46.431   6.345  12.040  0.00  0.00    +0.000 HD
BRANCH   7   9
ATOM      9  C   UNL     1      45.752   4.740  13.186  0.00  0.00    +0.000 C 
BRANCH   9  10
ATOM     10  C   UNL     1      45.479   3.618  12.189  0.00  0.00    +0.000 C 
BRANCH  10  11
ATOM     11  C   UNL     1      44.185   3.805  11.368  0.00  0.00    +0.000 C 
ATOM     12  C   UNL     1      43.894   2.541  10.546  0.00  0.00    +0.000 C 
ATOM     13  C   UNL     1      44.922   2.342   9.426  0.00  0.00    +0.000 C 
ATOM     14  N   UNL     1      45.034   3.516   8.549  0.00  0.00    +0.000 NA
ATOM     15  C   UNL     1      46.109   3.313   7.575  0.00  0.00    +0.000 C 
ATOM     16  C   UNL     1      45.253   4.773   9.277  0.00  0.00    +0.000 C 
ATOM     17  C   UNL     1      44.221   4.986  10.387  0.00  0.00    +0.000 C 
ENDBRANCH  10  11
ENDBRANCH   9  10
ENDBRANCH   7   9
ENDBRANCH   4   7
BRANCH   1  18
ATOM     18  C   UNL     1      50.653   7.713  16.336  0.00  0.00    +0.000 C 
BRANCH  18  21
ATOM     19  C   UNL     1      51.460   5.985  17.865  0.00  0.00    +0.000 C 
ATOM     20  O   UNL     1      50.689   6.354  18.747  0.00  0.00    +0.000 OA
ATOM     21  N   UNL     1      51.562   6.647  16.673  0.00  0.00    +0.000 N 
ATOM     22  H   UNL     1      52.107   6.237  15.925  0.00  0.00    +0.000 HD
BRANCH  19  30
ATOM     23  C   UNL     1      51.055   2.650  17.380  0.00  0.00    +0.000 A 
ATOM     24  N   UNL     1      51.108   1.298  17.308  0.00  0.00    +0.000 NA
ATOM     25  C   UNL     1      52.224   0.655  17.680  0.00  0.00    +0.000 A 
ATOM     26  C   UNL     1      53.359   1.288  18.135  0.00  0.00    +0.000 A 
ATOM     27  C   UNL     1      53.300   2.685  18.213  0.00  0.00    +0.000 A 
ATOM     28  S   UNL     1      54.573   3.700  18.757  0.00  0.00    +0.000 S 
ATOM     29  C   UNL     1      53.630   5.093  18.565  0.00  0.00    +0.000 A 
ATOM     30  C   UNL     1      52.364   4.844  18.063  0.00  0.00    +0.000 A 
ATOM     31  C   UNL     1      52.156   3.412  17.845  0.00  0.00    +0.000 A 
BRANCH  23  33
ATOM     32  C   UNL     1      48.788   3.016  17.852  0.00  0.00    +0.000 C 
ATOM     33  O   UNL     1      49.888   3.275  16.981  0.00  0.00    +0.000 OA
ENDBRANCH  23  33
ENDBRANCH  19  30
ENDBRANCH  18  21
ENDBRANCH   1  18
TORSDOF 8
ENDMDL
MODEL 7
REMARK VINA RESULT:    -6.054      3.545      9.089
REMARK INTER + INTRA:         -10.137
REMARK INTER:                  -8.298
REMARK INTRA:                  -1.839
REMARK UNBOUND:                -1.252
REMARK  Name = 
REMARK  10 active torsions:
REMARK  status: ('A' for Active; 'I' for Inactive)
REMARK    1  A    between atoms: C_1  and  O_2
REMARK    2  A    between atoms: O_2  and  C_3
REMARK    3  A    between atoms: C_10  and  C_11
REMARK    4  A    between atoms: N_13  and  C_14
REMARK    5  A    between atoms: C_14  and  C_15
REMARK    6  A    between atoms: C_18  and  N_19
REMARK    7  A    between atoms: N_19  and  C_20
REMARK    8  A    between atoms: C_20  and  C_21
REMARK    9  A    between atoms: C_21  and  C_22
REMARK   10  A    between atoms: N_25  and  C_26
REMARK                            x       y       z     vdW  Elec       q    Type
REMARK                         _______ _______ _______ _____ _____    ______ ____
ROOT
ATOM      1  C   UNL     1      49.361   8.852  15.960  0.00  0.00    +0.000 A 
ATOM      2  C   UNL     1      50.401   8.772  16.891  0.00  0.00    +0.000 A 
ATOM      3  C   UNL     1      50.177   9.091  18.230  0.00  0.00    +0.000 A 
ATOM      4  C   UNL     1      48.922   9.530  18.668  0.00  0.00    +0.000 A 
ATOM      5  C   UNL     1      47.877   9.567  17.740  0.00  0.00    +0.000 A 
ATOM      6  C   UNL     1      48.091   9.243  16.399  0.00  0.00    +0.000 A 
ENDROOT
BRANCH   4   7
ATOM      7  N   UNL     1      48.652   9.823  20.016  0.00  0.00    +0.000 N 
ATOM      8  H   UNL     1      49.514   9.987  20.529  0.00  0.00    +0.000 HD
BRANCH   7   9
ATOM      9  C   UNL     1      47.735   8.913  20.706  0.00  0.00    +0.000 C 
BRANCH   9  10
ATOM     10  C   UNL     1      48.440   7.584  20.964  0.00  0.00    +0.000 C 
BRANCH  10  11
ATOM     11  C   UNL     1      47.562   6.343  20.698  0.00  0.00    +0.000 C 
ATOM     12  C   UNL     1      48.312   5.068  21.109  0.00  0.00    +0.000 C 
ATOM     13  C   UNL     1      49.501   4.785  20.185  0.00  0.00    +0.000 C 
ATOM     14  N   UNL     1      49.112   4.722  18.770  0.00  0.00    +0.000 NA
ATOM     15  C   UNL     1      50.302   4.567  17.929  0.00  0.00    +0.000 C 
ATOM     16  C   UNL     1      48.337   5.887  18.323  0.00  0.00    +0.000 C 
ATOM     17  C   UNL     1      47.139   6.167  19.232  0.00  0.00    +0.000 C 
ENDBRANCH  10  11
ENDBRANCH   9  10
ENDBRANCH   7   9
ENDBRANCH   4   7
BRANCH   1  18
ATOM     18  C   UNL     1      49.582   8.421  14.538  0.00  0.00    +0.000 C 
BRANCH  18  21
ATOM     19  C   UNL     1      48.142   6.996  13.169  0.00  0.00    +0.000 C 
ATOM     20  O   UNL     1      49.078   6.245  12.903  0.00  0.00    +0.000 OA
ATOM     21  N   UNL     1      48.320   8.135  13.905  0.00  0.00    +0.000 N 
ATOM     22  H   UNL     1      47.507   8.653  14.215  0.00  0.00    +0.000 HD
BRANCH  19  30
ATOM     23  C   UNL     1      46.185   4.223  13.180  0.00  0.00    +0.000 A 
ATOM     24  N   UNL     1      45.258   3.246  13.030  0.00  0.00    +0.000 NA
ATOM     25  C   UNL     1      44.107   3.511  12.397  0.00  0.00    +0.000 A 
ATOM     26  C   UNL     1      43.782   4.745  11.881  0.00  0.00    +0.000 A 
ATOM     27  C   UNL     1      44.743   5.753  12.033  0.00  0.00    +0.000 A 
ATOM     28  S   UNL     1      44.582   7.366  11.469  0.00  0.00    +0.000 S 
ATOM     29  C   UNL     1      46.130   7.780  12.017  0.00  0.00    +0.000 A 
ATOM     30  C   UNL     1      46.788   6.745  12.660  0.00  0.00    +0.000 A 
ATOM     31  C   UNL     1      45.969   5.532  12.679  0.00  0.00    +0.000 A 
BRANCH  23  33
ATOM     32  C   UNL     1      47.259   4.070  15.258  0.00  0.00    +0.000 C 
ATOM     33  O   UNL     1      47.356   3.910  13.844  0.00  0.00    +0.000 OA
ENDBRANCH  23  33
ENDBRANCH  19  30
ENDBRANCH  18  21
ENDBRANCH   1  18
TORSDOF 8
ENDMDL
MODEL 8
REMARK VINA RESULT:    -5.905      4.512      9.206
REMARK INTER + INTRA:          -9.918
REMARK INTER:                  -8.235
REMARK INTRA:                  -1.684
REMARK UNBOUND:                -1.252
REMARK  Name = 
REMARK  10 active torsions:
REMARK  status: ('A' for Active; 'I' for Inactive)
REMARK    1  A    between atoms: C_1  and  O_2
REMARK    2  A    between atoms: O_2  and  C_3
REMARK    3  A    between atoms: C_10  and  C_11
REMARK    4  A    between atoms: N_13  and  C_14
REMARK    5  A    between atoms: C_14  and  C_15
REMARK    6  A    between atoms: C_18  and  N_19
REMARK    7  A    between atoms: N_19  and  C_20
REMARK    8  A    between atoms: C_20  and  C_21
REMARK    9  A    between atoms: C_21  and  C_22
REMARK   10  A    between atoms: N_25  and  C_26
REMARK                            x       y       z     vdW  Elec       q    Type
REMARK                         _______ _______ _______ _____ _____    ______ ____
ROOT
ATOM      1  C   UNL     1      49.494   7.153  16.956  0.00  0.00    +0.000 A 
ATOM      2  C   UNL     1      49.047   6.929  18.261  0.00  0.00    +0.000 A 
ATOM      3  C   UNL     1      49.621   5.927  19.043  0.00  0.00    +0.000 A 
ATOM      4  C   UNL     1      50.631   5.102  18.533  0.00  0.00    +0.000 A 
ATOM      5  C   UNL     1      51.102   5.360  17.242  0.00  0.00    +0.000 A 
ATOM      6  C   UNL     1      50.537   6.366  16.455  0.00  0.00    +0.000 A 
ENDROOT
BRANCH   4   7
ATOM      7  N   UNL     1      51.257   4.110  19.305  0.00  0.00    +0.000 N 
ATOM      8  H   UNL     1      50.729   3.925  20.154  0.00  0.00    +0.000 HD
BRANCH   7   9
ATOM      9  C   UNL     1      52.692   4.285  19.547  0.00  0.00    +0.000 C 
BRANCH   9  10
ATOM     10  C   UNL     1      53.414   2.968  19.278  0.00  0.00    +0.000 C 
BRANCH  10  11
ATOM     11  C   UNL     1      53.488   2.584  17.784  0.00  0.00    +0.000 C 
ATOM     12  C   UNL     1      52.583   1.375  17.505  0.00  0.00    +0.000 C 
ATOM     13  C   UNL     1      53.122   0.098  18.160  0.00  0.00    +0.000 C 
ATOM     14  N   UNL     1      54.508  -0.193  17.771  0.00  0.00    +0.000 NA
ATOM     15  C   UNL     1      55.005  -1.353  18.515  0.00  0.00    +0.000 C 
ATOM     16  C   UNL     1      55.420   0.945  17.956  0.00  0.00    +0.000 C 
ATOM     17  C   UNL     1      54.896   2.219  17.292  0.00  0.00    +0.000 C 
ENDBRANCH  10  11
ENDBRANCH   9  10
ENDBRANCH   7   9
ENDBRANCH   4   7
BRANCH   1  18
ATOM     18  C   UNL     1      48.936   8.291  16.148  0.00  0.00    +0.000 C 
BRANCH  18  21
ATOM     19  C   UNL     1      48.028   7.865  13.919  0.00  0.00    +0.000 C 
ATOM     20  O   UNL     1      48.975   8.435  13.384  0.00  0.00    +0.000 OA
ATOM     21  N   UNL     1      47.891   7.815  15.278  0.00  0.00    +0.000 N 
ATOM     22  H   UNL     1      47.173   7.224  15.680  0.00  0.00    +0.000 HD
BRANCH  19  30
ATOM     23  C   UNL     1      46.874   4.678  13.723  0.00  0.00    +0.000 A 
ATOM     24  N   UNL     1      46.286   3.489  13.449  0.00  0.00    +0.000 NA
ATOM     25  C   UNL     1      45.306   3.426  12.536  0.00  0.00    +0.000 A 
ATOM     26  C   UNL     1      44.832   4.516  11.842  0.00  0.00    +0.000 A 
ATOM     27  C   UNL     1      45.444   5.743  12.124  0.00  0.00    +0.000 A 
ATOM     28  S   UNL     1      45.042   7.241  11.388  0.00  0.00    +0.000 S 
ATOM     29  C   UNL     1      46.248   8.061  12.249  0.00  0.00    +0.000 A 
ATOM     30  C   UNL     1      46.953   7.254  13.126  0.00  0.00    +0.000 A 
ATOM     31  C   UNL     1      46.480   5.870  13.063  0.00  0.00    +0.000 A 
BRANCH  23  33
ATOM     32  C   UNL     1      47.451   4.224  15.949  0.00  0.00    +0.000 C 
ATOM     33  O   UNL     1      47.877   4.702  14.674  0.00  0.00    +0.000 OA
ENDBRANCH  23  33
ENDBRANCH  19  30
ENDBRANCH  18  21
ENDBRANCH   1  18
TORSDOF 8
ENDMDL
MODEL 9
REMARK VINA RESULT:    -5.890      4.097      9.089
REMARK INTER + INTRA:          -9.897
REMARK INTER:                  -7.754
REMARK INTRA:                  -2.143
REMARK UNBOUND:                -1.252
REMARK  Name = 
REMARK  10 active torsions:
REMARK  status: ('A' for Active; 'I' for Inactive)
REMARK    1  A    between atoms: C_1  and  O_2
REMARK    2  A    between atoms: O_2  and  C_3
REMARK    3  A    between atoms: C_10  and  C_11
REMARK    4  A    between atoms: N_13  and  C_14
REMARK    5  A    between atoms: C_14  and  C_15
REMARK    6  A    between atoms: C_18  and  N_19
REMARK    7  A    between atoms: N_19  and  C_20
REMARK    8  A    between atoms: C_20  and  C_21
REMARK    9  A    between atoms: C_21  and  C_22
REMARK   10  A    between atoms: N_25  and  C_26
REMARK                            x       y       z     vdW  Elec       q    Type
REMARK                         _______ _______ _______ _____ _____    ______ ____
ROOT
ATOM      1  C   UNL     1      48.153   4.209  17.413  0.00  0.00    +0.000 A 
ATOM      2  C   UNL     1      49.460   3.954  17.838  0.00  0.00    +0.000 A 
ATOM      3  C   UNL     1      49.947   4.526  19.013  0.00  0.00    +0.000 A 
ATOM      4  C   UNL     1      49.155   5.392  19.777  0.00  0.00    +0.000 A 
ATOM      5  C   UNL     1      47.836   5.610  19.368  0.00  0.00    +0.000 A 
ATOM      6  C   UNL     1      47.339   5.036  18.196  0.00  0.00    +0.000 A 
ENDROOT
BRANCH   4   7
ATOM      7  N   UNL     1      49.600   5.954  20.985  0.00  0.00    +0.000 N 
ATOM      8  H   UNL     1      48.842   6.439  21.459  0.00  0.00    +0.000 HD
BRANCH   7   9
ATOM      9  C   UNL     1      50.834   6.742  20.918  0.00  0.00    +0.000 C 
BRANCH   9  10
ATOM     10  C   UNL     1      50.508   8.149  20.427  0.00  0.00    +0.000 C 
BRANCH  10  11
ATOM     11  C   UNL     1      51.419   8.644  19.284  0.00  0.00    +0.000 C 
ATOM     12  C   UNL     1      51.075  10.097  18.926  0.00  0.00    +0.000 C 
ATOM     13  C   UNL     1      49.696  10.209  18.266  0.00  0.00    +0.000 C 
ATOM     14  N   UNL     1      49.563   9.340  17.089  0.00  0.00    +0.000 NA
ATOM     15  C   UNL     1      48.193   9.401  16.573  0.00  0.00    +0.000 C 
ATOM     16  C   UNL     1      49.936   7.943  17.346  0.00  0.00    +0.000 C 
ATOM     17  C   UNL     1      51.318   7.823  17.990  0.00  0.00    +0.000 C 
ENDBRANCH  10  11
ENDBRANCH   9  10
ENDBRANCH   7   9
ENDBRANCH   4   7
BRANCH   1  18
ATOM     18  C   UNL     1      47.603   3.522  16.196  0.00  0.00    +0.000 C 
BRANCH  18  21
ATOM     19  C   UNL     1      46.574   4.141  14.067  0.00  0.00    +0.000 C 
ATOM     20  O   UNL     1      46.876   3.062  13.565  0.00  0.00    +0.000 OA
ATOM     21  N   UNL     1      46.960   4.480  15.334  0.00  0.00    +0.000 N 
ATOM     22  H   UNL     1      46.580   5.318  15.758  0.00  0.00    +0.000 HD
BRANCH  19  30
ATOM     23  C   UNL     1      47.310   7.348  13.233  0.00  0.00    +0.000 A 
ATOM     24  N   UNL     1      47.365   8.641  12.830  0.00  0.00    +0.000 NA
ATOM     25  C   UNL     1      46.333   9.176  12.164  0.00  0.00    +0.000 A 
ATOM     26  C   UNL     1      45.187   8.484  11.841  0.00  0.00    +0.000 A 
ATOM     27  C   UNL     1      45.129   7.150  12.262  0.00  0.00    +0.000 A 
ATOM     28  S   UNL     1      43.811   6.084  11.993  0.00  0.00    +0.000 S 
ATOM     29  C   UNL     1      44.570   4.829  12.839  0.00  0.00    +0.000 A 
ATOM     30  C   UNL     1      45.830   5.157  13.311  0.00  0.00    +0.000 A 
ATOM     31  C   UNL     1      46.176   6.538  12.970  0.00  0.00    +0.000 A 
BRANCH  23  33
ATOM     32  C   UNL     1      49.606   7.549  13.661  0.00  0.00    +0.000 C 
ATOM     33  O   UNL     1      48.398   6.833  13.913  0.00  0.00    +0.000 OA
ENDBRANCH  23  33
ENDBRANCH  19  30
ENDBRANCH  18  21
ENDBRANCH   1  18
TORSDOF 8
ENDMDL
