MODEL 1
REMARK VINA RESULT:    -6.192      0.000      0.000
REMARK INTER + INTRA:          -8.103
REMARK INTER:                  -7.821
REMARK INTRA:                  -0.282
REMARK UNBOUND:                -0.282
REMARK  Name = 
REMARK  5 active torsions:
REMARK  status: ('A' for Active; 'I' for Inactive)
REMARK    1  A    between atoms: N_1  and  C_2
REMARK    2  A    between atoms: C_2  and  C_3
REMARK    3  A    between atoms: C_3  and  C_4
REMARK    4  A    between atoms: C_7  and  C_8
REMARK    5  A    between atoms: C_9  and  C_10
REMARK                            x       y       z     vdW  Elec       q    Type
REMARK                         _______ _______ _______ _____ _____    ______ ____
ROOT
ATOM      1  C   UNL     1      44.855   4.431  10.557  0.00  0.00    +0.000 A 
ATOM      2  C   UNL     1      45.494   5.631  10.869  0.00  0.00    +0.000 A 
ATOM      3  C   UNL     1      46.126   5.776  12.103  0.00  0.00    +0.000 A 
ATOM      4  C   UNL     1      46.105   4.715  13.000  0.00  0.00    +0.000 A 
ATOM      5  N   UNL     1      45.532   3.525  12.702  0.00  0.00    +0.000 NA
ATOM      6  C   UNL     1      44.915   3.413  11.501  0.00  0.00    +0.000 A 
ENDROOT
BRANCH   4   7
ATOM      7  C   UNL     1      46.765   4.756  14.309  0.00  0.00    +0.000 C 
ATOM      8  C   UNL     1      47.173   3.680  15.004  0.00  0.00    +0.000 C 
BRANCH   8   9
ATOM      9  C   UNL     1      47.826   3.717  16.319  0.00  0.00    +0.000 A 
ATOM     10  C   UNL     1      47.326   4.433  17.383  0.00  0.00    +0.000 A 
ATOM     11  C   UNL     1      48.029   4.324  18.558  0.00  0.00    +0.000 A 
ATOM     12  N   UNL     1      49.127   3.563  18.696  0.00  0.00    +0.000 NA
ATOM     13  C   UNL     1      49.511   2.875  17.619  0.00  0.00    +0.000 A 
ATOM     14  N   UNL     1      50.619   2.065  17.751  0.00  0.00    +0.000 N 
ATOM     15  N   UNL     1      48.916   2.928  16.425  0.00  0.00    +0.000 NA
ATOM     16  H   UNL     1      51.194   2.395  18.512  0.00  0.00    +0.000 HD
ATOM     17  H   UNL     1      51.062   1.939  16.850  0.00  0.00    +0.000 HD
ENDBRANCH   8   9
ENDBRANCH   4   7
BRANCH   1  18
ATOM     18  C   UNL     1      44.146   4.239   9.243  0.00  0.00    +0.000 C 
BRANCH  18  19
ATOM     19  C   UNL     1      44.985   3.438   8.244  0.00  0.00    +0.000 C 
BRANCH  19  20
ATOM     20  N   UNL     1      46.018   4.279   7.641  0.00  0.00    +0.000 NA
ATOM     21  H   UNL     1      46.654   4.605   8.368  0.00  0.00    +0.000 HD
ATOM     22  H   UNL     1      45.594   5.116   7.242  0.00  0.00    +0.000 HD
ENDBRANCH  19  20
ENDBRANCH  18  19
ENDBRANCH   1  18
TORSDOF 5
ENDMDL
MODEL 2
REMARK VINA RESULT:    -5.985      1.579      2.059
REMARK INTER + INTRA:          -7.842
REMARK INTER:                  -7.575
REMARK INTRA:                  -0.267
REMARK UNBOUND:                -0.282
REMARK  Name = 
REMARK  5 active torsions:
REMARK  status: ('A' for Active; 'I' for Inactive)
REMARK    1  A    between atoms: N_1  and  C_2
REMARK    2  A    between atoms: C_2  and  C_3
REMARK    3  A    between atoms: C_3  and  C_4
REMARK    4  A    between atoms: C_7  and  C_8
REMARK    5  A    between atoms: C_9  and  C_10
REMARK                            x       y       z     vdW  Elec       q    Type
REMARK                         _______ _______ _______ _____ _____    ______ ____
ROOT
ATOM      1  C   UNL     1      44.950   4.208   9.821  0.00  0.00    +0.000 A 
ATOM      2  C   UNL     1      44.808   3.171  10.742  0.00  0.00    +0.000 A 
ATOM      3  C   UNL     1      45.210   3.362  12.063  0.00  0.00    +0.000 A 
ATOM      4  C   UNL     1      45.746   4.589  12.434  0.00  0.00    +0.000 A 
ATOM      5  N   UNL     1      45.851   5.625  11.570  0.00  0.00    +0.000 NA
ATOM      6  C   UNL     1      45.464   5.412  10.290  0.00  0.00    +0.000 A 
ENDROOT
BRANCH   4   7
ATOM      7  C   UNL     1      46.170   4.899  13.803  0.00  0.00    +0.000 C 
ATOM      8  C   UNL     1      47.124   4.242  14.486  0.00  0.00    +0.000 C 
BRANCH   8   9
ATOM      9  C   UNL     1      47.546   4.544  15.859  0.00  0.00    +0.000 A 
ATOM     10  C   UNL     1      47.171   3.780  16.943  0.00  0.00    +0.000 A 
ATOM     11  C   UNL     1      47.690   4.168  18.153  0.00  0.00    +0.000 A 
ATOM     12  N   UNL     1      48.525   5.210  18.302  0.00  0.00    +0.000 NA
ATOM     13  C   UNL     1      48.861   5.864  17.189  0.00  0.00    +0.000 A 
ATOM     14  N   UNL     1      49.740   6.919  17.318  0.00  0.00    +0.000 N 
ATOM     15  N   UNL     1      48.396   5.586  15.968  0.00  0.00    +0.000 NA
ATOM     16  H   UNL     1      49.705   7.278  18.260  0.00  0.00    +0.000 HD
ATOM     17  H   UNL     1      49.604   7.575  16.561  0.00  0.00    +0.000 HD
ENDBRANCH   8   9
ENDBRANCH   4   7
BRANCH   1  18
ATOM     18  C   UNL     1      44.545   4.039   8.381  0.00  0.00    +0.000 C 
BRANCH  18  19
ATOM     19  C   UNL     1      45.624   3.335   7.555  0.00  0.00    +0.000 C 
BRANCH  19  20
ATOM     20  N   UNL     1      46.667   4.276   7.153  0.00  0.00    +0.000 NA
ATOM     21  H   UNL     1      46.691   4.340   6.136  0.00  0.00    +0.000 HD
ATOM     22  H   UNL     1      47.582   3.922   7.435  0.00  0.00    +0.000 HD
ENDBRANCH  19  20
ENDBRANCH  18  19
ENDBRANCH   1  18
TORSDOF 5
ENDMDL
MODEL 3
REMARK VINA RESULT:    -5.869      2.052      8.173
REMARK INTER + INTRA:          -7.695
REMARK INTER:                  -7.429
REMARK INTRA:                  -0.266
REMARK UNBOUND:                -0.282
REMARK  Name = 
REMARK  5 active torsions:
REMARK  status: ('A' for Active; 'I' for Inactive)
REMARK    1  A    between atoms: N_1  and  C_2
REMARK    2  A    between atoms: C_2  and  C_3
REMARK    3  A    between atoms: C_3  and  C_4
REMARK    4  A    between atoms: C_7  and  C_8
REMARK    5  A    between atoms: C_9  and  C_10
REMARK                            x       y       z     vdW  Elec       q    Type
REMARK                         _______ _______ _______ _____ _____    ______ ____
ROOT
ATOM      1  C   UNL     1      49.239   4.291  17.729  0.00  0.00    +0.000 A 
ATOM      2  C   UNL     1      48.807   3.013  17.374  0.00  0.00    +0.000 A 
ATOM      3  C   UNL     1      47.992   2.846  16.256  0.00  0.00    +0.000 A 
ATOM      4  C   UNL     1      47.625   3.964  15.516  0.00  0.00    +0.000 A 
ATOM      5  N   UNL     1      48.068   5.207  15.814  0.00  0.00    +0.000 NA
ATOM      6  C   UNL     1      48.851   5.345  16.911  0.00  0.00    +0.000 A 
ENDROOT
BRANCH   4   7
ATOM      7  C   UNL     1      46.796   3.891  14.308  0.00  0.00    +0.000 C 
ATOM      8  C   UNL     1      45.993   4.872  13.861  0.00  0.00    +0.000 C 
BRANCH   8   9
ATOM      9  C   UNL     1      45.155   4.800  12.657  0.00  0.00    +0.000 A 
ATOM     10  C   UNL     1      45.107   3.689  11.844  0.00  0.00    +0.000 A 
ATOM     11  C   UNL     1      44.237   3.763  10.785  0.00  0.00    +0.000 A 
ATOM     12  N   UNL     1      43.457   4.829  10.540  0.00  0.00    +0.000 NA
ATOM     13  C   UNL     1      43.545   5.840  11.406  0.00  0.00    +0.000 A 
ATOM     14  N   UNL     1      42.731   6.931  11.187  0.00  0.00    +0.000 N 
ATOM     15  N   UNL     1      44.374   5.881  12.452  0.00  0.00    +0.000 NA
ATOM     16  H   UNL     1      42.470   6.972  10.213  0.00  0.00    +0.000 HD
ATOM     17  H   UNL     1      43.145   7.757  11.596  0.00  0.00    +0.000 HD
ENDBRANCH   8   9
ENDBRANCH   4   7
BRANCH   1  18
ATOM     18  C   UNL     1      50.106   4.517  18.938  0.00  0.00    +0.000 C 
BRANCH  18  19
ATOM     19  C   UNL     1      49.301   5.009  20.144  0.00  0.00    +0.000 C 
BRANCH  19  20
ATOM     20  N   UNL     1      48.534   3.914  20.737  0.00  0.00    +0.000 NA
ATOM     21  H   UNL     1      49.084   3.056  20.696  0.00  0.00    +0.000 HD
ATOM     22  H   UNL     1      47.695   3.739  20.183  0.00  0.00    +0.000 HD
ENDBRANCH  19  20
ENDBRANCH  18  19
ENDBRANCH   1  18
TORSDOF 5
ENDMDL
MODEL 4
REMARK VINA RESULT:    -5.760      1.789      7.874
REMARK INTER + INTRA:          -7.558
REMARK INTER:                  -7.230
REMARK INTRA:                  -0.328
REMARK UNBOUND:                -0.282
REMARK  Name = 
REMARK  5 active torsions:
REMARK  status: ('A' for Active; 'I' for Inactive)
REMARK    1  A    between atoms: N_1  and  C_2
REMARK    2  A    between atoms: C_2  and  C_3
REMARK    3  A    between atoms: C_3  and  C_4
REMARK    4  A    between atoms: C_7  and  C_8
REMARK    5  A    between atoms: C_9  and  C_10
REMARK                            x       y       z     vdW  Elec       q    Type
REMARK                         _______ _______ _______ _____ _____    ______ ____
ROOT
ATOM      1  C   UNL     1      49.066   4.242  17.514  0.00  0.00    +0.000 A 
ATOM      2  C   UNL     1      48.643   5.418  16.896  0.00  0.00    +0.000 A 
ATOM      3  C   UNL     1      47.864   5.349  15.743  0.00  0.00    +0.000 A 
ATOM      4  C   UNL     1      47.525   4.103  15.230  0.00  0.00    +0.000 A 
ATOM      5  N   UNL     1      47.886   2.948  15.838  0.00  0.00    +0.000 NA
ATOM      6  C   UNL     1      48.651   3.041  16.951  0.00  0.00    +0.000 A 
ENDROOT
BRANCH   4   7
ATOM      7  C   UNL     1      46.687   3.923  14.041  0.00  0.00    +0.000 C 
ATOM      8  C   UNL     1      45.721   4.768  13.640  0.00  0.00    +0.000 C 
BRANCH   8   9
ATOM      9  C   UNL     1      44.874   4.588  12.454  0.00  0.00    +0.000 A 
ATOM     10  C   UNL     1      43.953   5.526  12.043  0.00  0.00    +0.000 A 
ATOM     11  C   UNL     1      43.275   5.228  10.886  0.00  0.00    +0.000 A 
ATOM     12  N   UNL     1      43.486   4.111  10.171  0.00  0.00    +0.000 NA
ATOM     13  C   UNL     1      44.427   3.283  10.628  0.00  0.00    +0.000 A 
ATOM     14  N   UNL     1      44.678   2.145   9.891  0.00  0.00    +0.000 N 
ATOM     15  N   UNL     1      45.125   3.464  11.752  0.00  0.00    +0.000 NA
ATOM     16  H   UNL     1      43.869   1.915   9.332  0.00  0.00    +0.000 HD
ATOM     17  H   UNL     1      45.054   1.422  10.490  0.00  0.00    +0.000 HD
ENDBRANCH   8   9
ENDBRANCH   4   7
BRANCH   1  18
ATOM     18  C   UNL     1      49.923   4.271  18.752  0.00  0.00    +0.000 C 
BRANCH  18  19
ATOM     19  C   UNL     1      49.149   4.758  19.980  0.00  0.00    +0.000 C 
BRANCH  19  20
ATOM     20  N   UNL     1      48.353   3.676  20.555  0.00  0.00    +0.000 NA
ATOM     21  H   UNL     1      48.800   3.344  21.409  0.00  0.00    +0.000 HD
ATOM     22  H   UNL     1      48.337   2.880  19.917  0.00  0.00    +0.000 HD
ENDBRANCH  19  20
ENDBRANCH  18  19
ENDBRANCH   1  18
TORSDOF 5
ENDMDL
MODEL 5
REMARK VINA RESULT:    -5.195      2.060      2.384
REMARK INTER + INTRA:          -6.844
REMARK INTER:                  -6.514
REMARK INTRA:                  -0.330
REMARK UNBOUND:                -0.282
REMARK  Name = 
REMARK  5 active torsions:
REMARK  status: ('A' for Active; 'I' for Inactive)
REMARK    1  A    between atoms: N_1  and  C_2
REMARK    2  A    between atoms: C_2  and  C_3
REMARK    3  A    between atoms: C_3  and  C_4
REMARK    4  A    between atoms: C_7  and  C_8
REMARK    5  A    between atoms: C_9  and  C_10
REMARK                            x       y       z     vdW  Elec       q    Type
REMARK                         _______ _______ _______ _____ _____    ______ ____
ROOT
ATOM      1  C   UNL     1      45.141   5.042  11.927  0.00  0.00    +0.000 A 
ATOM      2  C   UNL     1      45.924   6.129  12.315  0.00  0.00    +0.000 A 
ATOM      3  C   UNL     1      46.758   6.017  13.426  0.00  0.00    +0.000 A 
ATOM      4  C   UNL     1      46.792   4.817  14.126  0.00  0.00    +0.000 A 
ATOM      5  N   UNL     1      46.077   3.734  13.741  0.00  0.00    +0.000 NA
ATOM      6  C   UNL     1      45.266   3.871  12.665  0.00  0.00    +0.000 A 
ENDROOT
BRANCH   4   7
ATOM      7  C   UNL     1      47.657   4.588  15.287  0.00  0.00    +0.000 C 
ATOM      8  C   UNL     1      48.245   5.553  16.017  0.00  0.00    +0.000 C 
BRANCH   8   9
ATOM      9  C   UNL     1      49.118   5.328  17.176  0.00  0.00    +0.000 A 
ATOM     10  C   UNL     1      49.106   6.137  18.290  0.00  0.00    +0.000 A 
ATOM     11  C   UNL     1      49.949   5.762  19.307  0.00  0.00    +0.000 A 
ATOM     12  N   UNL     1      50.733   4.673  19.257  0.00  0.00    +0.000 NA
ATOM     13  C   UNL     1      50.644   3.930  18.152  0.00  0.00    +0.000 A 
ATOM     14  N   UNL     1      51.421   2.792  18.094  0.00  0.00    +0.000 N 
ATOM     15  N   UNL     1      49.879   4.216  17.097  0.00  0.00    +0.000 NA
ATOM     16  H   UNL     1      52.210   2.885  18.716  0.00  0.00    +0.000 HD
ATOM     17  H   UNL     1      51.609   2.552  17.130  0.00  0.00    +0.000 HD
ENDBRANCH   8   9
ENDBRANCH   4   7
BRANCH   1  18
ATOM     18  C   UNL     1      44.214   5.126  10.744  0.00  0.00    +0.000 C 
BRANCH  18  19
ATOM     19  C   UNL     1      42.744   4.988  11.150  0.00  0.00    +0.000 C 
BRANCH  19  20
ATOM     20  N   UNL     1      42.239   6.243  11.704  0.00  0.00    +0.000 NA
ATOM     21  H   UNL     1      41.554   6.039  12.431  0.00  0.00    +0.000 HD
ATOM     22  H   UNL     1      41.739   6.763  10.983  0.00  0.00    +0.000 HD
ENDBRANCH  19  20
ENDBRANCH  18  19
ENDBRANCH   1  18
TORSDOF 5
ENDMDL
MODEL 6
REMARK VINA RESULT:    -4.962      4.082      7.542
REMARK INTER + INTRA:          -6.549
REMARK INTER:                  -6.233
REMARK INTRA:                  -0.317
REMARK UNBOUND:                -0.282
REMARK  Name = 
REMARK  5 active torsions:
REMARK  status: ('A' for Active; 'I' for Inactive)
REMARK    1  A    between atoms: N_1  and  C_2
REMARK    2  A    between atoms: C_2  and  C_3
REMARK    3  A    between atoms: C_3  and  C_4
REMARK    4  A    between atoms: C_7  and  C_8
REMARK    5  A    between atoms: C_9  and  C_10
REMARK                            x       y       z     vdW  Elec       q    Type
REMARK                         _______ _______ _______ _____ _____    ______ ____
ROOT
ATOM      1  C   UNL     1      50.921   8.234  13.573  0.00  0.00    +0.000 A 
ATOM      2  C   UNL     1      50.637   8.283  12.208  0.00  0.00    +0.000 A 
ATOM      3  C   UNL     1      49.442   7.747  11.733  0.00  0.00    +0.000 A 
ATOM      4  C   UNL     1      48.553   7.173  12.635  0.00  0.00    +0.000 A 
ATOM      5  N   UNL     1      48.786   7.155  13.968  0.00  0.00    +0.000 NA
ATOM      6  C   UNL     1      49.959   7.672  14.404  0.00  0.00    +0.000 A 
ENDROOT
BRANCH   4   7
ATOM      7  C   UNL     1      47.259   6.610  12.240  0.00  0.00    +0.000 C 
ATOM      8  C   UNL     1      46.718   5.486  12.741  0.00  0.00    +0.000 C 
BRANCH   8   9
ATOM      9  C   UNL     1      45.425   4.915  12.342  0.00  0.00    +0.000 A 
ATOM     10  C   UNL     1      45.199   3.558  12.264  0.00  0.00    +0.000 A 
ATOM     11  C   UNL     1      43.922   3.186  11.923  0.00  0.00    +0.000 A 
ATOM     12  N   UNL     1      42.931   4.064  11.692  0.00  0.00    +0.000 NA
ATOM     13  C   UNL     1      43.238   5.354  11.831  0.00  0.00    +0.000 A 
ATOM     14  N   UNL     1      42.227   6.269  11.625  0.00  0.00    +0.000 N 
ATOM     15  N   UNL     1      44.451   5.824  12.134  0.00  0.00    +0.000 NA
ATOM     16  H   UNL     1      41.513   5.862  11.039  0.00  0.00    +0.000 HD
ATOM     17  H   UNL     1      42.618   7.157  11.341  0.00  0.00    +0.000 HD
ENDBRANCH   8   9
ENDBRANCH   4   7
BRANCH   1  18
ATOM     18  C   UNL     1      52.208   8.785  14.126  0.00  0.00    +0.000 C 
BRANCH  18  19
ATOM     19  C   UNL     1      52.887   7.811  15.093  0.00  0.00    +0.000 C 
BRANCH  19  20
ATOM     20  N   UNL     1      53.824   6.943  14.382  0.00  0.00    +0.000 NA
ATOM     21  H   UNL     1      53.411   6.017  14.275  0.00  0.00    +0.000 HD
ATOM     22  H   UNL     1      54.668   6.814  14.939  0.00  0.00    +0.000 HD
ENDBRANCH  19  20
ENDBRANCH  18  19
ENDBRANCH   1  18
TORSDOF 5
ENDMDL
MODEL 7
REMARK VINA RESULT:    -4.922      2.632      7.710
REMARK INTER + INTRA:          -6.499
REMARK INTER:                  -6.192
REMARK INTRA:                  -0.307
REMARK UNBOUND:                -0.282
REMARK  Name = 
REMARK  5 active torsions:
REMARK  status: ('A' for Active; 'I' for Inactive)
REMARK    1  A    between atoms: N_1  and  C_2
REMARK    2  A    between atoms: C_2  and  C_3
REMARK    3  A    between atoms: C_3  and  C_4
REMARK    4  A    between atoms: C_7  and  C_8
REMARK    5  A    between atoms: C_9  and  C_10
REMARK                            x       y       z     vdW  Elec       q    Type
REMARK                         _______ _______ _______ _____ _____    ______ ____
ROOT
ATOM      1  C   UNL     1      49.703   6.529  16.515  0.00  0.00    +0.000 A 
ATOM      2  C   UNL     1      49.277   7.174  15.354  0.00  0.00    +0.000 A 
ATOM      3  C   UNL     1      48.295   6.587  14.559  0.00  0.00    +0.000 A 
ATOM      4  C   UNL     1      47.758   5.364  14.942  0.00  0.00    +0.000 A 
ATOM      5  N   UNL     1      48.122   4.740  16.087  0.00  0.00    +0.000 NA
ATOM      6  C   UNL     1      49.086   5.326  16.838  0.00  0.00    +0.000 A 
ENDROOT
BRANCH   4   7
ATOM      7  C   UNL     1      46.701   4.679  14.192  0.00  0.00    +0.000 C 
ATOM      8  C   UNL     1      46.314   4.990  12.942  0.00  0.00    +0.000 C 
BRANCH   8   9
ATOM      9  C   UNL     1      45.250   4.312  12.190  0.00  0.00    +0.000 A 
ATOM     10  C   UNL     1      44.333   3.472  12.783  0.00  0.00    +0.000 A 
ATOM     11  C   UNL     1      43.373   2.955  11.949  0.00  0.00    +0.000 A 
ATOM     12  N   UNL     1      43.295   3.245  10.640  0.00  0.00    +0.000 NA
ATOM     13  C   UNL     1      44.203   4.099  10.166  0.00  0.00    +0.000 A 
ATOM     14  N   UNL     1      44.121   4.431   8.830  0.00  0.00    +0.000 N 
ATOM     15  N   UNL     1      45.192   4.639  10.882  0.00  0.00    +0.000 NA
ATOM     16  H   UNL     1      43.635   3.704   8.327  0.00  0.00    +0.000 HD
ATOM     17  H   UNL     1      45.031   4.709   8.488  0.00  0.00    +0.000 HD
ENDBRANCH   8   9
ENDBRANCH   4   7
BRANCH   1  18
ATOM     18  C   UNL     1      50.773   7.119  17.393  0.00  0.00    +0.000 C 
BRANCH  18  19
ATOM     19  C   UNL     1      51.952   6.163  17.592  0.00  0.00    +0.000 C 
BRANCH  19  20
ATOM     20  N   UNL     1      52.966   6.367  16.560  0.00  0.00    +0.000 NA
ATOM     21  H   UNL     1      52.995   5.551  15.949  0.00  0.00    +0.000 HD
ATOM     22  H   UNL     1      53.889   6.431  16.989  0.00  0.00    +0.000 HD
ENDBRANCH  19  20
ENDBRANCH  18  19
ENDBRANCH   1  18
TORSDOF 5
ENDMDL
MODEL 8
REMARK VINA RESULT:    -4.879      3.903      4.409
REMARK INTER + INTRA:          -6.445
REMARK INTER:                  -6.136
REMARK INTRA:                  -0.309
REMARK UNBOUND:                -0.282
REMARK  Name = 
REMARK  5 active torsions:
REMARK  status: ('A' for Active; 'I' for Inactive)
REMARK    1  A    between atoms: N_1  and  C_2
REMARK    2  A    between atoms: C_2  and  C_3
REMARK    3  A    between atoms: C_3  and  C_4
REMARK    4  A    between atoms: C_7  and  C_8
REMARK    5  A    between atoms: C_9  and  C_10
REMARK                            x       y       z     vdW  Elec       q    Type
REMARK                         _______ _______ _______ _____ _____    ______ ____
ROOT
ATOM      1  C   UNL     1      44.893   3.806  11.013  0.00  0.00    +0.000 A 
ATOM      2  C   UNL     1      45.220   3.510  12.336  0.00  0.00    +0.000 A 
ATOM      3  C   UNL     1      45.937   4.435  13.092  0.00  0.00    +0.000 A 
ATOM      4  C   UNL     1      46.312   5.639  12.508  0.00  0.00    +0.000 A 
ATOM      5  N   UNL     1      45.967   5.967  11.241  0.00  0.00    +0.000 NA
ATOM      6  C   UNL     1      45.279   5.048  10.523  0.00  0.00    +0.000 A 
ENDROOT
BRANCH   4   7
ATOM      7  C   UNL     1      47.040   6.689  13.227  0.00  0.00    +0.000 C 
ATOM      8  C   UNL     1      48.134   6.492  13.984  0.00  0.00    +0.000 C 
BRANCH   8   9
ATOM      9  C   UNL     1      48.861   7.540  14.712  0.00  0.00    +0.000 A 
ATOM     10  C   UNL     1      49.973   7.281  15.484  0.00  0.00    +0.000 A 
ATOM     11  C   UNL     1      50.566   8.377  16.059  0.00  0.00    +0.000 A 
ATOM     12  N   UNL     1      50.127   9.634  15.886  0.00  0.00    +0.000 NA
ATOM     13  C   UNL     1      49.069   9.788  15.089  0.00  0.00    +0.000 A 
ATOM     14  N   UNL     1      48.621  11.075  14.876  0.00  0.00    +0.000 N 
ATOM     15  N   UNL     1      48.402   8.791  14.501  0.00  0.00    +0.000 NA
ATOM     16  H   UNL     1      48.912  11.668  15.639  0.00  0.00    +0.000 HD
ATOM     17  H   UNL     1      47.637  11.063  14.642  0.00  0.00    +0.000 HD
ENDBRANCH   8   9
ENDBRANCH   4   7
BRANCH   1  18
ATOM     18  C   UNL     1      44.135   2.828  10.155  0.00  0.00    +0.000 C 
BRANCH  18  19
ATOM     19  C   UNL     1      44.810   2.602   8.800  0.00  0.00    +0.000 C 
BRANCH  19  20
ATOM     20  N   UNL     1      45.626   1.389   8.822  0.00  0.00    +0.000 NA
ATOM     21  H   UNL     1      46.005   1.255   9.759  0.00  0.00    +0.000 HD
ATOM     22  H   UNL     1      46.431   1.501   8.205  0.00  0.00    +0.000 HD
ENDBRANCH  19  20
ENDBRANCH  18  19
ENDBRANCH   1  18
TORSDOF 5
ENDMDL
MODEL 9
REMARK VINA RESULT:    -4.676      4.252      7.786
REMARK INTER + INTRA:          -6.188
REMARK INTER:                  -5.907
REMARK INTRA:                  -0.281
REMARK UNBOUND:                -0.282
REMARK  Name = 
REMARK  5 active torsions:
REMARK  status: ('A' for Active; 'I' for Inactive)
REMARK    1  A    between atoms: N_1  and  C_2
REMARK    2  A    between atoms: C_2  and  C_3
REMARK    3  A    between atoms: C_3  and  C_4
REMARK    4  A    between atoms: C_7  and  C_8
REMARK    5  A    between atoms: C_9  and  C_10
REMARK                            x       y       z     vdW  Elec       q    Type
REMARK                         _______ _______ _______ _____ _____    ______ ____
ROOT
ATOM      1  C   UNL     1      49.510   9.462  13.617  0.00  0.00    +0.000 A 
ATOM      2  C   UNL     1      49.810   9.040  12.322  0.00  0.00    +0.000 A 
ATOM      3  C   UNL     1      48.988   8.109  11.691  0.00  0.00    +0.000 A 
ATOM      4  C   UNL     1      47.880   7.618  12.372  0.00  0.00    +0.000 A 
ATOM      5  N   UNL     1      47.542   8.045  13.611  0.00  0.00    +0.000 NA
ATOM      6  C   UNL     1      48.363   8.943  14.206  0.00  0.00    +0.000 A 
ENDROOT
BRANCH   4   7
ATOM      7  C   UNL     1      46.937   6.659  11.786  0.00  0.00    +0.000 C 
ATOM      8  C   UNL     1      46.068   5.905  12.482  0.00  0.00    +0.000 C 
BRANCH   8   9
ATOM      9  C   UNL     1      45.128   4.938  11.899  0.00  0.00    +0.000 A 
ATOM     10  C   UNL     1      44.309   4.138  12.664  0.00  0.00    +0.000 A 
ATOM     11  C   UNL     1      43.453   3.322  11.966  0.00  0.00    +0.000 A 
ATOM     12  N   UNL     1      43.383   3.296  10.625  0.00  0.00    +0.000 NA
ATOM     13  C   UNL     1      44.188   4.136   9.973  0.00  0.00    +0.000 A 
ATOM     14  N   UNL     1      44.110   4.144   8.596  0.00  0.00    +0.000 N 
ATOM     15  N   UNL     1      45.074   4.951  10.551  0.00  0.00    +0.000 NA
ATOM     16  H   UNL     1      43.740   3.264   8.270  0.00  0.00    +0.000 HD
ATOM     17  H   UNL     1      44.987   4.458   8.203  0.00  0.00    +0.000 HD
ENDBRANCH   8   9
ENDBRANCH   4   7
BRANCH   1  18
ATOM     18  C   UNL     1      50.381  10.453  14.341  0.00  0.00    +0.000 C 
BRANCH  18  19
ATOM     19  C   UNL     1      51.463   9.768  15.181  0.00  0.00    +0.000 C 
BRANCH  19  20
ATOM     20  N   UNL     1      52.151  10.738  16.031  0.00  0.00    +0.000 NA
ATOM     21  H   UNL     1      51.466  11.368  16.447  0.00  0.00    +0.000 HD
ATOM     22  H   UNL     1      52.765  11.322  15.463  0.00  0.00    +0.000 HD
ENDBRANCH  19  20
ENDBRANCH  18  19
ENDBRANCH   1  18
TORSDOF 5
ENDMDL
