MODEL 1
REMARK VINA RESULT:    -8.342      0.000      0.000
REMARK INTER + INTRA:         -10.258
REMARK INTER:                  -9.805
REMARK INTRA:                  -0.454
REMARK UNBOUND:                -0.454
REMARK  Name = 
REMARK  5 active torsions:
REMARK  status: ('A' for Active; 'I' for Inactive)
REMARK    1  A    between atoms: C_1  and  C_2
REMARK    2  A    between atoms: C_6  and  C_7
REMARK    3  A    between atoms: C_11  and  C_12
REMARK    4  A    between atoms: C_12  and  N_13
REMARK    5  A    between atoms: C_18  and  C_19
REMARK                            x       y       z     vdW  Elec       q    Type
REMARK                         _______ _______ _______ _____ _____    ______ ____
ROOT
ATOM      1  C   UNL     1      44.904   4.050  10.440  0.00  0.00    +0.000 A 
ATOM      2  C   UNL     1      43.535   4.365  10.525  0.00  0.00    +0.000 A 
ATOM      3  C   UNL     1      42.964   4.838  11.709  0.00  0.00    +0.000 A 
ATOM      4  C   UNL     1      43.750   5.007  12.846  0.00  0.00    +0.000 A 
ATOM      5  C   UNL     1      45.114   4.695  12.811  0.00  0.00    +0.000 A 
ATOM      6  C   UNL     1      45.678   4.238  11.602  0.00  0.00    +0.000 A 
ENDROOT
BRANCH   1  12
ATOM      7  C   UNL     1      46.701   0.289   7.586  0.00  0.00    +0.000 C 
ATOM      8  C   UNL     1      46.375   1.734   7.790  0.00  0.00    +0.000 A 
ATOM      9  C   UNL     1      46.635   2.680   6.807  0.00  0.00    +0.000 A 
ATOM     10  N   UNL     1      46.353   3.992   6.934  0.00  0.00    +0.000 NA
ATOM     11  C   UNL     1      45.789   4.379   8.106  0.00  0.00    +0.000 A 
ATOM     12  C   UNL     1      45.490   3.536   9.181  0.00  0.00    +0.000 A 
ATOM     13  C   UNL     1      45.796   2.180   8.986  0.00  0.00    +0.000 A 
ENDBRANCH   1  12
BRANCH   5  14
ATOM     14  C   UNL     1      45.969   4.834  14.054  0.00  0.00    +0.000 C 
BRANCH  14  15
ATOM     15  N   UNL     1      46.711   3.613  14.282  0.00  0.00    +0.000 N 
ATOM     16  C   UNL     1      47.252   3.502  15.555  0.00  0.00    +0.000 A 
ATOM     17  N   UNL     1      46.622   4.039  16.610  0.00  0.00    +0.000 NA
ATOM     18  C   UNL     1      47.190   3.862  17.813  0.00  0.00    +0.000 A 
ATOM     19  C   UNL     1      48.364   3.177  18.009  0.00  0.00    +0.000 A 
ATOM     20  C   UNL     1      48.951   2.667  16.871  0.00  0.00    +0.000 A 
ATOM     21  C   UNL     1      50.233   1.895  16.945  0.00  0.00    +0.000 C 
ATOM     22  N   UNL     1      48.409   2.832  15.643  0.00  0.00    +0.000 NA
ATOM     23  H   UNL     1      47.465   3.432  13.630  0.00  0.00    +0.000 HD
ENDBRANCH  14  15
ENDBRANCH   5  14
TORSDOF 3
ENDMDL
MODEL 2
REMARK VINA RESULT:    -7.932      3.714      7.191
REMARK INTER + INTRA:          -9.777
REMARK INTER:                  -9.193
REMARK INTRA:                  -0.584
REMARK UNBOUND:                -0.454
REMARK  Name = 
REMARK  5 active torsions:
REMARK  status: ('A' for Active; 'I' for Inactive)
REMARK    1  A    between atoms: C_1  and  C_2
REMARK    2  A    between atoms: C_6  and  C_7
REMARK    3  A    between atoms: C_11  and  C_12
REMARK    4  A    between atoms: C_12  and  N_13
REMARK    5  A    between atoms: C_18  and  C_19
REMARK                            x       y       z     vdW  Elec       q    Type
REMARK                         _______ _______ _______ _____ _____    ______ ____
ROOT
ATOM      1  C   UNL     1      46.846   6.700  12.422  0.00  0.00    +0.000 A 
ATOM      2  C   UNL     1      47.170   5.853  13.498  0.00  0.00    +0.000 A 
ATOM      3  C   UNL     1      46.376   4.751  13.828  0.00  0.00    +0.000 A 
ATOM      4  C   UNL     1      45.230   4.469  13.091  0.00  0.00    +0.000 A 
ATOM      5  C   UNL     1      44.862   5.291  12.020  0.00  0.00    +0.000 A 
ATOM      6  C   UNL     1      45.685   6.386  11.686  0.00  0.00    +0.000 A 
ENDROOT
BRANCH   1  12
ATOM      7  C   UNL     1      51.259   8.760  11.081  0.00  0.00    +0.000 C 
ATOM      8  C   UNL     1      49.818   8.888  11.458  0.00  0.00    +0.000 A 
ATOM      9  C   UNL     1      49.201  10.129  11.546  0.00  0.00    +0.000 A 
ATOM     10  N   UNL     1      47.904  10.301  11.872  0.00  0.00    +0.000 NA
ATOM     11  C   UNL     1      47.190   9.176  12.129  0.00  0.00    +0.000 A 
ATOM     12  C   UNL     1      47.690   7.871  12.093  0.00  0.00    +0.000 A 
ATOM     13  C   UNL     1      49.043   7.754  11.737  0.00  0.00    +0.000 A 
ENDBRANCH   1  12
BRANCH   5  14
ATOM     14  C   UNL     1      43.593   5.018  11.238  0.00  0.00    +0.000 C 
BRANCH  14  15
ATOM     15  N   UNL     1      43.853   5.130   9.820  0.00  0.00    +0.000 N 
ATOM     16  C   UNL     1      44.513   4.040   9.271  0.00  0.00    +0.000 A 
ATOM     17  N   UNL     1      44.309   2.807   9.760  0.00  0.00    +0.000 NA
ATOM     18  C   UNL     1      44.958   1.799   9.156  0.00  0.00    +0.000 A 
ATOM     19  C   UNL     1      45.808   1.968   8.090  0.00  0.00    +0.000 A 
ATOM     20  C   UNL     1      45.968   3.266   7.659  0.00  0.00    +0.000 A 
ATOM     21  C   UNL     1      46.864   3.589   6.501  0.00  0.00    +0.000 C 
ATOM     22  N   UNL     1      45.335   4.306   8.247  0.00  0.00    +0.000 NA
ATOM     23  H   UNL     1      44.368   5.953   9.534  0.00  0.00    +0.000 HD
ENDBRANCH  14  15
ENDBRANCH   5  14
TORSDOF 3
ENDMDL
MODEL 3
REMARK VINA RESULT:    -7.864      1.933      7.673
REMARK INTER + INTRA:          -9.697
REMARK INTER:                  -9.116
REMARK INTRA:                  -0.581
REMARK UNBOUND:                -0.454
REMARK  Name = 
REMARK  5 active torsions:
REMARK  status: ('A' for Active; 'I' for Inactive)
REMARK    1  A    between atoms: C_1  and  C_2
REMARK    2  A    between atoms: C_6  and  C_7
REMARK    3  A    between atoms: C_11  and  C_12
REMARK    4  A    between atoms: C_12  and  N_13
REMARK    5  A    between atoms: C_18  and  C_19
REMARK                            x       y       z     vdW  Elec       q    Type
REMARK                         _______ _______ _______ _____ _____    ______ ____
ROOT
ATOM      1  C   UNL     1      46.620   5.820  13.365  0.00  0.00    +0.000 A 
ATOM      2  C   UNL     1      46.703   7.108  12.807  0.00  0.00    +0.000 A 
ATOM      3  C   UNL     1      46.000   7.451  11.648  0.00  0.00    +0.000 A 
ATOM      4  C   UNL     1      45.195   6.509  11.014  0.00  0.00    +0.000 A 
ATOM      5  C   UNL     1      45.093   5.211  11.527  0.00  0.00    +0.000 A 
ATOM      6  C   UNL     1      45.792   4.887  12.708  0.00  0.00    +0.000 A 
ENDROOT
BRANCH   1  12
ATOM      7  C   UNL     1      47.441   2.899  17.405  0.00  0.00    +0.000 C 
ATOM      8  C   UNL     1      47.789   4.076  16.551  0.00  0.00    +0.000 A 
ATOM      9  C   UNL     1      48.839   4.923  16.879  0.00  0.00    +0.000 A 
ATOM     10  N   UNL     1      49.200   5.992  16.141  0.00  0.00    +0.000 NA
ATOM     11  C   UNL     1      48.471   6.229  15.022  0.00  0.00    +0.000 A 
ATOM     12  C   UNL     1      47.382   5.468  14.585  0.00  0.00    +0.000 A 
ATOM     13  C   UNL     1      47.060   4.363  15.387  0.00  0.00    +0.000 A 
ENDBRANCH   1  12
BRANCH   5  14
ATOM     14  C   UNL     1      44.255   4.165  10.820  0.00  0.00    +0.000 C 
BRANCH  14  15
ATOM     15  N   UNL     1      44.307   4.375   9.389  0.00  0.00    +0.000 N 
ATOM     16  C   UNL     1      45.098   3.461   8.706  0.00  0.00    +0.000 A 
ATOM     17  N   UNL     1      45.207   2.197   9.143  0.00  0.00    +0.000 NA
ATOM     18  C   UNL     1      45.963   1.364   8.412  0.00  0.00    +0.000 A 
ATOM     19  C   UNL     1      46.621   1.738   7.266  0.00  0.00    +0.000 A 
ATOM     20  C   UNL     1      46.464   3.055   6.895  0.00  0.00    +0.000 A 
ATOM     21  C   UNL     1      47.126   3.592   5.661  0.00  0.00    +0.000 C 
ATOM     22  N   UNL     1      45.715   3.924   7.611  0.00  0.00    +0.000 NA
ATOM     23  H   UNL     1      44.608   5.295   9.093  0.00  0.00    +0.000 HD
ENDBRANCH  14  15
ENDBRANCH   5  14
TORSDOF 3
ENDMDL
MODEL 4
REMARK VINA RESULT:    -7.122      2.769      3.298
REMARK INTER + INTRA:          -8.825
REMARK INTER:                  -8.377
REMARK INTRA:                  -0.448
REMARK UNBOUND:                -0.454
REMARK  Name = 
REMARK  5 active torsions:
REMARK  status: ('A' for Active; 'I' for Inactive)
REMARK    1  A    between atoms: C_1  and  C_2
REMARK    2  A    between atoms: C_6  and  C_7
REMARK    3  A    between atoms: C_11  and  C_12
REMARK    4  A    between atoms: C_12  and  N_13
REMARK    5  A    between atoms: C_18  and  C_19
REMARK                            x       y       z     vdW  Elec       q    Type
REMARK                         _______ _______ _______ _____ _____    ______ ____
ROOT
ATOM      1  C   UNL     1      45.598   6.227  11.443  0.00  0.00    +0.000 A 
ATOM      2  C   UNL     1      44.839   7.409  11.369  0.00  0.00    +0.000 A 
ATOM      3  C   UNL     1      45.173   8.543  12.113  0.00  0.00    +0.000 A 
ATOM      4  C   UNL     1      46.279   8.524  12.959  0.00  0.00    +0.000 A 
ATOM      5  C   UNL     1      47.056   7.366  13.074  0.00  0.00    +0.000 A 
ATOM      6  C   UNL     1      46.717   6.237  12.300  0.00  0.00    +0.000 A 
ENDROOT
BRANCH   1  12
ATOM      7  C   UNL     1      45.731   3.460   7.218  0.00  0.00    +0.000 C 
ATOM      8  C   UNL     1      45.263   3.682   8.621  0.00  0.00    +0.000 A 
ATOM      9  C   UNL     1      44.420   2.779   9.254  0.00  0.00    +0.000 A 
ATOM     10  N   UNL     1      43.975   2.925  10.518  0.00  0.00    +0.000 NA
ATOM     11  C   UNL     1      44.390   4.034  11.181  0.00  0.00    +0.000 A 
ATOM     12  C   UNL     1      45.222   5.029  10.659  0.00  0.00    +0.000 A 
ATOM     13  C   UNL     1      45.661   4.817   9.343  0.00  0.00    +0.000 A 
ENDBRANCH   1  12
BRANCH   5  14
ATOM     14  C   UNL     1      48.236   7.319  14.024  0.00  0.00    +0.000 C 
BRANCH  14  15
ATOM     15  N   UNL     1      47.870   6.613  15.232  0.00  0.00    +0.000 N 
ATOM     16  C   UNL     1      48.944   6.069  15.923  0.00  0.00    +0.000 A 
ATOM     17  N   UNL     1      50.139   6.678  15.910  0.00  0.00    +0.000 NA
ATOM     18  C   UNL     1      51.119   6.110  16.629  0.00  0.00    +0.000 A 
ATOM     19  C   UNL     1      50.961   4.955  17.356  0.00  0.00    +0.000 A 
ATOM     20  C   UNL     1      49.707   4.389  17.306  0.00  0.00    +0.000 A 
ATOM     21  C   UNL     1      49.399   3.129  18.057  0.00  0.00    +0.000 C 
ATOM     22  N   UNL     1      48.698   4.931  16.587  0.00  0.00    +0.000 NA
ATOM     23  H   UNL     1      47.195   5.867  15.114  0.00  0.00    +0.000 HD
ENDBRANCH  14  15
ENDBRANCH   5  14
TORSDOF 3
ENDMDL
MODEL 5
REMARK VINA RESULT:    -6.740      2.705      4.279
REMARK INTER + INTRA:          -8.376
REMARK INTER:                  -7.731
REMARK INTRA:                  -0.645
REMARK UNBOUND:                -0.454
REMARK  Name = 
REMARK  5 active torsions:
REMARK  status: ('A' for Active; 'I' for Inactive)
REMARK    1  A    between atoms: C_1  and  C_2
REMARK    2  A    between atoms: C_6  and  C_7
REMARK    3  A    between atoms: C_11  and  C_12
REMARK    4  A    between atoms: C_12  and  N_13
REMARK    5  A    between atoms: C_18  and  C_19
REMARK                            x       y       z     vdW  Elec       q    Type
REMARK                         _______ _______ _______ _____ _____    ______ ____
ROOT
ATOM      1  C   UNL     1      45.899   6.240  12.799  0.00  0.00    +0.000 A 
ATOM      2  C   UNL     1      45.371   7.538  12.675  0.00  0.00    +0.000 A 
ATOM      3  C   UNL     1      46.084   8.663  13.099  0.00  0.00    +0.000 A 
ATOM      4  C   UNL     1      47.348   8.517  13.664  0.00  0.00    +0.000 A 
ATOM      5  C   UNL     1      47.907   7.244  13.819  0.00  0.00    +0.000 A 
ATOM      6  C   UNL     1      47.184   6.121  13.367  0.00  0.00    +0.000 A 
ENDROOT
BRANCH   1  12
ATOM      7  C   UNL     1      44.478   2.926   9.260  0.00  0.00    +0.000 C 
ATOM      8  C   UNL     1      44.415   3.453  10.658  0.00  0.00    +0.000 A 
ATOM      9  C   UNL     1      43.597   2.868  11.615  0.00  0.00    +0.000 A 
ATOM     10  N   UNL     1      43.509   3.295  12.891  0.00  0.00    +0.000 NA
ATOM     11  C   UNL     1      44.273   4.365  13.224  0.00  0.00    +0.000 A 
ATOM     12  C   UNL     1      45.125   5.057  12.358  0.00  0.00    +0.000 A 
ATOM     13  C   UNL     1      45.183   4.560  11.047  0.00  0.00    +0.000 A 
ENDBRANCH   1  12
BRANCH   5  14
ATOM     14  C   UNL     1      49.264   7.071  14.473  0.00  0.00    +0.000 C 
BRANCH  14  15
ATOM     15  N   UNL     1      49.200   7.484  15.857  0.00  0.00    +0.000 N 
ATOM     16  C   UNL     1      49.012   6.444  16.756  0.00  0.00    +0.000 A 
ATOM     17  N   UNL     1      49.520   5.228  16.503  0.00  0.00    +0.000 NA
ATOM     18  C   UNL     1      49.325   4.282  17.435  0.00  0.00    +0.000 A 
ATOM     19  C   UNL     1      48.639   4.493  18.605  0.00  0.00    +0.000 A 
ATOM     20  C   UNL     1      48.141   5.765  18.780  0.00  0.00    +0.000 A 
ATOM     21  C   UNL     1      47.376   6.131  20.016  0.00  0.00    +0.000 C 
ATOM     22  N   UNL     1      48.314   6.741  17.860  0.00  0.00    +0.000 NA
ATOM     23  H   UNL     1      48.500   8.183  16.074  0.00  0.00    +0.000 HD
ENDBRANCH  14  15
ENDBRANCH   5  14
TORSDOF 3
ENDMDL
MODEL 6
REMARK VINA RESULT:    -6.607      2.933      4.578
REMARK INTER + INTRA:          -8.219
REMARK INTER:                  -7.627
REMARK INTRA:                  -0.592
REMARK UNBOUND:                -0.454
REMARK  Name = 
REMARK  5 active torsions:
REMARK  status: ('A' for Active; 'I' for Inactive)
REMARK    1  A    between atoms: C_1  and  C_2
REMARK    2  A    between atoms: C_6  and  C_7
REMARK    3  A    between atoms: C_11  and  C_12
REMARK    4  A    between atoms: C_12  and  N_13
REMARK    5  A    between atoms: C_18  and  C_19
REMARK                            x       y       z     vdW  Elec       q    Type
REMARK                         _______ _______ _______ _____ _____    ______ ____
ROOT
ATOM      1  C   UNL     1      47.342   6.731  12.360  0.00  0.00    +0.000 A 
ATOM      2  C   UNL     1      48.076   7.374  11.346  0.00  0.00    +0.000 A 
ATOM      3  C   UNL     1      49.292   8.009  11.613  0.00  0.00    +0.000 A 
ATOM      4  C   UNL     1      49.806   8.020  12.907  0.00  0.00    +0.000 A 
ATOM      5  C   UNL     1      49.104   7.404  13.948  0.00  0.00    +0.000 A 
ATOM      6  C   UNL     1      47.889   6.750  13.658  0.00  0.00    +0.000 A 
ENDROOT
BRANCH   1  12
ATOM      7  C   UNL     1      44.240   4.217   9.265  0.00  0.00    +0.000 C 
ATOM      8  C   UNL     1      44.528   4.871  10.578  0.00  0.00    +0.000 A 
ATOM      9  C   UNL     1      43.574   4.920  11.586  0.00  0.00    +0.000 A 
ATOM     10  N   UNL     1      43.784   5.488  12.791  0.00  0.00    +0.000 NA
ATOM     11  C   UNL     1      45.006   6.040  12.996  0.00  0.00    +0.000 A 
ATOM     12  C   UNL     1      46.048   6.076  12.064  0.00  0.00    +0.000 A 
ATOM     13  C   UNL     1      45.775   5.459  10.832  0.00  0.00    +0.000 A 
ENDBRANCH   1  12
BRANCH   5  14
ATOM     14  C   UNL     1      49.633   7.448  15.367  0.00  0.00    +0.000 C 
BRANCH  14  15
ATOM     15  N   UNL     1      48.672   6.856  16.272  0.00  0.00    +0.000 N 
ATOM     16  C   UNL     1      49.029   5.602  16.746  0.00  0.00    +0.000 A 
ATOM     17  N   UNL     1      50.320   5.291  16.938  0.00  0.00    +0.000 NA
ATOM     18  C   UNL     1      50.585   4.071  17.430  0.00  0.00    +0.000 A 
ATOM     19  C   UNL     1      49.618   3.144  17.732  0.00  0.00    +0.000 A 
ATOM     20  C   UNL     1      48.320   3.540  17.495  0.00  0.00    +0.000 A 
ATOM     21  C   UNL     1      47.169   2.625  17.786  0.00  0.00    +0.000 C 
ATOM     22  N   UNL     1      48.018   4.759  16.995  0.00  0.00    +0.000 NA
ATOM     23  H   UNL     1      47.729   6.771  15.912  0.00  0.00    +0.000 HD
ENDBRANCH  14  15
ENDBRANCH   5  14
TORSDOF 3
ENDMDL
MODEL 7
REMARK VINA RESULT:    -6.384      4.699      5.552
REMARK INTER + INTRA:          -7.957
REMARK INTER:                  -7.351
REMARK INTRA:                  -0.606
REMARK UNBOUND:                -0.454
REMARK  Name = 
REMARK  5 active torsions:
REMARK  status: ('A' for Active; 'I' for Inactive)
REMARK    1  A    between atoms: C_1  and  C_2
REMARK    2  A    between atoms: C_6  and  C_7
REMARK    3  A    between atoms: C_11  and  C_12
REMARK    4  A    between atoms: C_12  and  N_13
REMARK    5  A    between atoms: C_18  and  C_19
REMARK                            x       y       z     vdW  Elec       q    Type
REMARK                         _______ _______ _______ _____ _____    ______ ____
ROOT
ATOM      1  C   UNL     1      45.624   6.214  11.403  0.00  0.00    +0.000 A 
ATOM      2  C   UNL     1      44.857   7.393  11.393  0.00  0.00    +0.000 A 
ATOM      3  C   UNL     1      45.223   8.513  12.144  0.00  0.00    +0.000 A 
ATOM      4  C   UNL     1      46.370   8.481  12.933  0.00  0.00    +0.000 A 
ATOM      5  C   UNL     1      47.157   7.325  12.984  0.00  0.00    +0.000 A 
ATOM      6  C   UNL     1      46.784   6.211  12.203  0.00  0.00    +0.000 A 
ENDROOT
BRANCH   1  12
ATOM      7  C   UNL     1      45.678   3.469   7.162  0.00  0.00    +0.000 C 
ATOM      8  C   UNL     1      45.217   3.696   8.567  0.00  0.00    +0.000 A 
ATOM      9  C   UNL     1      44.350   2.812   9.195  0.00  0.00    +0.000 A 
ATOM     10  N   UNL     1      43.911   2.963  10.460  0.00  0.00    +0.000 NA
ATOM     11  C   UNL     1      44.356   4.056  11.129  0.00  0.00    +0.000 A 
ATOM     12  C   UNL     1      45.215   5.032  10.612  0.00  0.00    +0.000 A 
ATOM     13  C   UNL     1      45.647   4.815   9.294  0.00  0.00    +0.000 A 
ENDBRANCH   1  12
BRANCH   5  14
ATOM     14  C   UNL     1      48.382   7.264  13.873  0.00  0.00    +0.000 C 
BRANCH  14  15
ATOM     15  N   UNL     1      49.557   6.983  13.077  0.00  0.00    +0.000 N 
ATOM     16  C   UNL     1      50.268   8.110  12.690  0.00  0.00    +0.000 A 
ATOM     17  N   UNL     1      50.312   9.191  13.483  0.00  0.00    +0.000 NA
ATOM     18  C   UNL     1      51.047  10.230  13.055  0.00  0.00    +0.000 A 
ATOM     19  C   UNL     1      51.735  10.240  11.867  0.00  0.00    +0.000 A 
ATOM     20  C   UNL     1      51.628   9.094  11.109  0.00  0.00    +0.000 A 
ATOM     21  C   UNL     1      52.333   8.972   9.792  0.00  0.00    +0.000 C 
ATOM     22  N   UNL     1      50.891   8.032  11.506  0.00  0.00    +0.000 NA
ATOM     23  H   UNL     1      49.396   6.441  12.238  0.00  0.00    +0.000 HD
ENDBRANCH  14  15
ENDBRANCH   5  14
TORSDOF 3
ENDMDL
MODEL 8
REMARK VINA RESULT:    -6.274      3.228      5.078
REMARK INTER + INTRA:          -7.828
REMARK INTER:                  -7.338
REMARK INTRA:                  -0.490
REMARK UNBOUND:                -0.454
REMARK  Name = 
REMARK  5 active torsions:
REMARK  status: ('A' for Active; 'I' for Inactive)
REMARK    1  A    between atoms: C_1  and  C_2
REMARK    2  A    between atoms: C_6  and  C_7
REMARK    3  A    between atoms: C_11  and  C_12
REMARK    4  A    between atoms: C_12  and  N_13
REMARK    5  A    between atoms: C_18  and  C_19
REMARK                            x       y       z     vdW  Elec       q    Type
REMARK                         _______ _______ _______ _____ _____    ______ ____
ROOT
ATOM      1  C   UNL     1      45.225   6.506  11.977  0.00  0.00    +0.000 A 
ATOM      2  C   UNL     1      44.576   5.636  11.082  0.00  0.00    +0.000 A 
ATOM      3  C   UNL     1      44.650   4.248  11.227  0.00  0.00    +0.000 A 
ATOM      4  C   UNL     1      45.381   3.691  12.272  0.00  0.00    +0.000 A 
ATOM      5  C   UNL     1      46.054   4.518  13.178  0.00  0.00    +0.000 A 
ATOM      6  C   UNL     1      45.952   5.917  13.031  0.00  0.00    +0.000 A 
ENDROOT
BRANCH   1  12
ATOM      7  C   UNL     1      42.991  10.654  10.153  0.00  0.00    +0.000 C 
ATOM      8  C   UNL     1      44.092   9.991  10.919  0.00  0.00    +0.000 A 
ATOM      9  C   UNL     1      45.123  10.727  11.486  0.00  0.00    +0.000 A 
ATOM     10  N   UNL     1      46.133  10.183  12.193  0.00  0.00    +0.000 NA
ATOM     11  C   UNL     1      46.115   8.834  12.334  0.00  0.00    +0.000 A 
ATOM     12  C   UNL     1      45.149   7.974  11.802  0.00  0.00    +0.000 A 
ATOM     13  C   UNL     1      44.117   8.599  11.086  0.00  0.00    +0.000 A 
ENDBRANCH   1  12
BRANCH   5  14
ATOM     14  C   UNL     1      46.889   3.922  14.294  0.00  0.00    +0.000 C 
BRANCH  14  15
ATOM     15  N   UNL     1      47.245   4.949  15.247  0.00  0.00    +0.000 N 
ATOM     16  C   UNL     1      47.823   4.470  16.415  0.00  0.00    +0.000 A 
ATOM     17  N   UNL     1      48.586   3.367  16.391  0.00  0.00    +0.000 NA
ATOM     18  C   UNL     1      49.138   2.984  17.553  0.00  0.00    +0.000 A 
ATOM     19  C   UNL     1      48.956   3.650  18.740  0.00  0.00    +0.000 A 
ATOM     20  C   UNL     1      48.150   4.766  18.678  0.00  0.00    +0.000 A 
ATOM     21  C   UNL     1      47.872   5.586  19.901  0.00  0.00    +0.000 C 
ATOM     22  N   UNL     1      47.573   5.176  17.525  0.00  0.00    +0.000 NA
ATOM     23  H   UNL     1      46.491   5.563  15.530  0.00  0.00    +0.000 HD
ENDBRANCH  14  15
ENDBRANCH   5  14
TORSDOF 3
ENDMDL
MODEL 9
REMARK VINA RESULT:    -6.083      3.466      7.898
REMARK INTER + INTRA:          -7.604
REMARK INTER:                  -6.980
REMARK INTRA:                  -0.624
REMARK UNBOUND:                -0.454
REMARK  Name = 
REMARK  5 active torsions:
REMARK  status: ('A' for Active; 'I' for Inactive)
REMARK    1  A    between atoms: C_1  and  C_2
REMARK    2  A    between atoms: C_6  and  C_7
REMARK    3  A    between atoms: C_11  and  C_12
REMARK    4  A    between atoms: C_12  and  N_13
REMARK    5  A    between atoms: C_18  and  C_19
REMARK                            x       y       z     vdW  Elec       q    Type
REMARK                         _______ _______ _______ _____ _____    ______ ____
ROOT
ATOM      1  C   UNL     1      48.682   6.969  14.034  0.00  0.00    +0.000 A 
ATOM      2  C   UNL     1      49.549   7.278  12.970  0.00  0.00    +0.000 A 
ATOM      3  C   UNL     1      49.064   7.644  11.711  0.00  0.00    +0.000 A 
ATOM      4  C   UNL     1      47.692   7.707  11.482  0.00  0.00    +0.000 A 
ATOM      5  C   UNL     1      46.792   7.396  12.507  0.00  0.00    +0.000 A 
ATOM      6  C   UNL     1      47.298   7.049  13.777  0.00  0.00    +0.000 A 
ENDROOT
BRANCH   1  12
ATOM      7  C   UNL     1      52.328   6.920  17.530  0.00  0.00    +0.000 C 
ATOM      8  C   UNL     1      50.967   6.522  17.055  0.00  0.00    +0.000 A 
ATOM      9  C   UNL     1      50.135   5.726  17.830  0.00  0.00    +0.000 A 
ATOM     10  N   UNL     1      48.897   5.346  17.456  0.00  0.00    +0.000 NA
ATOM     11  C   UNL     1      48.472   5.779  16.242  0.00  0.00    +0.000 A 
ATOM     12  C   UNL     1      49.212   6.569  15.357  0.00  0.00    +0.000 A 
ATOM     13  C   UNL     1      50.488   6.942  15.805  0.00  0.00    +0.000 A 
ENDBRANCH   1  12
BRANCH   5  14
ATOM     14  C   UNL     1      45.298   7.419  12.256  0.00  0.00    +0.000 C 
BRANCH  14  15
ATOM     15  N   UNL     1      44.992   6.708  11.034  0.00  0.00    +0.000 N 
ATOM     16  C   UNL     1      44.522   5.416  11.227  0.00  0.00    +0.000 A 
ATOM     17  N   UNL     1      43.790   5.114  12.310  0.00  0.00    +0.000 NA
ATOM     18  C   UNL     1      43.344   3.852  12.410  0.00  0.00    +0.000 A 
ATOM     19  C   UNL     1      43.603   2.875  11.480  0.00  0.00    +0.000 A 
ATOM     20  C   UNL     1      44.371   3.267  10.405  0.00  0.00    +0.000 A 
ATOM     21  C   UNL     1      44.723   2.300   9.316  0.00  0.00    +0.000 C 
ATOM     22  N   UNL     1      44.841   4.528  10.275  0.00  0.00    +0.000 NA
ATOM     23  H   UNL     1      45.749   6.643  10.365  0.00  0.00    +0.000 HD
ENDBRANCH  14  15
ENDBRANCH   5  14
TORSDOF 3
ENDMDL
