MODEL 1
REMARK VINA RESULT:    -7.761      0.000      0.000
REMARK INTER + INTRA:         -10.821
REMARK INTER:                 -10.256
REMARK INTRA:                  -0.565
REMARK UNBOUND:                -0.565
REMARK  Name = 
REMARK  6 active torsions:
REMARK  status: ('A' for Active; 'I' for Inactive)
REMARK    1  A    between atoms: N_1  and  C_2
REMARK    2  A    between atoms: C_2  and  C_3
REMARK    3  A    between atoms: C_3  and  C_4
REMARK    4  A    between atoms: C_7  and  C_8
REMARK    5  A    between atoms: C_8  and  N_9
REMARK    6  A    between atoms: C_14  and  C_15
REMARK                            x       y       z     vdW  Elec       q    Type
REMARK                         _______ _______ _______ _____ _____    ______ ____
ROOT
ATOM      1  N   UNL     1      44.754   5.675  11.190  0.00  0.00    +0.000 N 
ATOM      2  C   UNL     1      44.873   7.042  11.272  0.00  0.00    +0.000 A 
ATOM      3  C   UNL     1      45.619   7.340  12.389  0.00  0.00    +0.000 A 
ATOM      4  C   UNL     1      45.959   6.115  13.021  0.00  0.00    +0.000 A 
ATOM      5  C   UNL     1      46.671   5.795  14.196  0.00  0.00    +0.000 A 
ATOM      6  C   UNL     1      46.831   4.452  14.580  0.00  0.00    +0.000 A 
ATOM      7  C   UNL     1      46.291   3.440  13.775  0.00  0.00    +0.000 A 
ATOM      8  C   UNL     1      45.587   3.734  12.601  0.00  0.00    +0.000 A 
ATOM      9  C   UNL     1      45.422   5.082  12.249  0.00  0.00    +0.000 A 
ENDROOT
BRANCH   6  10
ATOM     10  C   UNL     1      47.569   4.095  15.846  0.00  0.00    +0.000 C 
ATOM     11  F   UNL     1      46.779   4.093  16.958  0.00  0.00    +0.000 F 
ATOM     12  F   UNL     1      48.131   2.855  15.791  0.00  0.00    +0.000 F 
ATOM     13  F   UNL     1      48.590   4.954  16.119  0.00  0.00    +0.000 F 
ENDBRANCH   6  10
BRANCH   1  14
ATOM     14  C   UNL     1      43.886   4.988  10.241  0.00  0.00    +0.000 C 
BRANCH  14  18
ATOM     15  C   UNL     1      46.164   2.232   7.902  0.00  0.00    +0.000 A 
ATOM     16  C   UNL     1      45.201   1.742   8.787  0.00  0.00    +0.000 A 
ATOM     17  C   UNL     1      44.419   2.631   9.524  0.00  0.00    +0.000 A 
ATOM     18  C   UNL     1      44.622   4.002   9.371  0.00  0.00    +0.000 A 
ATOM     19  N   UNL     1      45.538   4.499   8.502  0.00  0.00    +0.000 NA
ATOM     20  C   UNL     1      46.266   3.613   7.782  0.00  0.00    +0.000 A 
BRANCH  15  21
ATOM     21  C   UNL     1      47.041   1.302   7.104  0.00  0.00    +0.000 C 
BRANCH  21  22
ATOM     22  C   UNL     1      48.330   1.975   6.607  0.00  0.00    +0.000 C 
BRANCH  22  23
ATOM     23  N   UNL     1      48.387   1.998   5.146  0.00  0.00    +0.000 NA
ATOM     24  H   UNL     1      48.533   1.050   4.801  0.00  0.00    +0.000 HD
ATOM     25  H   UNL     1      49.197   2.537   4.840  0.00  0.00    +0.000 HD
ENDBRANCH  22  23
ENDBRANCH  21  22
ENDBRANCH  15  21
ENDBRANCH  14  18
ENDBRANCH   1  14
TORSDOF 6
ENDMDL
MODEL 2
REMARK VINA RESULT:    -7.685      1.793      2.615
REMARK INTER + INTRA:         -10.720
REMARK INTER:                 -10.028
REMARK INTRA:                  -0.692
REMARK UNBOUND:                -0.565
REMARK  Name = 
REMARK  6 active torsions:
REMARK  status: ('A' for Active; 'I' for Inactive)
REMARK    1  A    between atoms: N_1  and  C_2
REMARK    2  A    between atoms: C_2  and  C_3
REMARK    3  A    between atoms: C_3  and  C_4
REMARK    4  A    between atoms: C_7  and  C_8
REMARK    5  A    between atoms: C_8  and  N_9
REMARK    6  A    between atoms: C_14  and  C_15
REMARK                            x       y       z     vdW  Elec       q    Type
REMARK                         _______ _______ _______ _____ _____    ______ ____
ROOT
ATOM      1  N   UNL     1      44.410   4.892  11.600  0.00  0.00    +0.000 N 
ATOM      2  C   UNL     1      44.048   4.158  12.705  0.00  0.00    +0.000 A 
ATOM      3  C   UNL     1      44.959   4.414  13.704  0.00  0.00    +0.000 A 
ATOM      4  C   UNL     1      45.919   5.325  13.192  0.00  0.00    +0.000 A 
ATOM      5  C   UNL     1      47.082   5.914  13.731  0.00  0.00    +0.000 A 
ATOM      6  C   UNL     1      47.857   6.789  12.949  0.00  0.00    +0.000 A 
ATOM      7  C   UNL     1      47.452   7.080  11.639  0.00  0.00    +0.000 A 
ATOM      8  C   UNL     1      46.298   6.512  11.086  0.00  0.00    +0.000 A 
ATOM      9  C   UNL     1      45.551   5.626  11.878  0.00  0.00    +0.000 A 
ENDROOT
BRANCH   6  10
ATOM     10  C   UNL     1      49.116   7.407  13.503  0.00  0.00    +0.000 C 
ATOM     11  F   UNL     1      49.567   6.807  14.642  0.00  0.00    +0.000 F 
ATOM     12  F   UNL     1      50.155   7.354  12.623  0.00  0.00    +0.000 F 
ATOM     13  F   UNL     1      48.961   8.724  13.815  0.00  0.00    +0.000 F 
ENDBRANCH   6  10
BRANCH   1  14
ATOM     14  C   UNL     1      43.789   4.750  10.289  0.00  0.00    +0.000 C 
BRANCH  14  18
ATOM     15  C   UNL     1      46.170   2.258   7.764  0.00  0.00    +0.000 A 
ATOM     16  C   UNL     1      45.426   1.675   8.790  0.00  0.00    +0.000 A 
ATOM     17  C   UNL     1      44.609   2.470   9.594  0.00  0.00    +0.000 A 
ATOM     18  C   UNL     1      44.559   3.845   9.363  0.00  0.00    +0.000 A 
ATOM     19  N   UNL     1      45.259   4.429   8.358  0.00  0.00    +0.000 NA
ATOM     20  C   UNL     1      46.026   3.628   7.579  0.00  0.00    +0.000 A 
BRANCH  15  21
ATOM     21  C   UNL     1      47.079   1.434   6.888  0.00  0.00    +0.000 C 
BRANCH  21  22
ATOM     22  C   UNL     1      48.322   2.207   6.422  0.00  0.00    +0.000 C 
BRANCH  22  23
ATOM     23  N   UNL     1      48.264   2.493   4.989  0.00  0.00    +0.000 NA
ATOM     24  H   UNL     1      47.294   2.450   4.677  0.00  0.00    +0.000 HD
ATOM     25  H   UNL     1      48.757   1.766   4.470  0.00  0.00    +0.000 HD
ENDBRANCH  22  23
ENDBRANCH  21  22
ENDBRANCH  15  21
ENDBRANCH  14  18
ENDBRANCH   1  14
TORSDOF 6
ENDMDL
MODEL 3
REMARK VINA RESULT:    -7.678      4.212      7.302
REMARK INTER + INTRA:         -10.712
REMARK INTER:                 -10.101
REMARK INTRA:                  -0.611
REMARK UNBOUND:                -0.565
REMARK  Name = 
REMARK  6 active torsions:
REMARK  status: ('A' for Active; 'I' for Inactive)
REMARK    1  A    between atoms: N_1  and  C_2
REMARK    2  A    between atoms: C_2  and  C_3
REMARK    3  A    between atoms: C_3  and  C_4
REMARK    4  A    between atoms: C_7  and  C_8
REMARK    5  A    between atoms: C_8  and  N_9
REMARK    6  A    between atoms: C_14  and  C_15
REMARK                            x       y       z     vdW  Elec       q    Type
REMARK                         _______ _______ _______ _____ _____    ______ ____
ROOT
ATOM      1  N   UNL     1      43.958   4.492  10.923  0.00  0.00    +0.000 N 
ATOM      2  C   UNL     1      43.411   3.378  11.514  0.00  0.00    +0.000 A 
ATOM      3  C   UNL     1      43.860   2.270  10.833  0.00  0.00    +0.000 A 
ATOM      4  C   UNL     1      44.702   2.719   9.782  0.00  0.00    +0.000 A 
ATOM      5  C   UNL     1      45.409   2.058   8.757  0.00  0.00    +0.000 A 
ATOM      6  C   UNL     1      46.164   2.799   7.830  0.00  0.00    +0.000 A 
ATOM      7  C   UNL     1      46.216   4.194   7.946  0.00  0.00    +0.000 A 
ATOM      8  C   UNL     1      45.526   4.871   8.960  0.00  0.00    +0.000 A 
ATOM      9  C   UNL     1      44.765   4.113   9.862  0.00  0.00    +0.000 A 
ENDROOT
BRANCH   6  10
ATOM     10  C   UNL     1      46.906   2.108   6.713  0.00  0.00    +0.000 C 
ATOM     11  F   UNL     1      46.763   0.752   6.716  0.00  0.00    +0.000 F 
ATOM     12  F   UNL     1      46.496   2.519   5.480  0.00  0.00    +0.000 F 
ATOM     13  F   UNL     1      48.248   2.339   6.753  0.00  0.00    +0.000 F 
ENDBRANCH   6  10
BRANCH   1  14
ATOM     14  C   UNL     1      43.577   5.860  11.253  0.00  0.00    +0.000 C 
BRANCH  14  18
ATOM     15  C   UNL     1      46.893   8.006  12.883  0.00  0.00    +0.000 A 
ATOM     16  C   UNL     1      45.958   8.687  12.102  0.00  0.00    +0.000 A 
ATOM     17  C   UNL     1      44.846   8.010  11.601  0.00  0.00    +0.000 A 
ATOM     18  C   UNL     1      44.694   6.652  11.881  0.00  0.00    +0.000 A 
ATOM     19  N   UNL     1      45.581   5.976  12.654  0.00  0.00    +0.000 NA
ATOM     20  C   UNL     1      46.638   6.665  13.147  0.00  0.00    +0.000 A 
BRANCH  15  21
ATOM     21  C   UNL     1      48.117   8.699  13.425  0.00  0.00    +0.000 C 
BRANCH  21  22
ATOM     22  C   UNL     1      48.392   8.360  14.898  0.00  0.00    +0.000 C 
BRANCH  22  23
ATOM     23  N   UNL     1      47.607   9.207  15.794  0.00  0.00    +0.000 NA
ATOM     24  H   UNL     1      47.745  10.185  15.538  0.00  0.00    +0.000 HD
ATOM     25  H   UNL     1      47.953   9.116  16.749  0.00  0.00    +0.000 HD
ENDBRANCH  22  23
ENDBRANCH  21  22
ENDBRANCH  15  21
ENDBRANCH  14  18
ENDBRANCH   1  14
TORSDOF 6
ENDMDL
MODEL 4
REMARK VINA RESULT:    -7.158      2.746      3.819
REMARK INTER + INTRA:         -10.024
REMARK INTER:                  -9.499
REMARK INTRA:                  -0.526
REMARK UNBOUND:                -0.565
REMARK  Name = 
REMARK  6 active torsions:
REMARK  status: ('A' for Active; 'I' for Inactive)
REMARK    1  A    between atoms: N_1  and  C_2
REMARK    2  A    between atoms: C_2  and  C_3
REMARK    3  A    between atoms: C_3  and  C_4
REMARK    4  A    between atoms: C_7  and  C_8
REMARK    5  A    between atoms: C_8  and  N_9
REMARK    6  A    between atoms: C_14  and  C_15
REMARK                            x       y       z     vdW  Elec       q    Type
REMARK                         _______ _______ _______ _____ _____    ______ ____
ROOT
ATOM      1  N   UNL     1      44.951   5.029  12.359  0.00  0.00    +0.000 N 
ATOM      2  C   UNL     1      45.755   4.326  13.225  0.00  0.00    +0.000 A 
ATOM      3  C   UNL     1      46.719   5.184  13.704  0.00  0.00    +0.000 A 
ATOM      4  C   UNL     1      46.507   6.452  13.102  0.00  0.00    +0.000 A 
ATOM      5  C   UNL     1      47.183   7.687  13.180  0.00  0.00    +0.000 A 
ATOM      6  C   UNL     1      46.730   8.788  12.430  0.00  0.00    +0.000 A 
ATOM      7  C   UNL     1      45.595   8.645  11.620  0.00  0.00    +0.000 A 
ATOM      8  C   UNL     1      44.905   7.430  11.532  0.00  0.00    +0.000 A 
ATOM      9  C   UNL     1      45.387   6.341  12.274  0.00  0.00    +0.000 A 
ENDROOT
BRANCH   6  10
ATOM     10  C   UNL     1      47.456  10.109  12.485  0.00  0.00    +0.000 C 
ATOM     11  F   UNL     1      46.635  11.191  12.361  0.00  0.00    +0.000 F 
ATOM     12  F   UNL     1      48.127  10.288  13.658  0.00  0.00    +0.000 F 
ATOM     13  F   UNL     1      48.388  10.236  11.501  0.00  0.00    +0.000 F 
ENDBRANCH   6  10
BRANCH   1  14
ATOM     14  C   UNL     1      43.928   4.417  11.518  0.00  0.00    +0.000 C 
BRANCH  14  18
ATOM     15  C   UNL     1      45.698   2.856   7.956  0.00  0.00    +0.000 A 
ATOM     16  C   UNL     1      45.119   1.976   8.872  0.00  0.00    +0.000 A 
ATOM     17  C   UNL     1      44.498   2.474  10.017  0.00  0.00    +0.000 A 
ATOM     18  C   UNL     1      44.477   3.851  10.234  0.00  0.00    +0.000 A 
ATOM     19  N   UNL     1      45.015   4.726   9.346  0.00  0.00    +0.000 NA
ATOM     20  C   UNL     1      45.591   4.214   8.232  0.00  0.00    +0.000 A 
BRANCH  15  21
ATOM     21  C   UNL     1      46.395   2.354   6.718  0.00  0.00    +0.000 C 
BRANCH  21  22
ATOM     22  C   UNL     1      47.924   2.485   6.798  0.00  0.00    +0.000 C 
BRANCH  22  23
ATOM     23  N   UNL     1      48.570   1.881   5.633  0.00  0.00    +0.000 NA
ATOM     24  H   UNL     1      49.579   2.015   5.701  0.00  0.00    +0.000 HD
ATOM     25  H   UNL     1      48.279   2.366   4.785  0.00  0.00    +0.000 HD
ENDBRANCH  22  23
ENDBRANCH  21  22
ENDBRANCH  15  21
ENDBRANCH  14  18
ENDBRANCH   1  14
TORSDOF 6
ENDMDL
MODEL 5
REMARK VINA RESULT:    -6.293      2.796      3.720
REMARK INTER + INTRA:          -8.881
REMARK INTER:                  -8.225
REMARK INTRA:                  -0.655
REMARK UNBOUND:                -0.565
REMARK  Name = 
REMARK  6 active torsions:
REMARK  status: ('A' for Active; 'I' for Inactive)
REMARK    1  A    between atoms: N_1  and  C_2
REMARK    2  A    between atoms: C_2  and  C_3
REMARK    3  A    between atoms: C_3  and  C_4
REMARK    4  A    between atoms: C_7  and  C_8
REMARK    5  A    between atoms: C_8  and  N_9
REMARK    6  A    between atoms: C_14  and  C_15
REMARK                            x       y       z     vdW  Elec       q    Type
REMARK                         _______ _______ _______ _____ _____    ______ ____
ROOT
ATOM      1  N   UNL     1      45.910   5.504  12.617  0.00  0.00    +0.000 N 
ATOM      2  C   UNL     1      46.267   4.515  13.503  0.00  0.00    +0.000 A 
ATOM      3  C   UNL     1      47.494   4.841  14.034  0.00  0.00    +0.000 A 
ATOM      4  C   UNL     1      47.909   6.065  13.446  0.00  0.00    +0.000 A 
ATOM      5  C   UNL     1      49.069   6.858  13.572  0.00  0.00    +0.000 A 
ATOM      6  C   UNL     1      49.199   8.041  12.824  0.00  0.00    +0.000 A 
ATOM      7  C   UNL     1      48.160   8.429  11.967  0.00  0.00    +0.000 A 
ATOM      8  C   UNL     1      46.998   7.661  11.830  0.00  0.00    +0.000 A 
ATOM      9  C   UNL     1      46.898   6.474  12.572  0.00  0.00    +0.000 A 
ENDROOT
BRANCH   6  10
ATOM     10  C   UNL     1      50.443   8.887  12.930  0.00  0.00    +0.000 C 
ATOM     11  F   UNL     1      51.058   8.808  14.145  0.00  0.00    +0.000 F 
ATOM     12  F   UNL     1      51.391   8.539  12.014  0.00  0.00    +0.000 F 
ATOM     13  F   UNL     1      50.197  10.211  12.725  0.00  0.00    +0.000 F 
ENDBRANCH   6  10
BRANCH   1  14
ATOM     14  C   UNL     1      44.758   5.423  11.726  0.00  0.00    +0.000 C 
BRANCH  14  18
ATOM     15  C   UNL     1      45.753   3.154   8.245  0.00  0.00    +0.000 A 
ATOM     16  C   UNL     1      45.079   2.530   9.296  0.00  0.00    +0.000 A 
ATOM     17  C   UNL     1      44.708   3.268  10.420  0.00  0.00    +0.000 A 
ATOM     18  C   UNL     1      45.029   4.624  10.478  0.00  0.00    +0.000 A 
ATOM     19  N   UNL     1      45.666   5.254   9.459  0.00  0.00    +0.000 NA
ATOM     20  C   UNL     1      45.993   4.517   8.371  0.00  0.00    +0.000 A 
BRANCH  15  21
ATOM     21  C   UNL     1      46.187   2.384   7.024  0.00  0.00    +0.000 C 
BRANCH  21  22
ATOM     22  C   UNL     1      47.515   2.890   6.440  0.00  0.00    +0.000 C 
BRANCH  22  23
ATOM     23  N   UNL     1      48.369   1.779   6.022  0.00  0.00    +0.000 NA
ATOM     24  H   UNL     1      47.808   1.097   5.512  0.00  0.00    +0.000 HD
ATOM     25  H   UNL     1      48.727   1.290   6.843  0.00  0.00    +0.000 HD
ENDBRANCH  22  23
ENDBRANCH  21  22
ENDBRANCH  15  21
ENDBRANCH  14  18
ENDBRANCH   1  14
TORSDOF 6
ENDMDL
MODEL 6
REMARK VINA RESULT:    -6.104      4.504      8.142
REMARK INTER + INTRA:          -8.632
REMARK INTER:                  -7.983
REMARK INTRA:                  -0.649
REMARK UNBOUND:                -0.565
REMARK  Name = 
REMARK  6 active torsions:
REMARK  status: ('A' for Active; 'I' for Inactive)
REMARK    1  A    between atoms: N_1  and  C_2
REMARK    2  A    between atoms: C_2  and  C_3
REMARK    3  A    between atoms: C_3  and  C_4
REMARK    4  A    between atoms: C_7  and  C_8
REMARK    5  A    between atoms: C_8  and  N_9
REMARK    6  A    between atoms: C_14  and  C_15
REMARK                            x       y       z     vdW  Elec       q    Type
REMARK                         _______ _______ _______ _____ _____    ______ ____
ROOT
ATOM      1  N   UNL     1      47.490   7.317  13.679  0.00  0.00    +0.000 N 
ATOM      2  C   UNL     1      46.974   8.575  13.474  0.00  0.00    +0.000 A 
ATOM      3  C   UNL     1      45.736   8.438  12.887  0.00  0.00    +0.000 A 
ATOM      4  C   UNL     1      45.490   7.051  12.715  0.00  0.00    +0.000 A 
ATOM      5  C   UNL     1      44.425   6.318  12.152  0.00  0.00    +0.000 A 
ATOM      6  C   UNL     1      44.480   4.913  12.110  0.00  0.00    +0.000 A 
ATOM      7  C   UNL     1      45.594   4.254  12.647  0.00  0.00    +0.000 A 
ATOM      8  C   UNL     1      46.659   4.961  13.217  0.00  0.00    +0.000 A 
ATOM      9  C   UNL     1      46.592   6.363  13.230  0.00  0.00    +0.000 A 
ENDROOT
BRANCH   6  10
ATOM     10  C   UNL     1      43.360   4.116  11.489  0.00  0.00    +0.000 C 
ATOM     11  F   UNL     1      43.607   3.734  10.203  0.00  0.00    +0.000 F 
ATOM     12  F   UNL     1      43.097   2.966  12.171  0.00  0.00    +0.000 F 
ATOM     13  F   UNL     1      42.185   4.803  11.453  0.00  0.00    +0.000 F 
ENDBRANCH   6  10
BRANCH   1  14
ATOM     14  C   UNL     1      48.856   7.058  14.117  0.00  0.00    +0.000 C 
BRANCH  14  18
ATOM     15  C   UNL     1      49.368   6.122  18.255  0.00  0.00    +0.000 A 
ATOM     16  C   UNL     1      49.296   7.460  17.862  0.00  0.00    +0.000 A 
ATOM     17  C   UNL     1      49.084   7.780  16.521  0.00  0.00    +0.000 A 
ATOM     18  C   UNL     1      48.958   6.751  15.589  0.00  0.00    +0.000 A 
ATOM     19  N   UNL     1      49.005   5.444  15.952  0.00  0.00    +0.000 NA
ATOM     20  C   UNL     1      49.189   5.163  17.264  0.00  0.00    +0.000 A 
BRANCH  15  21
ATOM     21  C   UNL     1      49.616   5.738  19.691  0.00  0.00    +0.000 C 
BRANCH  21  22
ATOM     22  C   UNL     1      48.351   5.232  20.401  0.00  0.00    +0.000 C 
BRANCH  22  23
ATOM     23  N   UNL     1      48.424   3.794  20.656  0.00  0.00    +0.000 NA
ATOM     24  H   UNL     1      49.148   3.385  20.066  0.00  0.00    +0.000 HD
ATOM     25  H   UNL     1      47.550   3.348  20.378  0.00  0.00    +0.000 HD
ENDBRANCH  22  23
ENDBRANCH  21  22
ENDBRANCH  15  21
ENDBRANCH  14  18
ENDBRANCH   1  14
TORSDOF 6
ENDMDL
MODEL 7
REMARK VINA RESULT:    -5.736      4.276      6.661
REMARK INTER + INTRA:          -8.145
REMARK INTER:                  -7.492
REMARK INTRA:                  -0.654
REMARK UNBOUND:                -0.565
REMARK  Name = 
REMARK  6 active torsions:
REMARK  status: ('A' for Active; 'I' for Inactive)
REMARK    1  A    between atoms: N_1  and  C_2
REMARK    2  A    between atoms: C_2  and  C_3
REMARK    3  A    between atoms: C_3  and  C_4
REMARK    4  A    between atoms: C_7  and  C_8
REMARK    5  A    between atoms: C_8  and  N_9
REMARK    6  A    between atoms: C_14  and  C_15
REMARK                            x       y       z     vdW  Elec       q    Type
REMARK                         _______ _______ _______ _____ _____    ______ ____
ROOT
ATOM      1  N   UNL     1      44.981   6.410  12.359  0.00  0.00    +0.000 N 
ATOM      2  C   UNL     1      44.253   5.726  13.304  0.00  0.00    +0.000 A 
ATOM      3  C   UNL     1      43.987   4.470  12.810  0.00  0.00    +0.000 A 
ATOM      4  C   UNL     1      44.560   4.384  11.515  0.00  0.00    +0.000 A 
ATOM      5  C   UNL     1      44.585   3.373  10.530  0.00  0.00    +0.000 A 
ATOM      6  C   UNL     1      45.238   3.598   9.305  0.00  0.00    +0.000 A 
ATOM      7  C   UNL     1      45.872   4.828   9.082  0.00  0.00    +0.000 A 
ATOM      8  C   UNL     1      45.865   5.842  10.047  0.00  0.00    +0.000 A 
ATOM      9  C   UNL     1      45.192   5.603  11.254  0.00  0.00    +0.000 A 
ENDROOT
BRANCH   6  10
ATOM     10  C   UNL     1      45.252   2.537   8.234  0.00  0.00    +0.000 C 
ATOM     11  F   UNL     1      45.030   3.022   6.979  0.00  0.00    +0.000 F 
ATOM     12  F   UNL     1      46.443   1.878   8.168  0.00  0.00    +0.000 F 
ATOM     13  F   UNL     1      44.308   1.577   8.433  0.00  0.00    +0.000 F 
ENDBRANCH   6  10
BRANCH   1  14
ATOM     14  C   UNL     1      45.298   7.831  12.447  0.00  0.00    +0.000 C 
BRANCH  14  18
ATOM     15  C   UNL     1      49.527   8.424  12.594  0.00  0.00    +0.000 A 
ATOM     16  C   UNL     1      48.735   9.336  11.896  0.00  0.00    +0.000 A 
ATOM     17  C   UNL     1      47.348   9.181  11.876  0.00  0.00    +0.000 A 
ATOM     18  C   UNL     1      46.777   8.103  12.551  0.00  0.00    +0.000 A 
ATOM     19  N   UNL     1      47.527   7.216  13.253  0.00  0.00    +0.000 NA
ATOM     20  C   UNL     1      48.868   7.406  13.273  0.00  0.00    +0.000 A 
BRANCH  15  21
ATOM     21  C   UNL     1      51.029   8.548  12.621  0.00  0.00    +0.000 C 
BRANCH  21  22
ATOM     22  C   UNL     1      51.662   8.455  11.225  0.00  0.00    +0.000 C 
BRANCH  22  23
ATOM     23  N   UNL     1      51.781   7.064  10.788  0.00  0.00    +0.000 NA
ATOM     24  H   UNL     1      52.044   6.483  11.584  0.00  0.00    +0.000 HD
ATOM     25  H   UNL     1      52.541   6.976  10.114  0.00  0.00    +0.000 HD
ENDBRANCH  22  23
ENDBRANCH  21  22
ENDBRANCH  15  21
ENDBRANCH  14  18
ENDBRANCH   1  14
TORSDOF 6
ENDMDL
MODEL 8
REMARK VINA RESULT:    -5.599      4.910      6.764
REMARK INTER + INTRA:          -7.964
REMARK INTER:                  -7.264
REMARK INTRA:                  -0.700
REMARK UNBOUND:                -0.565
REMARK  Name = 
REMARK  6 active torsions:
REMARK  status: ('A' for Active; 'I' for Inactive)
REMARK    1  A    between atoms: N_1  and  C_2
REMARK    2  A    between atoms: C_2  and  C_3
REMARK    3  A    between atoms: C_3  and  C_4
REMARK    4  A    between atoms: C_7  and  C_8
REMARK    5  A    between atoms: C_8  and  N_9
REMARK    6  A    between atoms: C_14  and  C_15
REMARK                            x       y       z     vdW  Elec       q    Type
REMARK                         _______ _______ _______ _____ _____    ______ ____
ROOT
ATOM      1  N   UNL     1      47.435   6.461  13.791  0.00  0.00    +0.000 N 
ATOM      2  C   UNL     1      47.642   5.609  14.850  0.00  0.00    +0.000 A 
ATOM      3  C   UNL     1      47.013   4.418  14.570  0.00  0.00    +0.000 A 
ATOM      4  C   UNL     1      46.388   4.547  13.301  0.00  0.00    +0.000 A 
ATOM      5  C   UNL     1      45.589   3.685  12.522  0.00  0.00    +0.000 A 
ATOM      6  C   UNL     1      45.090   4.117  11.280  0.00  0.00    +0.000 A 
ATOM      7  C   UNL     1      45.408   5.403  10.823  0.00  0.00    +0.000 A 
ATOM      8  C   UNL     1      46.205   6.273  11.577  0.00  0.00    +0.000 A 
ATOM      9  C   UNL     1      46.676   5.827  12.821  0.00  0.00    +0.000 A 
ENDROOT
BRANCH   6  10
ATOM     10  C   UNL     1      44.213   3.216  10.446  0.00  0.00    +0.000 C 
ATOM     11  F   UNL     1      44.882   2.171   9.880  0.00  0.00    +0.000 F 
ATOM     12  F   UNL     1      43.201   2.658  11.168  0.00  0.00    +0.000 F 
ATOM     13  F   UNL     1      43.615   3.874   9.415  0.00  0.00    +0.000 F 
ENDBRANCH   6  10
BRANCH   1  14
ATOM     14  C   UNL     1      47.798   7.873  13.798  0.00  0.00    +0.000 C 
BRANCH  14  18
ATOM     15  C   UNL     1      51.699   8.413  12.140  0.00  0.00    +0.000 A 
ATOM     16  C   UNL     1      50.607   8.272  11.282  0.00  0.00    +0.000 A 
ATOM     17  C   UNL     1      49.322   8.139  11.809  0.00  0.00    +0.000 A 
ATOM     18  C   UNL     1      49.152   8.140  13.193  0.00  0.00    +0.000 A 
ATOM     19  N   UNL     1      50.197   8.297  14.044  0.00  0.00    +0.000 NA
ATOM     20  C   UNL     1      51.430   8.446  13.504  0.00  0.00    +0.000 A 
BRANCH  15  21
ATOM     21  C   UNL     1      53.104   8.539  11.609  0.00  0.00    +0.000 C 
BRANCH  21  22
ATOM     22  C   UNL     1      53.491   7.389  10.666  0.00  0.00    +0.000 C 
BRANCH  22  23
ATOM     23  N   UNL     1      54.208   6.335  11.381  0.00  0.00    +0.000 NA
ATOM     24  H   UNL     1      55.176   6.624  11.524  0.00  0.00    +0.000 HD
ATOM     25  H   UNL     1      54.249   5.492  10.807  0.00  0.00    +0.000 HD
ENDBRANCH  22  23
ENDBRANCH  21  22
ENDBRANCH  15  21
ENDBRANCH  14  18
ENDBRANCH   1  14
TORSDOF 6
ENDMDL
MODEL 9
REMARK VINA RESULT:    -5.481      3.866      5.862
REMARK INTER + INTRA:          -7.808
REMARK INTER:                  -7.182
REMARK INTRA:                  -0.626
REMARK UNBOUND:                -0.565
REMARK  Name = 
REMARK  6 active torsions:
REMARK  status: ('A' for Active; 'I' for Inactive)
REMARK    1  A    between atoms: N_1  and  C_2
REMARK    2  A    between atoms: C_2  and  C_3
REMARK    3  A    between atoms: C_3  and  C_4
REMARK    4  A    between atoms: C_7  and  C_8
REMARK    5  A    between atoms: C_8  and  N_9
REMARK    6  A    between atoms: C_14  and  C_15
REMARK                            x       y       z     vdW  Elec       q    Type
REMARK                         _______ _______ _______ _____ _____    ______ ____
ROOT
ATOM      1  N   UNL     1      48.802   7.705  14.835  0.00  0.00    +0.000 N 
ATOM      2  C   UNL     1      48.639   9.070  14.849  0.00  0.00    +0.000 A 
ATOM      3  C   UNL     1      48.453   9.464  16.154  0.00  0.00    +0.000 A 
ATOM      4  C   UNL     1      48.490   8.301  16.967  0.00  0.00    +0.000 A 
ATOM      5  C   UNL     1      48.330   8.080  18.351  0.00  0.00    +0.000 A 
ATOM      6  C   UNL     1      48.406   6.775  18.870  0.00  0.00    +0.000 A 
ATOM      7  C   UNL     1      48.655   5.705  18.001  0.00  0.00    +0.000 A 
ATOM      8  C   UNL     1      48.823   5.902  16.625  0.00  0.00    +0.000 A 
ATOM      9  C   UNL     1      48.724   7.210  16.127  0.00  0.00    +0.000 A 
ENDROOT
BRANCH   6  10
ATOM     10  C   UNL     1      48.214   6.520  20.344  0.00  0.00    +0.000 C 
ATOM     11  F   UNL     1      49.270   6.915  21.111  0.00  0.00    +0.000 F 
ATOM     12  F   UNL     1      47.128   7.170  20.850  0.00  0.00    +0.000 F 
ATOM     13  F   UNL     1      48.023   5.202  20.628  0.00  0.00    +0.000 F 
ENDBRANCH   6  10
BRANCH   1  14
ATOM     14  C   UNL     1      48.847   6.902  13.619  0.00  0.00    +0.000 C 
BRANCH  14  18
ATOM     15  C   UNL     1      45.128   4.887  13.014  0.00  0.00    +0.000 A 
ATOM     16  C   UNL     1      45.209   6.258  12.763  0.00  0.00    +0.000 A 
ATOM     17  C   UNL     1      46.427   6.920  12.913  0.00  0.00    +0.000 A 
ATOM     18  C   UNL     1      47.547   6.198  13.324  0.00  0.00    +0.000 A 
ATOM     19  N   UNL     1      47.494   4.862  13.553  0.00  0.00    +0.000 NA
ATOM     20  C   UNL     1      46.304   4.241  13.377  0.00  0.00    +0.000 A 
BRANCH  15  21
ATOM     21  C   UNL     1      43.825   4.141  12.882  0.00  0.00    +0.000 C 
BRANCH  21  22
ATOM     22  C   UNL     1      43.696   3.394  11.545  0.00  0.00    +0.000 C 
BRANCH  22  23
ATOM     23  N   UNL     1      42.965   2.138  11.707  0.00  0.00    +0.000 NA
ATOM     24  H   UNL     1      42.150   2.142  11.095  0.00  0.00    +0.000 HD
ATOM     25  H   UNL     1      42.602   2.068  12.657  0.00  0.00    +0.000 HD
ENDBRANCH  22  23
ENDBRANCH  21  22
ENDBRANCH  15  21
ENDBRANCH  14  18
ENDBRANCH   1  14
TORSDOF 6
ENDMDL
