MODEL 1
REMARK VINA RESULT:    -7.573      0.000      0.000
REMARK INTER + INTRA:         -10.074
REMARK INTER:                  -9.787
REMARK INTRA:                  -0.287
REMARK UNBOUND:                -0.287
REMARK  Name = 
REMARK  5 active torsions:
REMARK  status: ('A' for Active; 'I' for Inactive)
REMARK    1  A    between atoms: C_2  and  C_3
REMARK    2  A    between atoms: C_6  and  C_7
REMARK    3  A    between atoms: C_7  and  C_8
REMARK    4  A    between atoms: C_8  and  C_9
REMARK    5  A    between atoms: C_13  and  C_14
REMARK                            x       y       z     vdW  Elec       q    Type
REMARK                         _______ _______ _______ _____ _____    ______ ____
ROOT
ATOM      1  C   UNL     1      44.805   3.868  12.601  0.00  0.00    +0.000 C 
ENDROOT
BRANCH   1   2
ATOM      2  C   UNL     1      45.919   4.722  13.168  0.00  0.00    +0.000 A 
ATOM      3  C   UNL     1      46.439   5.800  12.458  0.00  0.00    +0.000 A 
ATOM      4  C   UNL     1      47.474   6.537  13.012  0.00  0.00    +0.000 A 
ATOM      5  C   UNL     1      47.975   6.173  14.255  0.00  0.00    +0.000 A 
ATOM      6  C   UNL     1      47.419   5.085  14.927  0.00  0.00    +0.000 A 
ATOM      7  N   UNL     1      46.410   4.354  14.383  0.00  0.00    +0.000 NA
BRANCH   6   8
ATOM      8  C   UNL     1      47.881   4.670  16.266  0.00  0.00    +0.000 A 
ATOM      9  C   UNL     1      47.512   3.435  16.821  0.00  0.00    +0.000 A 
ATOM     10  C   UNL     1      47.955   3.098  18.092  0.00  0.00    +0.000 A 
ATOM     11  N   UNL     1      48.737   3.892  18.847  0.00  0.00    +0.000 NA
ATOM     12  C   UNL     1      49.103   5.070  18.300  0.00  0.00    +0.000 A 
ATOM     13  C   UNL     1      48.712   5.493  17.039  0.00  0.00    +0.000 A 
ENDBRANCH   6   8
ENDBRANCH   1   2
BRANCH   1  14
ATOM     14  C   UNL     1      44.232   4.390  11.287  0.00  0.00    +0.000 C 
ATOM     15  C   UNL     1      42.737   4.699  11.224  0.00  0.00    +0.000 C 
ATOM     16  C   UNL     1      43.720   5.825  11.281  0.00  0.00    +0.000 C 
BRANCH  14  20
ATOM     17  C   UNL     1      46.249   2.774   7.853  0.00  0.00    +0.000 A 
ATOM     18  C   UNL     1      46.165   4.155   7.989  0.00  0.00    +0.000 A 
ATOM     19  C   UNL     1      45.475   4.692   9.078  0.00  0.00    +0.000 A 
ATOM     20  C   UNL     1      44.894   3.843  10.022  0.00  0.00    +0.000 A 
ATOM     21  N   UNL     1      44.960   2.492   9.873  0.00  0.00    +0.000 NA
ATOM     22  C   UNL     1      45.628   1.990   8.809  0.00  0.00    +0.000 A 
BRANCH  17  24
ATOM     23  N   UNL     1      47.546   1.676   5.901  0.00  0.00    +0.000 NA
ATOM     24  C   UNL     1      46.962   2.171   6.776  0.00  0.00    +0.000 C 
ENDBRANCH  17  24
ENDBRANCH  14  20
ENDBRANCH   1  14
TORSDOF 5
ENDMDL
MODEL 2
REMARK VINA RESULT:    -7.205      1.329      2.293
REMARK INTER + INTRA:          -9.598
REMARK INTER:                  -9.943
REMARK INTRA:                   0.345
REMARK UNBOUND:                -0.287
REMARK  Name = 
REMARK  5 active torsions:
REMARK  status: ('A' for Active; 'I' for Inactive)
REMARK    1  A    between atoms: C_2  and  C_3
REMARK    2  A    between atoms: C_6  and  C_7
REMARK    3  A    between atoms: C_7  and  C_8
REMARK    4  A    between atoms: C_8  and  C_9
REMARK    5  A    between atoms: C_13  and  C_14
REMARK                            x       y       z     vdW  Elec       q    Type
REMARK                         _______ _______ _______ _____ _____    ______ ____
ROOT
ATOM      1  C   UNL     1      43.652   5.207  10.894  0.00  0.00    +0.000 C 
ENDROOT
BRANCH   1   2
ATOM      2  C   UNL     1      44.622   6.150  11.572  0.00  0.00    +0.000 A 
ATOM      3  C   UNL     1      44.733   7.481  11.180  0.00  0.00    +0.000 A 
ATOM      4  C   UNL     1      45.654   8.298  11.818  0.00  0.00    +0.000 A 
ATOM      5  C   UNL     1      46.451   7.765  12.822  0.00  0.00    +0.000 A 
ATOM      6  C   UNL     1      46.301   6.425  13.178  0.00  0.00    +0.000 A 
ATOM      7  N   UNL     1      45.406   5.618  12.549  0.00  0.00    +0.000 NA
BRANCH   6   8
ATOM      8  C   UNL     1      47.092   5.808  14.261  0.00  0.00    +0.000 A 
ATOM      9  C   UNL     1      48.143   6.494  14.888  0.00  0.00    +0.000 A 
ATOM     10  C   UNL     1      48.871   5.864  15.887  0.00  0.00    +0.000 A 
ATOM     11  N   UNL     1      48.630   4.609  16.310  0.00  0.00    +0.000 NA
ATOM     12  C   UNL     1      47.607   3.960  15.715  0.00  0.00    +0.000 A 
ATOM     13  C   UNL     1      46.823   4.507  14.710  0.00  0.00    +0.000 A 
ENDBRANCH   6   8
ENDBRANCH   1   2
BRANCH   1  14
ATOM     14  C   UNL     1      44.124   3.756  10.852  0.00  0.00    +0.000 C 
ATOM     15  C   UNL     1      44.471   3.071  12.173  0.00  0.00    +0.000 C 
ATOM     16  C   UNL     1      43.201   2.713  11.468  0.00  0.00    +0.000 C 
BRANCH  14  20
ATOM     17  C   UNL     1      46.585   2.614   7.519  0.00  0.00    +0.000 A 
ATOM     18  C   UNL     1      46.320   3.963   7.720  0.00  0.00    +0.000 A 
ATOM     19  C   UNL     1      45.487   4.344   8.775  0.00  0.00    +0.000 A 
ATOM     20  C   UNL     1      44.945   3.373   9.621  0.00  0.00    +0.000 A 
ATOM     21  N   UNL     1      45.190   2.051   9.406  0.00  0.00    +0.000 NA
ATOM     22  C   UNL     1      45.995   1.702   8.376  0.00  0.00    +0.000 A 
BRANCH  17  24
ATOM     23  N   UNL     1      48.150   1.803   5.624  0.00  0.00    +0.000 NA
ATOM     24  C   UNL     1      47.449   2.169   6.475  0.00  0.00    +0.000 C 
ENDBRANCH  17  24
ENDBRANCH  14  20
ENDBRANCH   1  14
TORSDOF 5
ENDMDL
MODEL 3
REMARK VINA RESULT:    -7.084      3.158      5.271
REMARK INTER + INTRA:          -9.442
REMARK INTER:                  -9.070
REMARK INTRA:                  -0.371
REMARK UNBOUND:                -0.287
REMARK  Name = 
REMARK  5 active torsions:
REMARK  status: ('A' for Active; 'I' for Inactive)
REMARK    1  A    between atoms: C_2  and  C_3
REMARK    2  A    between atoms: C_6  and  C_7
REMARK    3  A    between atoms: C_7  and  C_8
REMARK    4  A    between atoms: C_8  and  C_9
REMARK    5  A    between atoms: C_13  and  C_14
REMARK                            x       y       z     vdW  Elec       q    Type
REMARK                         _______ _______ _______ _____ _____    ______ ____
ROOT
ATOM      1  C   UNL     1      45.337   4.415  12.271  0.00  0.00    +0.000 C 
ENDROOT
BRANCH   1   2
ATOM      2  C   UNL     1      45.988   5.780  12.224  0.00  0.00    +0.000 A 
ATOM      3  C   UNL     1      47.340   5.948  12.508  0.00  0.00    +0.000 A 
ATOM      4  C   UNL     1      47.884   7.223  12.473  0.00  0.00    +0.000 A 
ATOM      5  C   UNL     1      47.063   8.301  12.168  0.00  0.00    +0.000 A 
ATOM      6  C   UNL     1      45.715   8.080  11.890  0.00  0.00    +0.000 A 
ATOM      7  N   UNL     1      45.175   6.832  11.933  0.00  0.00    +0.000 NA
BRANCH   6   8
ATOM      8  C   UNL     1      44.798   9.177  11.524  0.00  0.00    +0.000 A 
ATOM      9  C   UNL     1      45.128  10.521  11.758  0.00  0.00    +0.000 A 
ATOM     10  C   UNL     1      44.225  11.516  11.416  0.00  0.00    +0.000 A 
ATOM     11  N   UNL     1      43.024  11.276  10.855  0.00  0.00    +0.000 NA
ATOM     12  C   UNL     1      42.720   9.984  10.616  0.00  0.00    +0.000 A 
ATOM     13  C   UNL     1      43.558   8.922  10.923  0.00  0.00    +0.000 A 
ENDBRANCH   6   8
ENDBRANCH   1   2
BRANCH   1  14
ATOM     14  C   UNL     1      44.419   4.124  11.087  0.00  0.00    +0.000 C 
ATOM     15  C   UNL     1      43.028   3.561  11.374  0.00  0.00    +0.000 C 
ATOM     16  C   UNL     1      43.173   4.989  10.954  0.00  0.00    +0.000 C 
BRANCH  14  20
ATOM     17  C   UNL     1      46.562   2.734   7.631  0.00  0.00    +0.000 A 
ATOM     18  C   UNL     1      46.367   4.100   7.790  0.00  0.00    +0.000 A 
ATOM     19  C   UNL     1      45.636   4.562   8.886  0.00  0.00    +0.000 A 
ATOM     20  C   UNL     1      45.124   3.653   9.815  0.00  0.00    +0.000 A 
ATOM     21  N   UNL     1      45.298   2.314   9.643  0.00  0.00    +0.000 NA
ATOM     22  C   UNL     1      46.005   1.886   8.572  0.00  0.00    +0.000 A 
BRANCH  17  24
ATOM     23  N   UNL     1      47.939   1.775   5.662  0.00  0.00    +0.000 NA
ATOM     24  C   UNL     1      47.321   2.208   6.546  0.00  0.00    +0.000 C 
ENDBRANCH  17  24
ENDBRANCH  14  20
ENDBRANCH   1  14
TORSDOF 5
ENDMDL
MODEL 4
REMARK VINA RESULT:    -6.955      2.865      3.608
REMARK INTER + INTRA:          -9.275
REMARK INTER:                  -9.169
REMARK INTRA:                  -0.106
REMARK UNBOUND:                -0.287
REMARK  Name = 
REMARK  5 active torsions:
REMARK  status: ('A' for Active; 'I' for Inactive)
REMARK    1  A    between atoms: C_2  and  C_3
REMARK    2  A    between atoms: C_6  and  C_7
REMARK    3  A    between atoms: C_7  and  C_8
REMARK    4  A    between atoms: C_8  and  C_9
REMARK    5  A    between atoms: C_13  and  C_14
REMARK                            x       y       z     vdW  Elec       q    Type
REMARK                         _______ _______ _______ _____ _____    ______ ____
ROOT
ATOM      1  C   UNL     1      45.408   4.140  12.356  0.00  0.00    +0.000 C 
ENDROOT
BRANCH   1   2
ATOM      2  C   UNL     1      45.679   5.628  12.284  0.00  0.00    +0.000 A 
ATOM      3  C   UNL     1      44.664   6.536  11.999  0.00  0.00    +0.000 A 
ATOM      4  C   UNL     1      44.969   7.887  11.922  0.00  0.00    +0.000 A 
ATOM      5  C   UNL     1      46.281   8.297  12.118  0.00  0.00    +0.000 A 
ATOM      6  C   UNL     1      47.262   7.347  12.401  0.00  0.00    +0.000 A 
ATOM      7  N   UNL     1      46.969   6.021  12.468  0.00  0.00    +0.000 NA
BRANCH   6   8
ATOM      8  C   UNL     1      48.667   7.720  12.655  0.00  0.00    +0.000 A 
ATOM      9  C   UNL     1      49.467   8.299  11.657  0.00  0.00    +0.000 A 
ATOM     10  C   UNL     1      50.788   8.614  11.937  0.00  0.00    +0.000 A 
ATOM     11  N   UNL     1      51.371   8.402  13.132  0.00  0.00    +0.000 NA
ATOM     12  C   UNL     1      50.592   7.862  14.093  0.00  0.00    +0.000 A 
ATOM     13  C   UNL     1      49.262   7.515  13.908  0.00  0.00    +0.000 A 
ENDBRANCH   6   8
ENDBRANCH   1   2
BRANCH   1  14
ATOM     14  C   UNL     1      44.430   3.637  11.297  0.00  0.00    +0.000 C 
ATOM     15  C   UNL     1      43.317   2.687  11.736  0.00  0.00    +0.000 C 
ATOM     16  C   UNL     1      42.987   4.109  11.412  0.00  0.00    +0.000 C 
BRANCH  14  20
ATOM     17  C   UNL     1      46.283   2.998   7.472  0.00  0.00    +0.000 A 
ATOM     18  C   UNL     1      45.981   4.298   7.858  0.00  0.00    +0.000 A 
ATOM     19  C   UNL     1      45.341   4.516   9.080  0.00  0.00    +0.000 A 
ATOM     20  C   UNL     1      45.026   3.432   9.904  0.00  0.00    +0.000 A 
ATOM     21  N   UNL     1      45.303   2.159   9.512  0.00  0.00    +0.000 NA
ATOM     22  C   UNL     1      45.920   1.968   8.322  0.00  0.00    +0.000 A 
BRANCH  17  24
ATOM     23  N   UNL     1      47.507   2.490   5.249  0.00  0.00    +0.000 NA
ATOM     24  C   UNL     1      46.960   2.718   6.249  0.00  0.00    +0.000 C 
ENDBRANCH  17  24
ENDBRANCH  14  20
ENDBRANCH   1  14
TORSDOF 5
ENDMDL
MODEL 5
REMARK VINA RESULT:    -6.909      2.580      4.585
REMARK INTER + INTRA:          -9.216
REMARK INTER:                  -8.913
REMARK INTRA:                  -0.303
REMARK UNBOUND:                -0.287
REMARK  Name = 
REMARK  5 active torsions:
REMARK  status: ('A' for Active; 'I' for Inactive)
REMARK    1  A    between atoms: C_2  and  C_3
REMARK    2  A    between atoms: C_6  and  C_7
REMARK    3  A    between atoms: C_7  and  C_8
REMARK    4  A    between atoms: C_8  and  C_9
REMARK    5  A    between atoms: C_13  and  C_14
REMARK                            x       y       z     vdW  Elec       q    Type
REMARK                         _______ _______ _______ _____ _____    ______ ____
ROOT
ATOM      1  C   UNL     1      44.857   4.282  12.787  0.00  0.00    +0.000 C 
ENDROOT
BRANCH   1   2
ATOM      2  C   UNL     1      45.922   5.283  13.184  0.00  0.00    +0.000 A 
ATOM      3  C   UNL     1      46.998   4.916  13.987  0.00  0.00    +0.000 A 
ATOM      4  C   UNL     1      47.933   5.875  14.341  0.00  0.00    +0.000 A 
ATOM      5  C   UNL     1      47.767   7.180  13.898  0.00  0.00    +0.000 A 
ATOM      6  C   UNL     1      46.671   7.497  13.095  0.00  0.00    +0.000 A 
ATOM      7  N   UNL     1      45.746   6.562  12.753  0.00  0.00    +0.000 NA
BRANCH   6   8
ATOM      8  C   UNL     1      46.456   8.857  12.562  0.00  0.00    +0.000 A 
ATOM      9  C   UNL     1      47.529   9.717  12.283  0.00  0.00    +0.000 A 
ATOM     10  C   UNL     1      47.276  10.992  11.802  0.00  0.00    +0.000 A 
ATOM     11  N   UNL     1      46.040  11.474  11.574  0.00  0.00    +0.000 NA
ATOM     12  C   UNL     1      45.012  10.637  11.827  0.00  0.00    +0.000 A 
ATOM     13  C   UNL     1      45.167   9.345  12.308  0.00  0.00    +0.000 A 
ENDBRANCH   6   8
ENDBRANCH   1   2
BRANCH   1  14
ATOM     14  C   UNL     1      44.146   4.620  11.480  0.00  0.00    +0.000 C 
ATOM     15  C   UNL     1      42.619   4.658  11.478  0.00  0.00    +0.000 C 
ATOM     16  C   UNL     1      43.389   5.940  11.429  0.00  0.00    +0.000 C 
BRANCH  14  20
ATOM     17  C   UNL     1      45.956   3.327   7.802  0.00  0.00    +0.000 A 
ATOM     18  C   UNL     1      45.374   2.375   8.630  0.00  0.00    +0.000 A 
ATOM     19  C   UNL     1      44.820   2.776   9.847  0.00  0.00    +0.000 A 
ATOM     20  C   UNL     1      44.843   4.125  10.212  0.00  0.00    +0.000 A 
ATOM     21  N   UNL     1      45.434   5.051   9.408  0.00  0.00    +0.000 NA
ATOM     22  C   UNL     1      45.970   4.641   8.235  0.00  0.00    +0.000 A 
BRANCH  17  24
ATOM     23  N   UNL     1      46.972   2.696   5.508  0.00  0.00    +0.000 NA
ATOM     24  C   UNL     1      46.514   2.979   6.537  0.00  0.00    +0.000 C 
ENDBRANCH  17  24
ENDBRANCH  14  20
ENDBRANCH   1  14
TORSDOF 5
ENDMDL
MODEL 6
REMARK VINA RESULT:    -6.465      2.158      3.747
REMARK INTER + INTRA:          -8.642
REMARK INTER:                  -7.980
REMARK INTRA:                  -0.662
REMARK UNBOUND:                -0.287
REMARK  Name = 
REMARK  5 active torsions:
REMARK  status: ('A' for Active; 'I' for Inactive)
REMARK    1  A    between atoms: C_2  and  C_3
REMARK    2  A    between atoms: C_6  and  C_7
REMARK    3  A    between atoms: C_7  and  C_8
REMARK    4  A    between atoms: C_8  and  C_9
REMARK    5  A    between atoms: C_13  and  C_14
REMARK                            x       y       z     vdW  Elec       q    Type
REMARK                         _______ _______ _______ _____ _____    ______ ____
ROOT
ATOM      1  C   UNL     1      45.926   3.594  13.315  0.00  0.00    +0.000 C 
ENDROOT
BRANCH   1   2
ATOM      2  C   UNL     1      46.864   4.461  14.128  0.00  0.00    +0.000 A 
ATOM      3  C   UNL     1      47.056   4.243  15.489  0.00  0.00    +0.000 A 
ATOM      4  C   UNL     1      47.908   5.079  16.192  0.00  0.00    +0.000 A 
ATOM      5  C   UNL     1      48.538   6.121  15.525  0.00  0.00    +0.000 A 
ATOM      6  C   UNL     1      48.313   6.297  14.160  0.00  0.00    +0.000 A 
ATOM      7  N   UNL     1      47.470   5.485  13.468  0.00  0.00    +0.000 NA
BRANCH   6   8
ATOM      8  C   UNL     1      48.979   7.362  13.385  0.00  0.00    +0.000 A 
ATOM      9  C   UNL     1      48.492   7.779  12.137  0.00  0.00    +0.000 A 
ATOM     10  C   UNL     1      49.164   8.769  11.437  0.00  0.00    +0.000 A 
ATOM     11  N   UNL     1      50.279   9.377  11.885  0.00  0.00    +0.000 NA
ATOM     12  C   UNL     1      50.733   8.985  13.094  0.00  0.00    +0.000 A 
ATOM     13  C   UNL     1      50.128   8.005  13.867  0.00  0.00    +0.000 A 
ENDBRANCH   6   8
ENDBRANCH   1   2
BRANCH   1  14
ATOM     14  C   UNL     1      44.992   4.380  12.399  0.00  0.00    +0.000 C 
ATOM     15  C   UNL     1      43.559   4.625  12.869  0.00  0.00    +0.000 C 
ATOM     16  C   UNL     1      44.543   5.751  12.887  0.00  0.00    +0.000 C 
BRANCH  14  20
ATOM     17  C   UNL     1      45.802   3.680   8.237  0.00  0.00    +0.000 A 
ATOM     18  C   UNL     1      45.943   4.969   8.737  0.00  0.00    +0.000 A 
ATOM     19  C   UNL     1      45.643   5.218  10.077  0.00  0.00    +0.000 A 
ATOM     20  C   UNL     1      45.219   4.172  10.902  0.00  0.00    +0.000 A 
ATOM     21  N   UNL     1      45.061   2.917  10.403  0.00  0.00    +0.000 NA
ATOM     22  C   UNL     1      45.352   2.696   9.100  0.00  0.00    +0.000 A 
BRANCH  17  24
ATOM     23  N   UNL     1      46.378   3.101   5.782  0.00  0.00    +0.000 NA
ATOM     24  C   UNL     1      46.119   3.363   6.884  0.00  0.00    +0.000 C 
ENDBRANCH  17  24
ENDBRANCH  14  20
ENDBRANCH   1  14
TORSDOF 5
ENDMDL
MODEL 7
REMARK VINA RESULT:    -6.203      2.614      7.853
REMARK INTER + INTRA:          -8.304
REMARK INTER:                  -7.965
REMARK INTRA:                  -0.339
REMARK UNBOUND:                -0.287
REMARK  Name = 
REMARK  5 active torsions:
REMARK  status: ('A' for Active; 'I' for Inactive)
REMARK    1  A    between atoms: C_2  and  C_3
REMARK    2  A    between atoms: C_6  and  C_7
REMARK    3  A    between atoms: C_7  and  C_8
REMARK    4  A    between atoms: C_8  and  C_9
REMARK    5  A    between atoms: C_13  and  C_14
REMARK                            x       y       z     vdW  Elec       q    Type
REMARK                         _______ _______ _______ _____ _____    ______ ____
ROOT
ATOM      1  C   UNL     1      48.914   6.332  16.926  0.00  0.00    +0.000 C 
ENDROOT
BRANCH   1   2
ATOM      2  C   UNL     1      48.959   6.595  15.436  0.00  0.00    +0.000 A 
ATOM      3  C   UNL     1      49.964   7.371  14.867  0.00  0.00    +0.000 A 
ATOM      4  C   UNL     1      49.947   7.601  13.500  0.00  0.00    +0.000 A 
ATOM      5  C   UNL     1      48.922   7.062  12.735  0.00  0.00    +0.000 A 
ATOM      6  C   UNL     1      47.938   6.290  13.353  0.00  0.00    +0.000 A 
ATOM      7  N   UNL     1      47.945   6.070  14.695  0.00  0.00    +0.000 NA
BRANCH   6   8
ATOM      8  C   UNL     1      46.842   5.658  12.592  0.00  0.00    +0.000 A 
ATOM      9  C   UNL     1      46.218   4.484  13.038  0.00  0.00    +0.000 A 
ATOM     10  C   UNL     1      45.206   3.916  12.278  0.00  0.00    +0.000 A 
ATOM     11  N   UNL     1      44.768   4.430  11.113  0.00  0.00    +0.000 NA
ATOM     12  C   UNL     1      45.359   5.569  10.698  0.00  0.00    +0.000 A 
ATOM     13  C   UNL     1      46.377   6.210  11.390  0.00  0.00    +0.000 A 
ENDBRANCH   6   8
ENDBRANCH   1   2
BRANCH   1  14
ATOM     14  C   UNL     1      48.557   4.894  17.292  0.00  0.00    +0.000 C 
ATOM     15  C   UNL     1      47.398   4.661  18.259  0.00  0.00    +0.000 C 
ATOM     16  C   UNL     1      47.212   4.372  16.803  0.00  0.00    +0.000 C 
BRANCH  14  20
ATOM     17  C   UNL     1      51.766   2.053  17.610  0.00  0.00    +0.000 A 
ATOM     18  C   UNL     1      51.949   3.326  18.136  0.00  0.00    +0.000 A 
ATOM     19  C   UNL     1      50.930   4.272  18.001  0.00  0.00    +0.000 A 
ATOM     20  C   UNL     1      49.739   3.925  17.358  0.00  0.00    +0.000 A 
ATOM     21  N   UNL     1      49.574   2.684  16.825  0.00  0.00    +0.000 NA
ATOM     22  C   UNL     1      50.575   1.784  16.961  0.00  0.00    +0.000 A 
BRANCH  17  24
ATOM     23  N   UNL     1      53.570   0.213  17.850  0.00  0.00    +0.000 NA
ATOM     24  C   UNL     1      52.762   1.041  17.741  0.00  0.00    +0.000 C 
ENDBRANCH  17  24
ENDBRANCH  14  20
ENDBRANCH   1  14
TORSDOF 5
ENDMDL
MODEL 8
REMARK VINA RESULT:    -6.015      2.573      8.002
REMARK INTER + INTRA:          -8.061
REMARK INTER:                  -7.380
REMARK INTRA:                  -0.681
REMARK UNBOUND:                -0.287
REMARK  Name = 
REMARK  5 active torsions:
REMARK  status: ('A' for Active; 'I' for Inactive)
REMARK    1  A    between atoms: C_2  and  C_3
REMARK    2  A    between atoms: C_6  and  C_7
REMARK    3  A    between atoms: C_7  and  C_8
REMARK    4  A    between atoms: C_8  and  C_9
REMARK    5  A    between atoms: C_13  and  C_14
REMARK                            x       y       z     vdW  Elec       q    Type
REMARK                         _______ _______ _______ _____ _____    ______ ____
ROOT
ATOM      1  C   UNL     1      49.217   7.163  12.533  0.00  0.00    +0.000 C 
ENDROOT
BRANCH   1   2
ATOM      2  C   UNL     1      47.715   7.329  12.440  0.00  0.00    +0.000 A 
ATOM      3  C   UNL     1      47.106   8.559  12.674  0.00  0.00    +0.000 A 
ATOM      4  C   UNL     1      45.725   8.653  12.599  0.00  0.00    +0.000 A 
ATOM      5  C   UNL     1      44.984   7.516  12.305  0.00  0.00    +0.000 A 
ATOM      6  C   UNL     1      45.642   6.308  12.079  0.00  0.00    +0.000 A 
ATOM      7  N   UNL     1      46.995   6.209  12.161  0.00  0.00    +0.000 NA
BRANCH   6   8
ATOM      8  C   UNL     1      44.915   5.072  11.727  0.00  0.00    +0.000 A 
ATOM      9  C   UNL     1      44.907   4.570  10.417  0.00  0.00    +0.000 A 
ATOM     10  C   UNL     1      44.192   3.416  10.131  0.00  0.00    +0.000 A 
ATOM     11  N   UNL     1      43.492   2.724  11.049  0.00  0.00    +0.000 NA
ATOM     12  C   UNL     1      43.518   3.201  12.311  0.00  0.00    +0.000 A 
ATOM     13  C   UNL     1      44.203   4.345  12.692  0.00  0.00    +0.000 A 
ENDBRANCH   6   8
ENDBRANCH   1   2
BRANCH   1  14
ATOM     14  C   UNL     1      49.863   7.981  13.649  0.00  0.00    +0.000 C 
ATOM     15  C   UNL     1      51.294   8.475  13.445  0.00  0.00    +0.000 C 
ATOM     16  C   UNL     1      50.158   9.444  13.348  0.00  0.00    +0.000 C 
BRANCH  14  20
ATOM     17  C   UNL     1      48.511   6.803  17.555  0.00  0.00    +0.000 A 
ATOM     18  C   UNL     1      48.544   8.156  17.241  0.00  0.00    +0.000 A 
ATOM     19  C   UNL     1      49.021   8.554  15.990  0.00  0.00    +0.000 A 
ATOM     20  C   UNL     1      49.443   7.594  15.067  0.00  0.00    +0.000 A 
ATOM     21  N   UNL     1      49.431   6.271  15.388  0.00  0.00    +0.000 NA
ATOM     22  C   UNL     1      48.970   5.905  16.606  0.00  0.00    +0.000 A 
BRANCH  17  24
ATOM     23  N   UNL     1      47.603   5.954  19.824  0.00  0.00    +0.000 NA
ATOM     24  C   UNL     1      48.010   6.337  18.806  0.00  0.00    +0.000 C 
ENDBRANCH  17  24
ENDBRANCH  14  20
ENDBRANCH   1  14
TORSDOF 5
ENDMDL
MODEL 9
REMARK VINA RESULT:    -5.979      2.633      4.151
REMARK INTER + INTRA:          -8.013
REMARK INTER:                  -7.612
REMARK INTRA:                  -0.401
REMARK UNBOUND:                -0.287
REMARK  Name = 
REMARK  5 active torsions:
REMARK  status: ('A' for Active; 'I' for Inactive)
REMARK    1  A    between atoms: C_2  and  C_3
REMARK    2  A    between atoms: C_6  and  C_7
REMARK    3  A    between atoms: C_7  and  C_8
REMARK    4  A    between atoms: C_8  and  C_9
REMARK    5  A    between atoms: C_13  and  C_14
REMARK                            x       y       z     vdW  Elec       q    Type
REMARK                         _______ _______ _______ _____ _____    ______ ____
ROOT
ATOM      1  C   UNL     1      48.538   7.537  12.379  0.00  0.00    +0.000 C 
ENDROOT
BRANCH   1   2
ATOM      2  C   UNL     1      49.198   7.565  13.741  0.00  0.00    +0.000 A 
ATOM      3  C   UNL     1      50.118   8.554  14.080  0.00  0.00    +0.000 A 
ATOM      4  C   UNL     1      50.712   8.521  15.332  0.00  0.00    +0.000 A 
ATOM      5  C   UNL     1      50.386   7.497  16.210  0.00  0.00    +0.000 A 
ATOM      6  C   UNL     1      49.458   6.531  15.823  0.00  0.00    +0.000 A 
ATOM      7  N   UNL     1      48.880   6.553  14.592  0.00  0.00    +0.000 NA
BRANCH   6   8
ATOM      8  C   UNL     1      49.041   5.437  16.723  0.00  0.00    +0.000 A 
ATOM      9  C   UNL     1      49.821   5.052  17.824  0.00  0.00    +0.000 A 
ATOM     10  C   UNL     1      49.398   4.005  18.629  0.00  0.00    +0.000 A 
ATOM     11  N   UNL     1      48.258   3.318  18.424  0.00  0.00    +0.000 NA
ATOM     12  C   UNL     1      47.503   3.704  17.375  0.00  0.00    +0.000 A 
ATOM     13  C   UNL     1      47.843   4.739  16.516  0.00  0.00    +0.000 A 
ENDBRANCH   6   8
ENDBRANCH   1   2
BRANCH   1  14
ATOM     14  C   UNL     1      47.022   7.711  12.422  0.00  0.00    +0.000 C 
ATOM     15  C   UNL     1      46.444   8.783  13.346  0.00  0.00    +0.000 C 
ATOM     16  C   UNL     1      46.463   9.015  11.868  0.00  0.00    +0.000 C 
BRANCH  14  20
ATOM     17  C   UNL     1      44.571   4.222  11.887  0.00  0.00    +0.000 A 
ATOM     18  C   UNL     1      45.220   4.401  13.103  0.00  0.00    +0.000 A 
ATOM     19  C   UNL     1      46.053   5.509  13.275  0.00  0.00    +0.000 A 
ATOM     20  C   UNL     1      46.212   6.428  12.235  0.00  0.00    +0.000 A 
ATOM     21  N   UNL     1      45.592   6.236  11.038  0.00  0.00    +0.000 NA
ATOM     22  C   UNL     1      44.794   5.154  10.890  0.00  0.00    +0.000 A 
BRANCH  17  24
ATOM     23  N   UNL     1      42.967   2.231  11.485  0.00  0.00    +0.000 NA
ATOM     24  C   UNL     1      43.689   3.124  11.665  0.00  0.00    +0.000 C 
ENDBRANCH  17  24
ENDBRANCH  14  20
ENDBRANCH   1  14
TORSDOF 5
ENDMDL
