MODEL 1
REMARK VINA RESULT:    -8.140      0.000      0.000
REMARK INTER + INTRA:         -10.600
REMARK INTER:                 -10.044
REMARK INTRA:                  -0.557
REMARK UNBOUND:                -0.557
REMARK  Name = 
REMARK  4 active torsions:
REMARK  status: ('A' for Active; 'I' for Inactive)
REMARK    1  A    between atoms: C_2  and  C_4
REMARK    2  A    between atoms: C_7  and  C_8
REMARK    3  A    between atoms: C_8  and  C_9
REMARK    4  A    between atoms: C_9  and  C_10
REMARK                            x       y       z     vdW  Elec       q    Type
REMARK                         _______ _______ _______ _____ _____    ______ ____
ROOT
ATOM      1  C   UNL     1      46.421   2.435   7.713  0.00  0.00    +0.000 A 
ATOM      2  C   UNL     1      45.656   1.764   8.664  0.00  0.00    +0.000 A 
ATOM      3  C   UNL     1      44.796   2.491   9.489  0.00  0.00    +0.000 A 
ATOM      4  C   UNL     1      44.746   3.880   9.381  0.00  0.00    +0.000 A 
ATOM      5  N   UNL     1      45.492   4.544   8.460  0.00  0.00    +0.000 NA
ATOM      6  C   UNL     1      46.315   3.816   7.658  0.00  0.00    +0.000 A 
ENDROOT
BRANCH   1   8
ATOM      7  N   UNL     1      48.389   2.456   6.285  0.00  0.00    +0.000 N 
ATOM      8  C   UNL     1      47.331   1.740   6.776  0.00  0.00    +0.000 C 
ATOM      9  O   UNL     1      47.174   0.563   6.485  0.00  0.00    +0.000 OA
ATOM     10  H   UNL     1      49.060   1.939   5.729  0.00  0.00    +0.000 HD
ATOM     11  H   UNL     1      48.695   3.329   6.688  0.00  0.00    +0.000 HD
ENDBRANCH   1   8
BRANCH   4  12
ATOM     12  C   UNL     1      43.786   4.725  10.192  0.00  0.00    +0.000 C 
BRANCH  12  13
ATOM     13  C   UNL     1      44.045   4.749  11.699  0.00  0.00    +0.000 C 
ATOM     14  C   UNL     1      43.358   3.689  12.552  0.00  0.00    +0.000 C 
ATOM     15  C   UNL     1      42.854   5.094  12.596  0.00  0.00    +0.000 C 
BRANCH  13  16
ATOM     16  C   UNL     1      45.382   5.332  12.155  0.00  0.00    +0.000 A 
ATOM     17  C   UNL     1      46.125   4.729  13.180  0.00  0.00    +0.000 A 
ATOM     18  C   UNL     1      47.356   5.256  13.537  0.00  0.00    +0.000 A 
ATOM     19  N   UNL     1      47.902   6.345  12.960  0.00  0.00    +0.000 NA
ATOM     20  C   UNL     1      47.179   6.929  11.985  0.00  0.00    +0.000 A 
ATOM     21  C   UNL     1      45.944   6.466  11.556  0.00  0.00    +0.000 A 
ENDBRANCH  13  16
ENDBRANCH  12  13
ENDBRANCH   4  12
TORSDOF 4
ENDMDL
MODEL 2
REMARK VINA RESULT:    -5.852      3.016      6.318
REMARK INTER + INTRA:          -7.776
REMARK INTER:                  -7.651
REMARK INTRA:                  -0.126
REMARK UNBOUND:                -0.557
REMARK  Name = 
REMARK  4 active torsions:
REMARK  status: ('A' for Active; 'I' for Inactive)
REMARK    1  A    between atoms: C_2  and  C_4
REMARK    2  A    between atoms: C_7  and  C_8
REMARK    3  A    between atoms: C_8  and  C_9
REMARK    4  A    between atoms: C_9  and  C_10
REMARK                            x       y       z     vdW  Elec       q    Type
REMARK                         _______ _______ _______ _____ _____    ______ ____
ROOT
ATOM      1  C   UNL     1      47.932   6.224  14.423  0.00  0.00    +0.000 A 
ATOM      2  C   UNL     1      47.561   6.549  13.121  0.00  0.00    +0.000 A 
ATOM      3  C   UNL     1      46.618   5.759  12.459  0.00  0.00    +0.000 A 
ATOM      4  C   UNL     1      46.095   4.633  13.093  0.00  0.00    +0.000 A 
ATOM      5  N   UNL     1      46.454   4.305  14.362  0.00  0.00    +0.000 NA
ATOM      6  C   UNL     1      47.366   5.094  14.993  0.00  0.00    +0.000 A 
ENDROOT
BRANCH   1   8
ATOM      7  N   UNL     1      48.418   8.150  15.827  0.00  0.00    +0.000 N 
ATOM      8  C   UNL     1      48.896   7.026  15.209  0.00  0.00    +0.000 C 
ATOM      9  O   UNL     1      50.060   6.679  15.341  0.00  0.00    +0.000 OA
ATOM     10  H   UNL     1      49.061   8.629  16.444  0.00  0.00    +0.000 HD
ATOM     11  H   UNL     1      47.433   8.329  15.952  0.00  0.00    +0.000 HD
ENDBRANCH   1   8
BRANCH   4  12
ATOM     12  C   UNL     1      45.018   3.773  12.465  0.00  0.00    +0.000 C 
BRANCH  12  13
ATOM     13  C   UNL     1      44.445   4.298  11.148  0.00  0.00    +0.000 C 
ATOM     14  C   UNL     1      43.830   5.692  11.149  0.00  0.00    +0.000 C 
ATOM     15  C   UNL     1      42.930   4.502  11.091  0.00  0.00    +0.000 C 
BRANCH  13  16
ATOM     16  C   UNL     1      45.068   3.751   9.864  0.00  0.00    +0.000 A 
ATOM     17  C   UNL     1      45.118   2.372   9.613  0.00  0.00    +0.000 A 
ATOM     18  C   UNL     1      45.648   1.911   8.417  0.00  0.00    +0.000 A 
ATOM     19  N   UNL     1      46.143   2.716   7.456  0.00  0.00    +0.000 NA
ATOM     20  C   UNL     1      46.106   4.038   7.708  0.00  0.00    +0.000 A 
ATOM     21  C   UNL     1      45.586   4.589   8.869  0.00  0.00    +0.000 A 
ENDBRANCH  13  16
ENDBRANCH  12  13
ENDBRANCH   4  12
TORSDOF 4
ENDMDL
MODEL 3
REMARK VINA RESULT:    -5.806      3.268      6.352
REMARK INTER + INTRA:          -7.720
REMARK INTER:                  -7.494
REMARK INTRA:                  -0.226
REMARK UNBOUND:                -0.557
REMARK  Name = 
REMARK  4 active torsions:
REMARK  status: ('A' for Active; 'I' for Inactive)
REMARK    1  A    between atoms: C_2  and  C_4
REMARK    2  A    between atoms: C_7  and  C_8
REMARK    3  A    between atoms: C_8  and  C_9
REMARK    4  A    between atoms: C_9  and  C_10
REMARK                            x       y       z     vdW  Elec       q    Type
REMARK                         _______ _______ _______ _____ _____    ______ ____
ROOT
ATOM      1  C   UNL     1      46.994   8.892  12.299  0.00  0.00    +0.000 A 
ATOM      2  C   UNL     1      47.764   7.816  11.865  0.00  0.00    +0.000 A 
ATOM      3  C   UNL     1      47.226   6.528  11.898  0.00  0.00    +0.000 A 
ATOM      4  C   UNL     1      45.942   6.331  12.406  0.00  0.00    +0.000 A 
ATOM      5  N   UNL     1      45.184   7.373  12.836  0.00  0.00    +0.000 NA
ATOM      6  C   UNL     1      45.724   8.620  12.784  0.00  0.00    +0.000 A 
ENDROOT
BRANCH   1   8
ATOM      7  N   UNL     1      46.537  11.277  12.421  0.00  0.00    +0.000 N 
ATOM      8  C   UNL     1      47.474  10.291  12.265  0.00  0.00    +0.000 C 
ATOM      9  O   UNL     1      48.660  10.559  12.149  0.00  0.00    +0.000 OA
ATOM     10  H   UNL     1      46.891  12.222  12.500  0.00  0.00    +0.000 HD
ATOM     11  H   UNL     1      45.606  11.099  12.768  0.00  0.00    +0.000 HD
ENDBRANCH   1   8
BRANCH   4  12
ATOM     12  C   UNL     1      45.268   4.974  12.405  0.00  0.00    +0.000 C 
BRANCH  12  13
ATOM     13  C   UNL     1      44.312   4.718  11.239  0.00  0.00    +0.000 C 
ATOM     14  C   UNL     1      43.145   5.680  11.056  0.00  0.00    +0.000 C 
ATOM     15  C   UNL     1      42.881   4.315  11.601  0.00  0.00    +0.000 C 
BRANCH  13  16
ATOM     16  C   UNL     1      44.893   3.998  10.023  0.00  0.00    +0.000 A 
ATOM     17  C   UNL     1      45.494   4.713   8.976  0.00  0.00    +0.000 A 
ATOM     18  C   UNL     1      46.054   4.026   7.909  0.00  0.00    +0.000 A 
ATOM     19  N   UNL     1      46.053   2.683   7.798  0.00  0.00    +0.000 NA
ATOM     20  C   UNL     1      45.462   2.002   8.798  0.00  0.00    +0.000 A 
ATOM     21  C   UNL     1      44.887   2.602   9.908  0.00  0.00    +0.000 A 
ENDBRANCH  13  16
ENDBRANCH  12  13
ENDBRANCH   4  12
TORSDOF 4
ENDMDL
MODEL 4
REMARK VINA RESULT:    -5.525      3.009      6.176
REMARK INTER + INTRA:          -7.373
REMARK INTER:                  -7.238
REMARK INTRA:                  -0.135
REMARK UNBOUND:                -0.557
REMARK  Name = 
REMARK  4 active torsions:
REMARK  status: ('A' for Active; 'I' for Inactive)
REMARK    1  A    between atoms: C_2  and  C_4
REMARK    2  A    between atoms: C_7  and  C_8
REMARK    3  A    between atoms: C_8  and  C_9
REMARK    4  A    between atoms: C_9  and  C_10
REMARK                            x       y       z     vdW  Elec       q    Type
REMARK                         _______ _______ _______ _____ _____    ______ ____
ROOT
ATOM      1  C   UNL     1      48.835   7.379  13.061  0.00  0.00    +0.000 A 
ATOM      2  C   UNL     1      48.087   7.422  11.888  0.00  0.00    +0.000 A 
ATOM      3  C   UNL     1      46.964   6.602  11.759  0.00  0.00    +0.000 A 
ATOM      4  C   UNL     1      46.632   5.720  12.786  0.00  0.00    +0.000 A 
ATOM      5  N   UNL     1      47.358   5.667  13.934  0.00  0.00    +0.000 NA
ATOM      6  C   UNL     1      48.442   6.482  14.043  0.00  0.00    +0.000 A 
ENDROOT
BRANCH   1   8
ATOM      7  N   UNL     1      50.979   7.761  14.144  0.00  0.00    +0.000 N 
ATOM      8  C   UNL     1      50.017   8.238  13.294  0.00  0.00    +0.000 C 
ATOM      9  O   UNL     1      50.154   9.308  12.721  0.00  0.00    +0.000 OA
ATOM     10  H   UNL     1      51.827   8.310  14.212  0.00  0.00    +0.000 HD
ATOM     11  H   UNL     1      51.026   6.795  14.432  0.00  0.00    +0.000 HD
ENDBRANCH   1   8
BRANCH   4  12
ATOM     12  C   UNL     1      45.390   4.855  12.746  0.00  0.00    +0.000 C 
BRANCH  12  13
ATOM     13  C   UNL     1      44.487   5.060  11.528  0.00  0.00    +0.000 C 
ATOM     14  C   UNL     1      43.822   6.421  11.362  0.00  0.00    +0.000 C 
ATOM     15  C   UNL     1      42.996   5.259  11.805  0.00  0.00    +0.000 C 
BRANCH  13  16
ATOM     16  C   UNL     1      44.804   4.220  10.292  0.00  0.00    +0.000 A 
ATOM     17  C   UNL     1      45.386   4.797   9.153  0.00  0.00    +0.000 A 
ATOM     18  C   UNL     1      45.704   3.997   8.066  0.00  0.00    +0.000 A 
ATOM     19  N   UNL     1      45.478   2.669   8.019  0.00  0.00    +0.000 NA
ATOM     20  C   UNL     1      44.906   2.123   9.108  0.00  0.00    +0.000 A 
ATOM     21  C   UNL     1      44.564   2.841  10.244  0.00  0.00    +0.000 A 
ENDBRANCH  13  16
ENDBRANCH  12  13
ENDBRANCH   4  12
TORSDOF 4
ENDMDL
MODEL 5
REMARK VINA RESULT:    -5.351      3.105      5.135
REMARK INTER + INTRA:          -7.159
REMARK INTER:                  -6.852
REMARK INTRA:                  -0.307
REMARK UNBOUND:                -0.557
REMARK  Name = 
REMARK  4 active torsions:
REMARK  status: ('A' for Active; 'I' for Inactive)
REMARK    1  A    between atoms: C_2  and  C_4
REMARK    2  A    between atoms: C_7  and  C_8
REMARK    3  A    between atoms: C_8  and  C_9
REMARK    4  A    between atoms: C_9  and  C_10
REMARK                            x       y       z     vdW  Elec       q    Type
REMARK                         _______ _______ _______ _____ _____    ______ ____
ROOT
ATOM      1  C   UNL     1      44.452   4.189  11.387  0.00  0.00    +0.000 A 
ATOM      2  C   UNL     1      45.136   5.033  10.516  0.00  0.00    +0.000 A 
ATOM      3  C   UNL     1      45.653   6.240  10.993  0.00  0.00    +0.000 A 
ATOM      4  C   UNL     1      45.440   6.603  12.322  0.00  0.00    +0.000 A 
ATOM      5  N   UNL     1      44.771   5.789  13.179  0.00  0.00    +0.000 NA
ATOM      6  C   UNL     1      44.285   4.614  12.697  0.00  0.00    +0.000 A 
ENDROOT
BRANCH   1   8
ATOM      7  N   UNL     1      44.505   2.254   9.915  0.00  0.00    +0.000 N 
ATOM      8  C   UNL     1      43.903   2.879  10.974  0.00  0.00    +0.000 C 
ATOM      9  O   UNL     1      42.982   2.351  11.579  0.00  0.00    +0.000 OA
ATOM     10  H   UNL     1      44.188   1.315   9.711  0.00  0.00    +0.000 HD
ATOM     11  H   UNL     1      45.409   2.528   9.559  0.00  0.00    +0.000 HD
ENDBRANCH   1   8
BRANCH   4  12
ATOM     12  C   UNL     1      46.032   7.860  12.925  0.00  0.00    +0.000 C 
BRANCH  12  13
ATOM     13  C   UNL     1      47.560   7.897  12.997  0.00  0.00    +0.000 C 
ATOM     14  C   UNL     1      48.289   6.577  13.217  0.00  0.00    +0.000 C 
ATOM     15  C   UNL     1      48.192   7.550  14.346  0.00  0.00    +0.000 C 
BRANCH  13  16
ATOM     16  C   UNL     1      48.254   9.023  12.232  0.00  0.00    +0.000 A 
ATOM     17  C   UNL     1      49.599   8.919  11.851  0.00  0.00    +0.000 A 
ATOM     18  C   UNL     1      50.186   9.939  11.117  0.00  0.00    +0.000 A 
ATOM     19  N   UNL     1      49.539  11.062  10.743  0.00  0.00    +0.000 NA
ATOM     20  C   UNL     1      48.252  11.163  11.124  0.00  0.00    +0.000 A 
ATOM     21  C   UNL     1      47.581  10.190  11.849  0.00  0.00    +0.000 A 
ENDBRANCH  13  16
ENDBRANCH  12  13
ENDBRANCH   4  12
TORSDOF 4
ENDMDL
MODEL 6
REMARK VINA RESULT:    -5.213      3.939      6.990
REMARK INTER + INTRA:          -6.989
REMARK INTER:                  -7.092
REMARK INTRA:                   0.103
REMARK UNBOUND:                -0.557
REMARK  Name = 
REMARK  4 active torsions:
REMARK  status: ('A' for Active; 'I' for Inactive)
REMARK    1  A    between atoms: C_2  and  C_4
REMARK    2  A    between atoms: C_7  and  C_8
REMARK    3  A    between atoms: C_8  and  C_9
REMARK    4  A    between atoms: C_9  and  C_10
REMARK                            x       y       z     vdW  Elec       q    Type
REMARK                         _______ _______ _______ _____ _____    ______ ____
ROOT
ATOM      1  C   UNL     1      47.639   4.318  16.402  0.00  0.00    +0.000 A 
ATOM      2  C   UNL     1      48.267   5.560  16.416  0.00  0.00    +0.000 A 
ATOM      3  C   UNL     1      48.358   6.298  15.234  0.00  0.00    +0.000 A 
ATOM      4  C   UNL     1      47.858   5.763  14.047  0.00  0.00    +0.000 A 
ATOM      5  N   UNL     1      47.246   4.549  14.022  0.00  0.00    +0.000 NA
ATOM      6  C   UNL     1      47.160   3.853  15.186  0.00  0.00    +0.000 A 
ENDROOT
BRANCH   1   8
ATOM      7  N   UNL     1      48.197   3.837  18.719  0.00  0.00    +0.000 N 
ATOM      8  C   UNL     1      47.469   3.487  17.614  0.00  0.00    +0.000 C 
ATOM      9  O   UNL     1      46.679   2.556  17.646  0.00  0.00    +0.000 OA
ATOM     10  H   UNL     1      47.993   3.326  19.569  0.00  0.00    +0.000 HD
ATOM     11  H   UNL     1      48.657   4.731  18.813  0.00  0.00    +0.000 HD
ENDBRANCH   1   8
BRANCH   4  12
ATOM     12  C   UNL     1      47.856   6.535  12.744  0.00  0.00    +0.000 C 
BRANCH  12  13
ATOM     13  C   UNL     1      46.530   7.204  12.380  0.00  0.00    +0.000 C 
ATOM     14  C   UNL     1      46.583   8.620  11.820  0.00  0.00    +0.000 C 
ATOM     15  C   UNL     1      46.116   8.412  13.223  0.00  0.00    +0.000 C 
BRANCH  13  16
ATOM     16  C   UNL     1      45.383   6.277  11.979  0.00  0.00    +0.000 A 
ATOM     17  C   UNL     1      45.366   5.645  10.727  0.00  0.00    +0.000 A 
ATOM     18  C   UNL     1      44.335   4.773  10.413  0.00  0.00    +0.000 A 
ATOM     19  N   UNL     1      43.311   4.490  11.244  0.00  0.00    +0.000 NA
ATOM     20  C   UNL     1      43.325   5.111  12.438  0.00  0.00    +0.000 A 
ATOM     21  C   UNL     1      44.319   5.989  12.842  0.00  0.00    +0.000 A 
ENDBRANCH  13  16
ENDBRANCH  12  13
ENDBRANCH   4  12
TORSDOF 4
ENDMDL
MODEL 7
REMARK VINA RESULT:    -5.195      2.572      4.270
REMARK INTER + INTRA:          -6.967
REMARK INTER:                  -6.708
REMARK INTRA:                  -0.259
REMARK UNBOUND:                -0.557
REMARK  Name = 
REMARK  4 active torsions:
REMARK  status: ('A' for Active; 'I' for Inactive)
REMARK    1  A    between atoms: C_2  and  C_4
REMARK    2  A    between atoms: C_7  and  C_8
REMARK    3  A    between atoms: C_8  and  C_9
REMARK    4  A    between atoms: C_9  and  C_10
REMARK                            x       y       z     vdW  Elec       q    Type
REMARK                         _______ _______ _______ _____ _____    ______ ____
ROOT
ATOM      1  C   UNL     1      44.935   3.722  10.148  0.00  0.00    +0.000 A 
ATOM      2  C   UNL     1      44.905   3.324  11.481  0.00  0.00    +0.000 A 
ATOM      3  C   UNL     1      45.215   4.248  12.481  0.00  0.00    +0.000 A 
ATOM      4  C   UNL     1      45.592   5.544  12.129  0.00  0.00    +0.000 A 
ATOM      5  N   UNL     1      45.628   5.942  10.831  0.00  0.00    +0.000 NA
ATOM      6  C   UNL     1      45.312   5.028   9.873  0.00  0.00    +0.000 A 
ENDROOT
BRANCH   1   8
ATOM      7  N   UNL     1      44.299   3.398   7.823  0.00  0.00    +0.000 N 
ATOM      8  C   UNL     1      44.587   2.818   9.029  0.00  0.00    +0.000 C 
ATOM      9  O   UNL     1      44.600   1.603   9.160  0.00  0.00    +0.000 OA
ATOM     10  H   UNL     1      44.166   2.765   7.043  0.00  0.00    +0.000 HD
ATOM     11  H   UNL     1      44.521   4.358   7.609  0.00  0.00    +0.000 HD
ENDBRANCH   1   8
BRANCH   4  12
ATOM     12  C   UNL     1      45.870   6.617  13.161  0.00  0.00    +0.000 C 
BRANCH  12  13
ATOM     13  C   UNL     1      47.171   7.397  12.960  0.00  0.00    +0.000 C 
ATOM     14  C   UNL     1      48.448   6.598  12.734  0.00  0.00    +0.000 C 
ATOM     15  C   UNL     1      48.230   7.259  14.055  0.00  0.00    +0.000 C 
BRANCH  13  16
ATOM     16  C   UNL     1      47.043   8.798  12.363  0.00  0.00    +0.000 A 
ATOM     17  C   UNL     1      45.802   9.447  12.296  0.00  0.00    +0.000 A 
ATOM     18  C   UNL     1      45.728  10.737  11.791  0.00  0.00    +0.000 A 
ATOM     19  N   UNL     1      46.793  11.428  11.337  0.00  0.00    +0.000 NA
ATOM     20  C   UNL     1      47.980  10.795  11.391  0.00  0.00    +0.000 A 
ATOM     21  C   UNL     1      48.151   9.511  11.889  0.00  0.00    +0.000 A 
ENDBRANCH  13  16
ENDBRANCH  12  13
ENDBRANCH   4  12
TORSDOF 4
ENDMDL
