MODEL 1
REMARK VINA RESULT:    -7.489      0.000      0.000
REMARK INTER + INTRA:         -11.461
REMARK INTER:                 -10.116
REMARK INTRA:                  -1.345
REMARK UNBOUND:                -1.345
REMARK  Name = 
REMARK  7 active torsions:
REMARK  status: ('A' for Active; 'I' for Inactive)
REMARK    1  A    between atoms: C_1  and  C_2
REMARK    2  A    between atoms: C_2  and  N_3
REMARK    3  A    between atoms: C_2  and  C_16
REMARK    4  A    between atoms: C_4  and  C_6
REMARK    5  A    between atoms: C_19  and  C_20
REMARK    6  A    between atoms: C_20  and  N_21
REMARK    7  A    between atoms: C_22  and  C_24
REMARK                            x       y       z     vdW  Elec       q    Type
REMARK                         _______ _______ _______ _____ _____    ______ ____
ROOT
ATOM      1  C   UNL     1      46.535   8.894  13.340  0.00  0.00    +0.000 C 
ATOM      2  C   UNL     1      47.191   7.516  13.214  0.00  0.00    +0.000 C 
ENDROOT
BRANCH   2   3
ATOM      3  C   UNL     1      46.339   6.537  12.415  0.00  0.00    +0.000 A 
ATOM      4  C   UNL     1      46.403   6.540  11.014  0.00  0.00    +0.000 A 
ATOM      5  C   UNL     1      45.633   5.650  10.252  0.00  0.00    +0.000 A 
ATOM      6  C   UNL     1      44.771   4.733  10.870  0.00  0.00    +0.000 A 
ATOM      7  C   UNL     1      44.735   4.700  12.270  0.00  0.00    +0.000 A 
ATOM      8  C   UNL     1      45.502   5.594  13.032  0.00  0.00    +0.000 A 
BRANCH   6   9
ATOM      9  C   UNL     1      43.933   3.781  10.047  0.00  0.00    +0.000 C 
BRANCH   9  10
ATOM     10  N   UNL     1      44.527   3.560   8.747  0.00  0.00    +0.000 N 
ATOM     11  C   UNL     1      45.283   2.435   8.447  0.00  0.00    +0.000 C 
ATOM     12  O   UNL     1      45.487   1.523   9.233  0.00  0.00    +0.000 OA
ATOM     13  H   UNL     1      44.342   4.248   8.033  0.00  0.00    +0.000 HD
BRANCH  11  14
ATOM     14  C   UNL     1      45.792   2.456   7.005  0.00  0.00    +0.000 C 
ATOM     15  C   UNL     1      46.747   1.348   6.624  0.00  0.00    +0.000 C 
ATOM     16  C   UNL     1      48.112   1.933   6.912  0.00  0.00    +0.000 C 
ATOM     17  O   UNL     1      47.999   3.351   6.760  0.00  0.00    +0.000 OA
ATOM     18  C   UNL     1      46.611   3.709   6.750  0.00  0.00    +0.000 C 
ENDBRANCH  11  14
ENDBRANCH   9  10
ENDBRANCH   6   9
ENDBRANCH   2   3
BRANCH   2  19
ATOM     19  N   UNL     1      47.488   6.970  14.525  0.00  0.00    +0.000 N 
ATOM     20  C   UNL     1      48.766   6.745  14.968  0.00  0.00    +0.000 C 
ATOM     21  O   UNL     1      49.752   6.978  14.275  0.00  0.00    +0.000 OA
ATOM     22  H   UNL     1      46.701   6.682  15.094  0.00  0.00    +0.000 HD
BRANCH  20  23
ATOM     23  C   UNL     1      48.899   6.262  16.349  0.00  0.00    +0.000 A 
ATOM     24  C   UNL     1      49.523   7.058  17.300  0.00  0.00    +0.000 A 
ATOM     25  S   UNL     1      49.563   6.360  18.856  0.00  0.00    +0.000 S 
ATOM     26  C   UNL     1      48.795   4.946  18.301  0.00  0.00    +0.000 A 
ATOM     27  N   UNL     1      48.552   3.904  19.144  0.00  0.00    +0.000 NA
ATOM     28  C   UNL     1      48.004   2.882  18.581  0.00  0.00    +0.000 A 
ATOM     29  N   UNL     1      47.667   2.806  17.256  0.00  0.00    +0.000 N 
ATOM     30  C   UNL     1      47.835   3.854  16.384  0.00  0.00    +0.000 A 
ATOM     31  O   UNL     1      47.417   3.788  15.233  0.00  0.00    +0.000 OA
ATOM     32  C   UNL     1      48.487   5.017  16.955  0.00  0.00    +0.000 A 
ATOM     33  H   UNL     1      47.215   1.983  16.882  0.00  0.00    +0.000 HD
ENDBRANCH  20  23
ENDBRANCH   2  19
TORSDOF 6
ENDMDL
MODEL 2
REMARK VINA RESULT:    -7.053      1.804      2.493
REMARK INTER + INTRA:         -10.872
REMARK INTER:                  -9.629
REMARK INTRA:                  -1.242
REMARK UNBOUND:                -1.345
REMARK  Name = 
REMARK  7 active torsions:
REMARK  status: ('A' for Active; 'I' for Inactive)
REMARK    1  A    between atoms: C_1  and  C_2
REMARK    2  A    between atoms: C_2  and  N_3
REMARK    3  A    between atoms: C_2  and  C_16
REMARK    4  A    between atoms: C_4  and  C_6
REMARK    5  A    between atoms: C_19  and  C_20
REMARK    6  A    between atoms: C_20  and  N_21
REMARK    7  A    between atoms: C_22  and  C_24
REMARK                            x       y       z     vdW  Elec       q    Type
REMARK                         _______ _______ _______ _____ _____    ______ ____
ROOT
ATOM      1  C   UNL     1      47.787   8.878  13.781  0.00  0.00    +0.000 C 
ATOM      2  C   UNL     1      47.975   7.358  13.790  0.00  0.00    +0.000 C 
ENDROOT
BRANCH   2   3
ATOM      3  C   UNL     1      46.963   6.641  12.906  0.00  0.00    +0.000 A 
ATOM      4  C   UNL     1      46.535   5.348  13.242  0.00  0.00    +0.000 A 
ATOM      5  C   UNL     1      45.604   4.664  12.448  0.00  0.00    +0.000 A 
ATOM      6  C   UNL     1      45.076   5.251  11.289  0.00  0.00    +0.000 A 
ATOM      7  C   UNL     1      45.471   6.558  10.972  0.00  0.00    +0.000 A 
ATOM      8  C   UNL     1      46.407   7.240  11.764  0.00  0.00    +0.000 A 
BRANCH   6   9
ATOM      9  C   UNL     1      44.080   4.508  10.428  0.00  0.00    +0.000 C 
BRANCH   9  10
ATOM     10  N   UNL     1      44.608   4.283   9.102  0.00  0.00    +0.000 N 
ATOM     11  C   UNL     1      45.216   3.093   8.725  0.00  0.00    +0.000 C 
ATOM     12  O   UNL     1      45.330   2.126   9.460  0.00  0.00    +0.000 OA
ATOM     13  H   UNL     1      44.489   5.024   8.426  0.00  0.00    +0.000 HD
BRANCH  11  14
ATOM     14  C   UNL     1      45.686   3.126   7.270  0.00  0.00    +0.000 C 
ATOM     15  C   UNL     1      46.150   1.808   6.694  0.00  0.00    +0.000 C 
ATOM     16  C   UNL     1      47.637   1.797   6.973  0.00  0.00    +0.000 C 
ATOM     17  O   UNL     1      48.066   3.161   7.011  0.00  0.00    +0.000 OA
ATOM     18  C   UNL     1      46.915   4.008   7.129  0.00  0.00    +0.000 C 
ENDBRANCH  11  14
ENDBRANCH   9  10
ENDBRANCH   6   9
ENDBRANCH   2   3
BRANCH   2  19
ATOM     19  N   UNL     1      47.911   6.844  15.145  0.00  0.00    +0.000 N 
ATOM     20  C   UNL     1      49.024   6.476  15.858  0.00  0.00    +0.000 C 
ATOM     21  O   UNL     1      50.155   6.541  15.388  0.00  0.00    +0.000 OA
ATOM     22  H   UNL     1      46.990   6.691  15.538  0.00  0.00    +0.000 HD
BRANCH  20  23
ATOM     23  C   UNL     1      48.794   6.049  17.245  0.00  0.00    +0.000 A 
ATOM     24  C   UNL     1      49.031   4.729  17.607  0.00  0.00    +0.000 A 
ATOM     25  S   UNL     1      48.745   4.412  19.258  0.00  0.00    +0.000 S 
ATOM     26  C   UNL     1      48.243   6.015  19.535  0.00  0.00    +0.000 A 
ATOM     27  N   UNL     1      47.822   6.414  20.767  0.00  0.00    +0.000 NA
ATOM     28  C   UNL     1      47.430   7.641  20.824  0.00  0.00    +0.000 A 
ATOM     29  N   UNL     1      47.429   8.511  19.766  0.00  0.00    +0.000 N 
ATOM     30  C   UNL     1      47.905   8.172  18.523  0.00  0.00    +0.000 A 
ATOM     31  O   UNL     1      47.993   9.010  17.633  0.00  0.00    +0.000 OA
ATOM     32  C   UNL     1      48.320   6.787  18.392  0.00  0.00    +0.000 A 
ATOM     33  H   UNL     1      47.134   9.470  19.884  0.00  0.00    +0.000 HD
ENDBRANCH  20  23
ENDBRANCH   2  19
TORSDOF 6
ENDMDL
MODEL 3
REMARK VINA RESULT:    -7.041      3.568      5.183
REMARK INTER + INTRA:         -10.856
REMARK INTER:                  -9.436
REMARK INTRA:                  -1.420
REMARK UNBOUND:                -1.345
REMARK  Name = 
REMARK  7 active torsions:
REMARK  status: ('A' for Active; 'I' for Inactive)
REMARK    1  A    between atoms: C_1  and  C_2
REMARK    2  A    between atoms: C_2  and  N_3
REMARK    3  A    between atoms: C_2  and  C_16
REMARK    4  A    between atoms: C_4  and  C_6
REMARK    5  A    between atoms: C_19  and  C_20
REMARK    6  A    between atoms: C_20  and  N_21
REMARK    7  A    between atoms: C_22  and  C_24
REMARK                            x       y       z     vdW  Elec       q    Type
REMARK                         _______ _______ _______ _____ _____    ______ ____
ROOT
ATOM      1  C   UNL     1      47.522   3.264  17.696  0.00  0.00    +0.000 C 
ATOM      2  C   UNL     1      48.407   4.464  17.344  0.00  0.00    +0.000 C 
ENDROOT
BRANCH   2   3
ATOM      3  C   UNL     1      48.072   5.054  15.979  0.00  0.00    +0.000 A 
ATOM      4  C   UNL     1      47.158   4.399  15.142  0.00  0.00    +0.000 A 
ATOM      5  C   UNL     1      46.828   4.918  13.882  0.00  0.00    +0.000 A 
ATOM      6  C   UNL     1      47.409   6.108  13.420  0.00  0.00    +0.000 A 
ATOM      7  C   UNL     1      48.293   6.786  14.270  0.00  0.00    +0.000 A 
ATOM      8  C   UNL     1      48.626   6.263  15.528  0.00  0.00    +0.000 A 
BRANCH   6   9
ATOM      9  C   UNL     1      47.061   6.661  12.056  0.00  0.00    +0.000 C 
BRANCH   9  10
ATOM     10  N   UNL     1      46.058   5.847  11.408  0.00  0.00    +0.000 N 
ATOM     11  C   UNL     1      44.727   6.229  11.311  0.00  0.00    +0.000 C 
ATOM     12  O   UNL     1      44.291   7.288  11.731  0.00  0.00    +0.000 OA
ATOM     13  H   UNL     1      46.368   4.985  10.984  0.00  0.00    +0.000 HD
BRANCH  11  14
ATOM     14  C   UNL     1      43.884   5.182  10.580  0.00  0.00    +0.000 C 
ATOM     15  C   UNL     1      43.044   4.280  11.455  0.00  0.00    +0.000 C 
ATOM     16  C   UNL     1      43.944   3.092  11.718  0.00  0.00    +0.000 C 
ATOM     17  O   UNL     1      44.827   2.981  10.598  0.00  0.00    +0.000 OA
ATOM     18  C   UNL     1      44.778   4.200   9.844  0.00  0.00    +0.000 C 
ENDBRANCH  11  14
ENDBRANCH   9  10
ENDBRANCH   6   9
ENDBRANCH   2   3
BRANCH   2  19
ATOM     19  N   UNL     1      49.810   4.098  17.402  0.00  0.00    +0.000 N 
ATOM     20  C   UNL     1      50.585   4.286  18.518  0.00  0.00    +0.000 C 
ATOM     21  O   UNL     1      50.145   4.795  19.545  0.00  0.00    +0.000 OA
ATOM     22  H   UNL     1      50.234   3.756  16.548  0.00  0.00    +0.000 HD
BRANCH  20  23
ATOM     23  C   UNL     1      51.965   3.789  18.441  0.00  0.00    +0.000 A 
ATOM     24  C   UNL     1      53.014   4.607  18.840  0.00  0.00    +0.000 A 
ATOM     25  S   UNL     1      54.545   3.865  18.715  0.00  0.00    +0.000 S 
ATOM     26  C   UNL     1      53.864   2.444  18.071  0.00  0.00    +0.000 A 
ATOM     27  N   UNL     1      54.650   1.394  17.705  0.00  0.00    +0.000 NA
ATOM     28  C   UNL     1      54.007   0.401  17.193  0.00  0.00    +0.000 A 
ATOM     29  N   UNL     1      52.649   0.354  17.021  0.00  0.00    +0.000 N 
ATOM     30  C   UNL     1      51.811   1.361  17.434  0.00  0.00    +0.000 A 
ATOM     31  O   UNL     1      50.594   1.235  17.367  0.00  0.00    +0.000 OA
ATOM     32  C   UNL     1      52.487   2.524  17.980  0.00  0.00    +0.000 A 
ATOM     33  H   UNL     1      52.203  -0.468  16.637  0.00  0.00    +0.000 HD
ENDBRANCH  20  23
ENDBRANCH   2  19
TORSDOF 6
ENDMDL
MODEL 4
REMARK VINA RESULT:    -6.778      3.525      8.057
REMARK INTER + INTRA:         -10.500
REMARK INTER:                  -9.137
REMARK INTRA:                  -1.363
REMARK UNBOUND:                -1.345
REMARK  Name = 
REMARK  7 active torsions:
REMARK  status: ('A' for Active; 'I' for Inactive)
REMARK    1  A    between atoms: C_1  and  C_2
REMARK    2  A    between atoms: C_2  and  N_3
REMARK    3  A    between atoms: C_2  and  C_16
REMARK    4  A    between atoms: C_4  and  C_6
REMARK    5  A    between atoms: C_19  and  C_20
REMARK    6  A    between atoms: C_20  and  N_21
REMARK    7  A    between atoms: C_22  and  C_24
REMARK                            x       y       z     vdW  Elec       q    Type
REMARK                         _______ _______ _______ _____ _____    ______ ____
ROOT
ATOM      1  C   UNL     1      49.359   8.601  11.218  0.00  0.00    +0.000 C 
ATOM      2  C   UNL     1      48.210   8.185  12.141  0.00  0.00    +0.000 C 
ENDROOT
BRANCH   2   3
ATOM      3  C   UNL     1      48.679   7.895  13.561  0.00  0.00    +0.000 A 
ATOM      4  C   UNL     1      48.224   6.747  14.226  0.00  0.00    +0.000 A 
ATOM      5  C   UNL     1      48.639   6.453  15.532  0.00  0.00    +0.000 A 
ATOM      6  C   UNL     1      49.520   7.303  16.216  0.00  0.00    +0.000 A 
ATOM      7  C   UNL     1      50.009   8.429  15.541  0.00  0.00    +0.000 A 
ATOM      8  C   UNL     1      49.589   8.726  14.235  0.00  0.00    +0.000 A 
BRANCH   6   9
ATOM      9  C   UNL     1      49.959   6.990  17.628  0.00  0.00    +0.000 C 
BRANCH   9  10
ATOM     10  N   UNL     1      49.690   5.610  17.960  0.00  0.00    +0.000 N 
ATOM     11  C   UNL     1      50.562   4.576  17.645  0.00  0.00    +0.000 C 
ATOM     12  O   UNL     1      51.639   4.738  17.095  0.00  0.00    +0.000 OA
ATOM     13  H   UNL     1      48.843   5.416  18.474  0.00  0.00    +0.000 HD
BRANCH  11  14
ATOM     14  C   UNL     1      50.030   3.218  18.108  0.00  0.00    +0.000 C 
ATOM     15  C   UNL     1      49.818   2.186  17.024  0.00  0.00    +0.000 C 
ATOM     16  C   UNL     1      48.378   2.392  16.607  0.00  0.00    +0.000 C 
ATOM     17  O   UNL     1      47.684   2.911  17.745  0.00  0.00    +0.000 OA
ATOM     18  C   UNL     1      48.643   3.368  18.708  0.00  0.00    +0.000 C 
ENDBRANCH  11  14
ENDBRANCH   9  10
ENDBRANCH   6   9
ENDBRANCH   2   3
BRANCH   2  19
ATOM     19  N   UNL     1      47.511   7.035  11.599  0.00  0.00    +0.000 N 
ATOM     20  C   UNL     1      46.150   6.999  11.431  0.00  0.00    +0.000 C 
ATOM     21  O   UNL     1      45.425   7.938  11.747  0.00  0.00    +0.000 OA
ATOM     22  H   UNL     1      48.062   6.207  11.408  0.00  0.00    +0.000 HD
BRANCH  20  23
ATOM     23  C   UNL     1      45.606   5.792  10.797  0.00  0.00    +0.000 A 
ATOM     24  C   UNL     1      45.798   5.582   9.437  0.00  0.00    +0.000 A 
ATOM     25  S   UNL     1      45.130   4.118   8.870  0.00  0.00    +0.000 S 
ATOM     26  C   UNL     1      44.513   3.740  10.410  0.00  0.00    +0.000 A 
ATOM     27  N   UNL     1      43.788   2.605  10.615  0.00  0.00    +0.000 NA
ATOM     28  C   UNL     1      43.346   2.466  11.818  0.00  0.00    +0.000 A 
ATOM     29  N   UNL     1      43.569   3.350  12.840  0.00  0.00    +0.000 N 
ATOM     30  C   UNL     1      44.347   4.473  12.696  0.00  0.00    +0.000 A 
ATOM     31  O   UNL     1      44.617   5.179  13.661  0.00  0.00    +0.000 OA
ATOM     32  C   UNL     1      44.836   4.701  11.349  0.00  0.00    +0.000 A 
ATOM     33  H   UNL     1      43.216   3.168  13.769  0.00  0.00    +0.000 HD
ENDBRANCH  20  23
ENDBRANCH   2  19
TORSDOF 6
ENDMDL
MODEL 5
REMARK VINA RESULT:    -6.724      2.343      3.538
REMARK INTER + INTRA:         -10.427
REMARK INTER:                  -9.102
REMARK INTRA:                  -1.325
REMARK UNBOUND:                -1.345
REMARK  Name = 
REMARK  7 active torsions:
REMARK  status: ('A' for Active; 'I' for Inactive)
REMARK    1  A    between atoms: C_1  and  C_2
REMARK    2  A    between atoms: C_2  and  N_3
REMARK    3  A    between atoms: C_2  and  C_16
REMARK    4  A    between atoms: C_4  and  C_6
REMARK    5  A    between atoms: C_19  and  C_20
REMARK    6  A    between atoms: C_20  and  N_21
REMARK    7  A    between atoms: C_22  and  C_24
REMARK                            x       y       z     vdW  Elec       q    Type
REMARK                         _______ _______ _______ _____ _____    ______ ____
ROOT
ATOM      1  C   UNL     1      47.964   2.920  15.780  0.00  0.00    +0.000 C 
ATOM      2  C   UNL     1      47.241   4.268  15.858  0.00  0.00    +0.000 C 
ENDROOT
BRANCH   2   3
ATOM      3  C   UNL     1      46.765   4.754  14.495  0.00  0.00    +0.000 A 
ATOM      4  C   UNL     1      47.329   5.906  13.930  0.00  0.00    +0.000 A 
ATOM      5  C   UNL     1      46.913   6.377  12.676  0.00  0.00    +0.000 A 
ATOM      6  C   UNL     1      45.915   5.710  11.952  0.00  0.00    +0.000 A 
ATOM      7  C   UNL     1      45.377   4.535  12.496  0.00  0.00    +0.000 A 
ATOM      8  C   UNL     1      45.791   4.068  13.753  0.00  0.00    +0.000 A 
BRANCH   6   9
ATOM      9  C   UNL     1      45.459   6.223  10.605  0.00  0.00    +0.000 C 
BRANCH   9  10
ATOM     10  N   UNL     1      45.018   5.138   9.759  0.00  0.00    +0.000 N 
ATOM     11  C   UNL     1      45.704   4.748   8.617  0.00  0.00    +0.000 C 
ATOM     12  O   UNL     1      46.748   5.257   8.243  0.00  0.00    +0.000 OA
ATOM     13  H   UNL     1      44.193   4.634  10.049  0.00  0.00    +0.000 HD
BRANCH  11  14
ATOM     14  C   UNL     1      45.017   3.578   7.909  0.00  0.00    +0.000 C 
ATOM     15  C   UNL     1      44.823   2.326   8.734  0.00  0.00    +0.000 C 
ATOM     16  C   UNL     1      46.068   1.514   8.455  0.00  0.00    +0.000 C 
ATOM     17  O   UNL     1      46.520   1.877   7.147  0.00  0.00    +0.000 OA
ATOM     18  C   UNL     1      45.865   3.088   6.748  0.00  0.00    +0.000 C 
ENDBRANCH  11  14
ENDBRANCH   9  10
ENDBRANCH   6   9
ENDBRANCH   2   3
BRANCH   2  19
ATOM     19  N   UNL     1      48.090   5.267  16.479  0.00  0.00    +0.000 N 
ATOM     20  C   UNL     1      47.937   5.673  17.781  0.00  0.00    +0.000 C 
ATOM     21  O   UNL     1      47.054   5.228  18.508  0.00  0.00    +0.000 OA
ATOM     22  H   UNL     1      48.775   5.724  15.888  0.00  0.00    +0.000 HD
BRANCH  20  23
ATOM     23  C   UNL     1      48.928   6.635  18.281  0.00  0.00    +0.000 A 
ATOM     24  C   UNL     1      48.505   7.756  18.985  0.00  0.00    +0.000 A 
ATOM     25  S   UNL     1      49.784   8.749  19.520  0.00  0.00    +0.000 S 
ATOM     26  C   UNL     1      50.945   7.746  18.782  0.00  0.00    +0.000 A 
ATOM     27  N   UNL     1      52.271   8.053  18.835  0.00  0.00    +0.000 NA
ATOM     28  C   UNL     1      53.032   7.230  18.198  0.00  0.00    +0.000 A 
ATOM     29  N   UNL     1      52.594   6.123  17.522  0.00  0.00    +0.000 N 
ATOM     30  C   UNL     1      51.276   5.739  17.496  0.00  0.00    +0.000 A 
ATOM     31  O   UNL     1      50.938   4.682  16.976  0.00  0.00    +0.000 OA
ATOM     32  C   UNL     1      50.367   6.654  18.162  0.00  0.00    +0.000 A 
ATOM     33  H   UNL     1      53.248   5.503  17.064  0.00  0.00    +0.000 HD
ENDBRANCH  20  23
ENDBRANCH   2  19
TORSDOF 6
ENDMDL
MODEL 6
REMARK VINA RESULT:    -6.682      2.967      8.603
REMARK INTER + INTRA:         -10.370
REMARK INTER:                  -9.168
REMARK INTRA:                  -1.202
REMARK UNBOUND:                -1.345
REMARK  Name = 
REMARK  7 active torsions:
REMARK  status: ('A' for Active; 'I' for Inactive)
REMARK    1  A    between atoms: C_1  and  C_2
REMARK    2  A    between atoms: C_2  and  N_3
REMARK    3  A    between atoms: C_2  and  C_16
REMARK    4  A    between atoms: C_4  and  C_6
REMARK    5  A    between atoms: C_19  and  C_20
REMARK    6  A    between atoms: C_20  and  N_21
REMARK    7  A    between atoms: C_22  and  C_24
REMARK                            x       y       z     vdW  Elec       q    Type
REMARK                         _______ _______ _______ _____ _____    ______ ____
ROOT
ATOM      1  C   UNL     1      49.019   7.799  11.366  0.00  0.00    +0.000 C 
ATOM      2  C   UNL     1      47.778   7.758  12.264  0.00  0.00    +0.000 C 
ENDROOT
BRANCH   2   3
ATOM      3  C   UNL     1      48.126   7.869  13.743  0.00  0.00    +0.000 A 
ATOM      4  C   UNL     1      48.680   6.769  14.414  0.00  0.00    +0.000 A 
ATOM      5  C   UNL     1      49.011   6.842  15.774  0.00  0.00    +0.000 A 
ATOM      6  C   UNL     1      48.793   8.017  16.506  0.00  0.00    +0.000 A 
ATOM      7  C   UNL     1      48.277   9.131  15.830  0.00  0.00    +0.000 A 
ATOM      8  C   UNL     1      47.941   9.056  14.470  0.00  0.00    +0.000 A 
BRANCH   6   9
ATOM      9  C   UNL     1      49.141   8.091  17.976  0.00  0.00    +0.000 C 
BRANCH   9  10
ATOM     10  N   UNL     1      49.505   6.789  18.487  0.00  0.00    +0.000 N 
ATOM     11  C   UNL     1      48.571   5.877  18.960  0.00  0.00    +0.000 C 
ATOM     12  O   UNL     1      47.367   6.075  18.957  0.00  0.00    +0.000 OA
ATOM     13  H   UNL     1      50.483   6.539  18.458  0.00  0.00    +0.000 HD
BRANCH  11  14
ATOM     14  C   UNL     1      49.228   4.583  19.443  0.00  0.00    +0.000 C 
ATOM     15  C   UNL     1      50.687   4.409  19.090  0.00  0.00    +0.000 C 
ATOM     16  C   UNL     1      50.653   3.673  17.769  0.00  0.00    +0.000 C 
ATOM     17  O   UNL     1      49.445   2.905  17.750  0.00  0.00    +0.000 OA
ATOM     18  C   UNL     1      48.575   3.379  18.786  0.00  0.00    +0.000 C 
ENDBRANCH  11  14
ENDBRANCH   9  10
ENDBRANCH   6   9
ENDBRANCH   2   3
BRANCH   2  19
ATOM     19  N   UNL     1      47.009   6.553  12.017  0.00  0.00    +0.000 N 
ATOM     20  C   UNL     1      45.652   6.483  12.200  0.00  0.00    +0.000 C 
ATOM     21  O   UNL     1      44.994   7.437  12.603  0.00  0.00    +0.000 OA
ATOM     22  H   UNL     1      47.526   5.718  11.768  0.00  0.00    +0.000 HD
BRANCH  20  23
ATOM     23  C   UNL     1      45.012   5.213  11.831  0.00  0.00    +0.000 A 
ATOM     24  C   UNL     1      44.291   4.503  12.782  0.00  0.00    +0.000 A 
ATOM     25  S   UNL     1      43.589   3.071  12.178  0.00  0.00    +0.000 S 
ATOM     26  C   UNL     1      44.270   3.321  10.639  0.00  0.00    +0.000 A 
ATOM     27  N   UNL     1      44.079   2.422   9.634  0.00  0.00    +0.000 NA
ATOM     28  C   UNL     1      44.687   2.715   8.535  0.00  0.00    +0.000 A 
ATOM     29  N   UNL     1      45.458   3.830   8.342  0.00  0.00    +0.000 N 
ATOM     30  C   UNL     1      45.625   4.796   9.304  0.00  0.00    +0.000 A 
ATOM     31  O   UNL     1      46.229   5.833   9.057  0.00  0.00    +0.000 OA
ATOM     32  C   UNL     1      44.997   4.495  10.578  0.00  0.00    +0.000 A 
ATOM     33  H   UNL     1      45.886   4.016   7.446  0.00  0.00    +0.000 HD
ENDBRANCH  20  23
ENDBRANCH   2  19
TORSDOF 6
ENDMDL
MODEL 7
REMARK VINA RESULT:    -6.616      4.329      9.416
REMARK INTER + INTRA:         -10.281
REMARK INTER:                  -9.105
REMARK INTRA:                  -1.176
REMARK UNBOUND:                -1.345
REMARK  Name = 
REMARK  7 active torsions:
REMARK  status: ('A' for Active; 'I' for Inactive)
REMARK    1  A    between atoms: C_1  and  C_2
REMARK    2  A    between atoms: C_2  and  N_3
REMARK    3  A    between atoms: C_2  and  C_16
REMARK    4  A    between atoms: C_4  and  C_6
REMARK    5  A    between atoms: C_19  and  C_20
REMARK    6  A    between atoms: C_20  and  N_21
REMARK    7  A    between atoms: C_22  and  C_24
REMARK                            x       y       z     vdW  Elec       q    Type
REMARK                         _______ _______ _______ _____ _____    ______ ____
ROOT
ATOM      1  C   UNL     1      46.742   3.223  17.577  0.00  0.00    +0.000 C 
ATOM      2  C   UNL     1      47.714   3.528  16.433  0.00  0.00    +0.000 C 
ENDROOT
BRANCH   2   3
ATOM      3  C   UNL     1      49.059   4.039  16.933  0.00  0.00    +0.000 A 
ATOM      4  C   UNL     1      50.014   3.131  17.415  0.00  0.00    +0.000 A 
ATOM      5  C   UNL     1      51.261   3.571  17.881  0.00  0.00    +0.000 A 
ATOM      6  C   UNL     1      51.590   4.934  17.881  0.00  0.00    +0.000 A 
ATOM      7  C   UNL     1      50.654   5.839  17.363  0.00  0.00    +0.000 A 
ATOM      8  C   UNL     1      49.404   5.400  16.902  0.00  0.00    +0.000 A 
BRANCH   6   9
ATOM      9  C   UNL     1      52.931   5.407  18.393  0.00  0.00    +0.000 C 
BRANCH   9  10
ATOM     10  N   UNL     1      53.837   4.296  18.576  0.00  0.00    +0.000 N 
ATOM     11  C   UNL     1      54.816   3.963  17.649  0.00  0.00    +0.000 C 
ATOM     12  O   UNL     1      55.022   4.589  16.623  0.00  0.00    +0.000 OA
ATOM     13  H   UNL     1      53.760   3.775  19.437  0.00  0.00    +0.000 HD
BRANCH  11  14
ATOM     14  C   UNL     1      55.630   2.745  18.090  0.00  0.00    +0.000 C 
ATOM     15  C   UNL     1      55.415   1.480  17.291  0.00  0.00    +0.000 C 
ATOM     16  C   UNL     1      54.306   0.768  18.034  0.00  0.00    +0.000 C 
ATOM     17  O   UNL     1      54.397   1.168  19.405  0.00  0.00    +0.000 OA
ATOM     18  C   UNL     1      55.238   2.326  19.497  0.00  0.00    +0.000 C 
ENDBRANCH  11  14
ENDBRANCH   9  10
ENDBRANCH   6   9
ENDBRANCH   2   3
BRANCH   2  19
ATOM     19  N   UNL     1      47.129   4.479  15.505  0.00  0.00    +0.000 N 
ATOM     20  C   UNL     1      46.802   4.156  14.213  0.00  0.00    +0.000 C 
ATOM     21  O   UNL     1      46.998   3.038  13.746  0.00  0.00    +0.000 OA
ATOM     22  H   UNL     1      47.033   5.435  15.824  0.00  0.00    +0.000 HD
BRANCH  20  23
ATOM     23  C   UNL     1      46.146   5.210  13.428  0.00  0.00    +0.000 A 
ATOM     24  C   UNL     1      46.793   6.422  13.226  0.00  0.00    +0.000 A 
ATOM     25  S   UNL     1      45.906   7.519  12.268  0.00  0.00    +0.000 S 
ATOM     26  C   UNL     1      44.603   6.433  12.134  0.00  0.00    +0.000 A 
ATOM     27  N   UNL     1      43.474   6.774  11.451  0.00  0.00    +0.000 NA
ATOM     28  C   UNL     1      42.551   5.874  11.467  0.00  0.00    +0.000 A 
ATOM     29  N   UNL     1      42.653   4.659  12.092  0.00  0.00    +0.000 N 
ATOM     30  C   UNL     1      43.795   4.248  12.736  0.00  0.00    +0.000 A 
ATOM     31  O   UNL     1      43.888   3.112  13.186  0.00  0.00    +0.000 OA
ATOM     32  C   UNL     1      44.852   5.240  12.786  0.00  0.00    +0.000 A 
ATOM     33  H   UNL     1      41.901   3.987  12.043  0.00  0.00    +0.000 HD
ENDBRANCH  20  23
ENDBRANCH   2  19
TORSDOF 6
ENDMDL
MODEL 8
REMARK VINA RESULT:    -6.578      2.075      3.740
REMARK INTER + INTRA:         -10.230
REMARK INTER:                  -9.631
REMARK INTRA:                  -0.599
REMARK UNBOUND:                -1.345
REMARK  Name = 
REMARK  7 active torsions:
REMARK  status: ('A' for Active; 'I' for Inactive)
REMARK    1  A    between atoms: C_1  and  C_2
REMARK    2  A    between atoms: C_2  and  N_3
REMARK    3  A    between atoms: C_2  and  C_16
REMARK    4  A    between atoms: C_4  and  C_6
REMARK    5  A    between atoms: C_19  and  C_20
REMARK    6  A    between atoms: C_20  and  N_21
REMARK    7  A    between atoms: C_22  and  C_24
REMARK                            x       y       z     vdW  Elec       q    Type
REMARK                         _______ _______ _______ _____ _____    ______ ____
ROOT
ATOM      1  C   UNL     1      47.643   3.244  14.814  0.00  0.00    +0.000 C 
ATOM      2  C   UNL     1      46.749   4.483  14.704  0.00  0.00    +0.000 C 
ENDROOT
BRANCH   2   3
ATOM      3  C   UNL     1      46.023   4.560  13.367  0.00  0.00    +0.000 A 
ATOM      4  C   UNL     1      45.644   3.381  12.710  0.00  0.00    +0.000 A 
ATOM      5  C   UNL     1      44.973   3.420  11.479  0.00  0.00    +0.000 A 
ATOM      6  C   UNL     1      44.666   4.643  10.866  0.00  0.00    +0.000 A 
ATOM      7  C   UNL     1      45.007   5.824  11.539  0.00  0.00    +0.000 A 
ATOM      8  C   UNL     1      45.682   5.784  12.768  0.00  0.00    +0.000 A 
BRANCH   6   9
ATOM      9  C   UNL     1      43.952   4.685   9.534  0.00  0.00    +0.000 C 
BRANCH   9  10
ATOM     10  N   UNL     1      44.427   3.637   8.660  0.00  0.00    +0.000 N 
ATOM     11  C   UNL     1      45.559   3.774   7.867  0.00  0.00    +0.000 C 
ATOM     12  O   UNL     1      46.267   4.767   7.860  0.00  0.00    +0.000 OA
ATOM     13  H   UNL     1      43.919   2.764   8.667  0.00  0.00    +0.000 HD
BRANCH  11  14
ATOM     14  C   UNL     1      45.832   2.517   7.039  0.00  0.00    +0.000 C 
ATOM     15  C   UNL     1      46.800   1.524   7.641  0.00  0.00    +0.000 C 
ATOM     16  C   UNL     1      48.143   1.949   7.088  0.00  0.00    +0.000 C 
ATOM     17  O   UNL     1      47.896   2.575   5.826  0.00  0.00    +0.000 OA
ATOM     18  C   UNL     1      46.499   2.882   5.724  0.00  0.00    +0.000 C 
ENDBRANCH  11  14
ENDBRANCH   9  10
ENDBRANCH   6   9
ENDBRANCH   2   3
BRANCH   2  19
ATOM     19  N   UNL     1      47.520   5.691  14.928  0.00  0.00    +0.000 N 
ATOM     20  C   UNL     1      48.503   5.784  15.880  0.00  0.00    +0.000 C 
ATOM     21  O   UNL     1      48.788   4.849  16.623  0.00  0.00    +0.000 OA
ATOM     22  H   UNL     1      47.257   6.512  14.396  0.00  0.00    +0.000 HD
BRANCH  20  23
ATOM     23  C   UNL     1      49.244   7.051  15.926  0.00  0.00    +0.000 A 
ATOM     24  C   UNL     1      49.485   7.664  17.149  0.00  0.00    +0.000 A 
ATOM     25  S   UNL     1      50.383   9.109  17.025  0.00  0.00    +0.000 S 
ATOM     26  C   UNL     1      50.435   8.994  15.328  0.00  0.00    +0.000 A 
ATOM     27  N   UNL     1      51.045   9.955  14.579  0.00  0.00    +0.000 NA
ATOM     28  C   UNL     1      50.972   9.764  13.306  0.00  0.00    +0.000 A 
ATOM     29  N   UNL     1      50.356   8.696  12.710  0.00  0.00    +0.000 N 
ATOM     30  C   UNL     1      49.786   7.671  13.425  0.00  0.00    +0.000 A 
ATOM     31  O   UNL     1      49.345   6.678  12.859  0.00  0.00    +0.000 OA
ATOM     32  C   UNL     1      49.802   7.856  14.865  0.00  0.00    +0.000 A 
ATOM     33  H   UNL     1      50.358   8.591  11.705  0.00  0.00    +0.000 HD
ENDBRANCH  20  23
ENDBRANCH   2  19
TORSDOF 6
ENDMDL
MODEL 9
REMARK VINA RESULT:    -6.540      4.223      9.798
REMARK INTER + INTRA:         -10.178
REMARK INTER:                  -9.051
REMARK INTRA:                  -1.128
REMARK UNBOUND:                -1.345
REMARK  Name = 
REMARK  7 active torsions:
REMARK  status: ('A' for Active; 'I' for Inactive)
REMARK    1  A    between atoms: C_1  and  C_2
REMARK    2  A    between atoms: C_2  and  N_3
REMARK    3  A    between atoms: C_2  and  C_16
REMARK    4  A    between atoms: C_4  and  C_6
REMARK    5  A    between atoms: C_19  and  C_20
REMARK    6  A    between atoms: C_20  and  N_21
REMARK    7  A    between atoms: C_22  and  C_24
REMARK                            x       y       z     vdW  Elec       q    Type
REMARK                         _______ _______ _______ _____ _____    ______ ____
ROOT
ATOM      1  C   UNL     1      47.102   4.961  18.506  0.00  0.00    +0.000 C 
ATOM      2  C   UNL     1      47.568   4.166  17.282  0.00  0.00    +0.000 C 
ENDROOT
BRANCH   2   3
ATOM      3  C   UNL     1      49.014   3.704  17.405  0.00  0.00    +0.000 A 
ATOM      4  C   UNL     1      49.346   2.369  17.129  0.00  0.00    +0.000 A 
ATOM      5  C   UNL     1      50.668   1.915  17.231  0.00  0.00    +0.000 A 
ATOM      6  C   UNL     1      51.699   2.782  17.619  0.00  0.00    +0.000 A 
ATOM      7  C   UNL     1      51.379   4.125  17.857  0.00  0.00    +0.000 A 
ATOM      8  C   UNL     1      50.055   4.579  17.758  0.00  0.00    +0.000 A 
BRANCH   6   9
ATOM      9  C   UNL     1      53.123   2.288  17.739  0.00  0.00    +0.000 C 
BRANCH   9  10
ATOM     10  N   UNL     1      53.968   3.289  18.349  0.00  0.00    +0.000 N 
ATOM     11  C   UNL     1      54.477   3.163  19.635  0.00  0.00    +0.000 C 
ATOM     12  O   UNL     1      54.286   2.192  20.349  0.00  0.00    +0.000 OA
ATOM     13  H   UNL     1      54.215   4.090  17.786  0.00  0.00    +0.000 HD
BRANCH  11  14
ATOM     14  C   UNL     1      55.336   4.365  20.031  0.00  0.00    +0.000 C 
ATOM     15  C   UNL     1      54.725   5.313  21.038  0.00  0.00    +0.000 C 
ATOM     16  C   UNL     1      54.019   6.342  20.182  0.00  0.00    +0.000 C 
ATOM     17  O   UNL     1      54.724   6.406  18.939  0.00  0.00    +0.000 OA
ATOM     18  C   UNL     1      55.580   5.262  18.829  0.00  0.00    +0.000 C 
ENDBRANCH  11  14
ENDBRANCH   9  10
ENDBRANCH   6   9
ENDBRANCH   2   3
BRANCH   2  19
ATOM     19  N   UNL     1      47.391   4.944  16.070  0.00  0.00    +0.000 N 
ATOM     20  C   UNL     1      47.269   4.375  14.828  0.00  0.00    +0.000 C 
ATOM     21  O   UNL     1      47.318   3.161  14.655  0.00  0.00    +0.000 OA
ATOM     22  H   UNL     1      47.432   5.953  16.158  0.00  0.00    +0.000 HD
BRANCH  20  23
ATOM     23  C   UNL     1      47.016   5.298  13.713  0.00  0.00    +0.000 A 
ATOM     24  C   UNL     1      48.008   6.184  13.315  0.00  0.00    +0.000 A 
ATOM     25  S   UNL     1      47.561   7.159  11.989  0.00  0.00    +0.000 S 
ATOM     26  C   UNL     1      46.006   6.469  11.936  0.00  0.00    +0.000 A 
ATOM     27  N   UNL     1      45.084   6.890  11.026  0.00  0.00    +0.000 NA
ATOM     28  C   UNL     1      43.936   6.312  11.127  0.00  0.00    +0.000 A 
ATOM     29  N   UNL     1      43.625   5.344  12.045  0.00  0.00    +0.000 N 
ATOM     30  C   UNL     1      44.542   4.843  12.937  0.00  0.00    +0.000 A 
ATOM     31  O   UNL     1      44.259   3.900  13.666  0.00  0.00    +0.000 OA
ATOM     32  C   UNL     1      45.841   5.489  12.896  0.00  0.00    +0.000 A 
ATOM     33  H   UNL     1      42.712   4.912  12.053  0.00  0.00    +0.000 HD
ENDBRANCH  20  23
ENDBRANCH   2  19
TORSDOF 6
ENDMDL
