MODEL 1
REMARK VINA RESULT:    -7.301      0.000      0.000
REMARK INTER + INTRA:         -11.530
REMARK INTER:                  -9.862
REMARK INTRA:                  -1.668
REMARK UNBOUND:                -1.668
REMARK  Name = 
REMARK  8 active torsions:
REMARK  status: ('A' for Active; 'I' for Inactive)
REMARK    1  A    between atoms: C_1  and  C_2
REMARK    2  A    between atoms: C_2  and  C_3
REMARK    3  A    between atoms: C_3  and  N_4
REMARK    4  A    between atoms: C_3  and  C_18
REMARK    5  A    between atoms: C_5  and  C_7
REMARK    6  A    between atoms: N_13  and  C_14
REMARK    7  A    between atoms: C_21  and  O_22
REMARK    8  A    between atoms: O_22  and  C_23
REMARK                            x       y       z     vdW  Elec       q    Type
REMARK                         _______ _______ _______ _____ _____    ______ ____
ROOT
ATOM      1  C   UNL     1      47.070   8.509  13.627  0.00  0.00    +0.000 C 
ENDROOT
BRANCH   1   2
ATOM      2  C   UNL     1      46.262   7.491  12.829  0.00  0.00    +0.000 A 
ATOM      3  C   UNL     1      46.653   6.145  12.844  0.00  0.00    +0.000 A 
ATOM      4  C   UNL     1      45.984   5.196  12.067  0.00  0.00    +0.000 A 
ATOM      5  C   UNL     1      44.891   5.572  11.282  0.00  0.00    +0.000 A 
ATOM      6  C   UNL     1      44.512   6.911  11.233  0.00  0.00    +0.000 A 
ATOM      7  C   UNL     1      45.197   7.865  11.991  0.00  0.00    +0.000 A 
BRANCH   5   8
ATOM      8  O   UNL     1      44.201   4.721  10.450  0.00  0.00    +0.000 OA
BRANCH   8   9
ATOM      9  C   UNL     1      44.903   3.999   9.495  0.00  0.00    +0.000 A 
ATOM     10  C   UNL     1      44.863   2.618   9.621  0.00  0.00    +0.000 A 
ATOM     11  C   UNL     1      45.546   1.854   8.680  0.00  0.00    +0.000 A 
ATOM     12  C   UNL     1      46.248   2.494   7.664  0.00  0.00    +0.000 A 
ATOM     13  C   UNL     1      46.252   3.879   7.638  0.00  0.00    +0.000 A 
ATOM     14  N   UNL     1      45.609   4.646   8.540  0.00  0.00    +0.000 NA
ENDBRANCH   8   9
ENDBRANCH   5   8
ENDBRANCH   1   2
BRANCH   1  15
ATOM     15  N   UNL     1      48.088   7.764  14.341  0.00  0.00    +0.000 N 
ATOM     16  C   UNL     1      48.642   8.122  15.537  0.00  0.00    +0.000 C 
ATOM     17  O   UNL     1      48.256   9.087  16.192  0.00  0.00    +0.000 OA
ATOM     18  H   UNL     1      48.568   7.079  13.774  0.00  0.00    +0.000 HD
BRANCH  16  19
ATOM     19  C   UNL     1      49.685   7.209  16.028  0.00  0.00    +0.000 A 
ATOM     20  C   UNL     1      51.015   7.600  16.057  0.00  0.00    +0.000 A 
ATOM     21  S   UNL     1      52.040   6.455  16.805  0.00  0.00    +0.000 S 
ATOM     22  C   UNL     1      50.747   5.379  17.066  0.00  0.00    +0.000 A 
ATOM     23  N   UNL     1      50.927   4.201  17.716  0.00  0.00    +0.000 NA
ATOM     24  C   UNL     1      49.858   3.480  17.828  0.00  0.00    +0.000 A 
ATOM     25  N   UNL     1      48.617   3.806  17.325  0.00  0.00    +0.000 N 
ATOM     26  C   UNL     1      47.487   2.916  17.489  0.00  0.00    +0.000 C 
ATOM     27  C   UNL     1      48.404   4.994  16.639  0.00  0.00    +0.000 A 
ATOM     28  O   UNL     1      47.312   5.296  16.163  0.00  0.00    +0.000 OA
ATOM     29  C   UNL     1      49.563   5.866  16.550  0.00  0.00    +0.000 A 
ENDBRANCH  16  19
ENDBRANCH   1  15
BRANCH   1  31
ATOM     30  C   UNL     1      48.757   9.065  11.793  0.00  0.00    +0.000 C 
ATOM     31  C   UNL     1      47.729   9.610  12.774  0.00  0.00    +0.000 C 
ENDBRANCH   1  31
TORSDOF 6
ENDMDL
MODEL 2
REMARK VINA RESULT:    -7.153      2.433      3.820
REMARK INTER + INTRA:         -11.329
REMARK INTER:                 -10.971
REMARK INTRA:                  -0.358
REMARK UNBOUND:                -1.668
REMARK  Name = 
REMARK  8 active torsions:
REMARK  status: ('A' for Active; 'I' for Inactive)
REMARK    1  A    between atoms: C_1  and  C_2
REMARK    2  A    between atoms: C_2  and  C_3
REMARK    3  A    between atoms: C_3  and  N_4
REMARK    4  A    between atoms: C_3  and  C_18
REMARK    5  A    between atoms: C_5  and  C_7
REMARK    6  A    between atoms: N_13  and  C_14
REMARK    7  A    between atoms: C_21  and  O_22
REMARK    8  A    between atoms: O_22  and  C_23
REMARK                            x       y       z     vdW  Elec       q    Type
REMARK                         _______ _______ _______ _____ _____    ______ ____
ROOT
ATOM      1  C   UNL     1      44.257   4.361  12.984  0.00  0.00    +0.000 C 
ENDROOT
BRANCH   1   2
ATOM      2  C   UNL     1      44.583   4.225  11.501  0.00  0.00    +0.000 A 
ATOM      3  C   UNL     1      45.286   5.253  10.858  0.00  0.00    +0.000 A 
ATOM      4  C   UNL     1      45.539   5.199   9.485  0.00  0.00    +0.000 A 
ATOM      5  C   UNL     1      45.117   4.099   8.734  0.00  0.00    +0.000 A 
ATOM      6  C   UNL     1      44.390   3.086   9.354  0.00  0.00    +0.000 A 
ATOM      7  C   UNL     1      44.116   3.151  10.722  0.00  0.00    +0.000 A 
BRANCH   5   8
ATOM      8  O   UNL     1      45.277   3.978   7.373  0.00  0.00    +0.000 OA
BRANCH   8   9
ATOM      9  C   UNL     1      46.275   3.144   6.886  0.00  0.00    +0.000 A 
ATOM     10  C   UNL     1      46.692   3.383   5.586  0.00  0.00    +0.000 A 
ATOM     11  C   UNL     1      47.696   2.576   5.060  0.00  0.00    +0.000 A 
ATOM     12  C   UNL     1      48.233   1.561   5.845  0.00  0.00    +0.000 A 
ATOM     13  C   UNL     1      47.733   1.382   7.124  0.00  0.00    +0.000 A 
ATOM     14  N   UNL     1      46.754   2.141   7.656  0.00  0.00    +0.000 NA
ENDBRANCH   8   9
ENDBRANCH   5   8
ENDBRANCH   1   2
BRANCH   1  15
ATOM     15  N   UNL     1      45.395   5.011  13.602  0.00  0.00    +0.000 N 
ATOM     16  C   UNL     1      46.551   4.392  13.984  0.00  0.00    +0.000 C 
ATOM     17  O   UNL     1      46.788   3.210  13.751  0.00  0.00    +0.000 OA
ATOM     18  H   UNL     1      45.190   5.925  13.982  0.00  0.00    +0.000 HD
BRANCH  16  19
ATOM     19  C   UNL     1      47.537   5.276  14.624  0.00  0.00    +0.000 A 
ATOM     20  C   UNL     1      48.057   6.369  13.947  0.00  0.00    +0.000 A 
ATOM     21  S   UNL     1      49.064   7.351  14.919  0.00  0.00    +0.000 S 
ATOM     22  C   UNL     1      48.879   6.316  16.259  0.00  0.00    +0.000 A 
ATOM     23  N   UNL     1      49.453   6.601  17.456  0.00  0.00    +0.000 NA
ATOM     24  C   UNL     1      49.239   5.718  18.377  0.00  0.00    +0.000 A 
ATOM     25  N   UNL     1      48.525   4.550  18.216  0.00  0.00    +0.000 N 
ATOM     26  C   UNL     1      48.361   3.617  19.311  0.00  0.00    +0.000 C 
ATOM     27  C   UNL     1      47.943   4.220  17.000  0.00  0.00    +0.000 A 
ATOM     28  O   UNL     1      47.320   3.175  16.827  0.00  0.00    +0.000 OA
ATOM     29  C   UNL     1      48.100   5.218  15.956  0.00  0.00    +0.000 A 
ENDBRANCH  16  19
ENDBRANCH   1  15
BRANCH   1  31
ATOM     30  C   UNL     1      42.251   5.616  12.023  0.00  0.00    +0.000 C 
ATOM     31  C   UNL     1      42.973   5.160  13.283  0.00  0.00    +0.000 C 
ENDBRANCH   1  31
TORSDOF 6
ENDMDL
MODEL 3
REMARK VINA RESULT:    -6.973      1.883      2.201
REMARK INTER + INTRA:         -11.086
REMARK INTER:                  -9.663
REMARK INTRA:                  -1.422
REMARK UNBOUND:                -1.668
REMARK  Name = 
REMARK  8 active torsions:
REMARK  status: ('A' for Active; 'I' for Inactive)
REMARK    1  A    between atoms: C_1  and  C_2
REMARK    2  A    between atoms: C_2  and  C_3
REMARK    3  A    between atoms: C_3  and  N_4
REMARK    4  A    between atoms: C_3  and  C_18
REMARK    5  A    between atoms: C_5  and  C_7
REMARK    6  A    between atoms: N_13  and  C_14
REMARK    7  A    between atoms: C_21  and  O_22
REMARK    8  A    between atoms: O_22  and  C_23
REMARK                            x       y       z     vdW  Elec       q    Type
REMARK                         _______ _______ _______ _____ _____    ______ ____
ROOT
ATOM      1  C   UNL     1      48.232   8.079  13.807  0.00  0.00    +0.000 C 
ENDROOT
BRANCH   1   2
ATOM      2  C   UNL     1      47.116   7.298  13.121  0.00  0.00    +0.000 A 
ATOM      3  C   UNL     1      47.096   5.900  13.227  0.00  0.00    +0.000 A 
ATOM      4  C   UNL     1      46.134   5.144  12.552  0.00  0.00    +0.000 A 
ATOM      5  C   UNL     1      45.155   5.777  11.782  0.00  0.00    +0.000 A 
ATOM      6  C   UNL     1      45.182   7.162  11.643  0.00  0.00    +0.000 A 
ATOM      7  C   UNL     1      46.159   7.917  12.298  0.00  0.00    +0.000 A 
BRANCH   5   8
ATOM      8  O   UNL     1      44.197   5.118  11.046  0.00  0.00    +0.000 OA
BRANCH   8   9
ATOM      9  C   UNL     1      44.602   4.204  10.082  0.00  0.00    +0.000 A 
ATOM     10  C   UNL     1      45.338   4.717   9.024  0.00  0.00    +0.000 A 
ATOM     11  C   UNL     1      45.772   3.835   8.039  0.00  0.00    +0.000 A 
ATOM     12  C   UNL     1      45.447   2.486   8.143  0.00  0.00    +0.000 A 
ATOM     13  C   UNL     1      44.685   2.074   9.223  0.00  0.00    +0.000 A 
ATOM     14  N   UNL     1      44.242   2.905  10.187  0.00  0.00    +0.000 NA
ENDBRANCH   8   9
ENDBRANCH   5   8
ENDBRANCH   1   2
BRANCH   1  15
ATOM     15  N   UNL     1      48.150   7.768  15.220  0.00  0.00    +0.000 N 
ATOM     16  C   UNL     1      48.678   8.520  16.230  0.00  0.00    +0.000 C 
ATOM     17  O   UNL     1      49.207   9.614  16.046  0.00  0.00    +0.000 OA
ATOM     18  H   UNL     1      47.898   6.809  15.415  0.00  0.00    +0.000 HD
BRANCH  16  19
ATOM     19  C   UNL     1      48.487   7.960  17.577  0.00  0.00    +0.000 A 
ATOM     20  C   UNL     1      47.995   8.745  18.609  0.00  0.00    +0.000 A 
ATOM     21  S   UNL     1      47.702   7.865  20.045  0.00  0.00    +0.000 S 
ATOM     22  C   UNL     1      48.274   6.421  19.348  0.00  0.00    +0.000 A 
ATOM     23  N   UNL     1      48.256   5.249  20.035  0.00  0.00    +0.000 NA
ATOM     24  C   UNL     1      48.736   4.239  19.384  0.00  0.00    +0.000 A 
ATOM     25  N   UNL     1      49.264   4.283  18.111  0.00  0.00    +0.000 N 
ATOM     26  C   UNL     1      49.793   3.094  17.479  0.00  0.00    +0.000 C 
ATOM     27  C   UNL     1      49.313   5.469  17.390  0.00  0.00    +0.000 A 
ATOM     28  O   UNL     1      49.798   5.538  16.264  0.00  0.00    +0.000 OA
ATOM     29  C   UNL     1      48.723   6.616  18.058  0.00  0.00    +0.000 A 
ENDBRANCH  16  19
ENDBRANCH   1  15
BRANCH   1  31
ATOM     30  C   UNL     1      49.795   8.013  11.789  0.00  0.00    +0.000 C 
ATOM     31  C   UNL     1      49.646   7.763  13.283  0.00  0.00    +0.000 C 
ENDBRANCH   1  31
TORSDOF 6
ENDMDL
MODEL 4
REMARK VINA RESULT:    -6.686      2.567      3.994
REMARK INTER + INTRA:         -10.699
REMARK INTER:                  -9.534
REMARK INTRA:                  -1.165
REMARK UNBOUND:                -1.668
REMARK  Name = 
REMARK  8 active torsions:
REMARK  status: ('A' for Active; 'I' for Inactive)
REMARK    1  A    between atoms: C_1  and  C_2
REMARK    2  A    between atoms: C_2  and  C_3
REMARK    3  A    between atoms: C_3  and  N_4
REMARK    4  A    between atoms: C_3  and  C_18
REMARK    5  A    between atoms: C_5  and  C_7
REMARK    6  A    between atoms: N_13  and  C_14
REMARK    7  A    between atoms: C_21  and  O_22
REMARK    8  A    between atoms: O_22  and  C_23
REMARK                            x       y       z     vdW  Elec       q    Type
REMARK                         _______ _______ _______ _____ _____    ______ ____
ROOT
ATOM      1  C   UNL     1      47.750   5.032  15.226  0.00  0.00    +0.000 C 
ENDROOT
BRANCH   1   2
ATOM      2  C   UNL     1      46.881   4.949  13.975  0.00  0.00    +0.000 A 
ATOM      3  C   UNL     1      46.288   3.725  13.636  0.00  0.00    +0.000 A 
ATOM      4  C   UNL     1      45.547   3.590  12.459  0.00  0.00    +0.000 A 
ATOM      5  C   UNL     1      45.361   4.687  11.614  0.00  0.00    +0.000 A 
ATOM      6  C   UNL     1      45.971   5.900  11.923  0.00  0.00    +0.000 A 
ATOM      7  C   UNL     1      46.733   6.029  13.088  0.00  0.00    +0.000 A 
BRANCH   5   8
ATOM      8  O   UNL     1      44.689   4.641  10.414  0.00  0.00    +0.000 OA
BRANCH   8   9
ATOM      9  C   UNL     1      45.280   3.993   9.339  0.00  0.00    +0.000 A 
ATOM     10  C   UNL     1      45.218   2.607   9.349  0.00  0.00    +0.000 A 
ATOM     11  C   UNL     1      45.790   1.917   8.285  0.00  0.00    +0.000 A 
ATOM     12  C   UNL     1      46.408   2.631   7.265  0.00  0.00    +0.000 A 
ATOM     13  C   UNL     1      46.443   4.013   7.356  0.00  0.00    +0.000 A 
ATOM     14  N   UNL     1      45.907   4.709   8.378  0.00  0.00    +0.000 NA
ENDBRANCH   8   9
ENDBRANCH   5   8
ENDBRANCH   1   2
BRANCH   1  15
ATOM     15  N   UNL     1      47.940   6.441  15.507  0.00  0.00    +0.000 N 
ATOM     16  C   UNL     1      49.143   7.087  15.548  0.00  0.00    +0.000 C 
ATOM     17  O   UNL     1      50.204   6.546  15.250  0.00  0.00    +0.000 OA
ATOM     18  H   UNL     1      47.140   6.885  15.935  0.00  0.00    +0.000 HD
BRANCH  16  19
ATOM     19  C   UNL     1      49.061   8.513  15.895  0.00  0.00    +0.000 A 
ATOM     20  C   UNL     1      49.457   9.488  14.990  0.00  0.00    +0.000 A 
ATOM     21  S   UNL     1      49.136  11.079  15.527  0.00  0.00    +0.000 S 
ATOM     22  C   UNL     1      48.508  10.517  17.006  0.00  0.00    +0.000 A 
ATOM     23  N   UNL     1      48.002  11.373  17.930  0.00  0.00    +0.000 NA
ATOM     24  C   UNL     1      47.574  10.805  19.012  0.00  0.00    +0.000 A 
ATOM     25  N   UNL     1      47.626   9.454  19.280  0.00  0.00    +0.000 N 
ATOM     26  C   UNL     1      47.135   8.921  20.534  0.00  0.00    +0.000 C 
ATOM     27  C   UNL     1      48.153   8.554  18.364  0.00  0.00    +0.000 A 
ATOM     28  O   UNL     1      48.230   7.349  18.590  0.00  0.00    +0.000 OA
ATOM     29  C   UNL     1      48.584   9.142  17.107  0.00  0.00    +0.000 A 
ENDBRANCH  16  19
ENDBRANCH   1  15
BRANCH   1  31
ATOM     30  C   UNL     1      47.965   3.113  16.898  0.00  0.00    +0.000 C 
ATOM     31  C   UNL     1      47.157   4.327  16.462  0.00  0.00    +0.000 C 
ENDBRANCH   1  31
TORSDOF 6
ENDMDL
MODEL 5
REMARK VINA RESULT:    -6.615      2.069      4.572
REMARK INTER + INTRA:         -10.603
REMARK INTER:                  -9.252
REMARK INTRA:                  -1.352
REMARK UNBOUND:                -1.668
REMARK  Name = 
REMARK  8 active torsions:
REMARK  status: ('A' for Active; 'I' for Inactive)
REMARK    1  A    between atoms: C_1  and  C_2
REMARK    2  A    between atoms: C_2  and  C_3
REMARK    3  A    between atoms: C_3  and  N_4
REMARK    4  A    between atoms: C_3  and  C_18
REMARK    5  A    between atoms: C_5  and  C_7
REMARK    6  A    between atoms: N_13  and  C_14
REMARK    7  A    between atoms: C_21  and  O_22
REMARK    8  A    between atoms: O_22  and  C_23
REMARK                            x       y       z     vdW  Elec       q    Type
REMARK                         _______ _______ _______ _____ _____    ______ ____
ROOT
ATOM      1  C   UNL     1      47.653   4.697  15.281  0.00  0.00    +0.000 C 
ENDROOT
BRANCH   1   2
ATOM      2  C   UNL     1      46.784   4.559  14.036  0.00  0.00    +0.000 A 
ATOM      3  C   UNL     1      46.415   3.280  13.598  0.00  0.00    +0.000 A 
ATOM      4  C   UNL     1      45.683   3.108  12.421  0.00  0.00    +0.000 A 
ATOM      5  C   UNL     1      45.280   4.219  11.674  0.00  0.00    +0.000 A 
ATOM      6  C   UNL     1      45.667   5.493  12.080  0.00  0.00    +0.000 A 
ATOM      7  C   UNL     1      46.421   5.663  13.244  0.00  0.00    +0.000 A 
BRANCH   5   8
ATOM      8  O   UNL     1      44.599   4.149  10.481  0.00  0.00    +0.000 OA
BRANCH   8   9
ATOM      9  C   UNL     1      45.208   3.535   9.395  0.00  0.00    +0.000 A 
ATOM     10  C   UNL     1      45.674   4.377   8.397  0.00  0.00    +0.000 A 
ATOM     11  C   UNL     1      46.299   3.804   7.294  0.00  0.00    +0.000 A 
ATOM     12  C   UNL     1      46.424   2.421   7.225  0.00  0.00    +0.000 A 
ATOM     13  C   UNL     1      45.904   1.661   8.259  0.00  0.00    +0.000 A 
ATOM     14  N   UNL     1      45.284   2.186   9.335  0.00  0.00    +0.000 NA
ENDBRANCH   8   9
ENDBRANCH   5   8
ENDBRANCH   1   2
BRANCH   1  15
ATOM     15  N   UNL     1      47.921   6.112  15.447  0.00  0.00    +0.000 N 
ATOM     16  C   UNL     1      49.063   6.648  15.972  0.00  0.00    +0.000 C 
ATOM     17  O   UNL     1      50.042   5.972  16.276  0.00  0.00    +0.000 OA
ATOM     18  H   UNL     1      47.097   6.695  15.391  0.00  0.00    +0.000 HD
BRANCH  16  19
ATOM     19  C   UNL     1      49.065   8.115  16.064  0.00  0.00    +0.000 A 
ATOM     20  C   UNL     1      49.010   8.750  17.297  0.00  0.00    +0.000 A 
ATOM     21  S   UNL     1      49.182  10.447  17.191  0.00  0.00    +0.000 S 
ATOM     22  C   UNL     1      49.282  10.391  15.492  0.00  0.00    +0.000 A 
ATOM     23  N   UNL     1      49.483  11.516  14.759  0.00  0.00    +0.000 NA
ATOM     24  C   UNL     1      49.522  11.323  13.480  0.00  0.00    +0.000 A 
ATOM     25  N   UNL     1      49.351  10.110  12.847  0.00  0.00    +0.000 N 
ATOM     26  C   UNL     1      49.395  10.006  11.404  0.00  0.00    +0.000 C 
ATOM     27  C   UNL     1      49.125   8.945  13.568  0.00  0.00    +0.000 A 
ATOM     28  O   UNL     1      48.948   7.856  13.026  0.00  0.00    +0.000 OA
ATOM     29  C   UNL     1      49.141   9.105  15.012  0.00  0.00    +0.000 A 
ENDBRANCH  16  19
ENDBRANCH   1  15
BRANCH   1  31
ATOM     30  C   UNL     1      47.829   2.996  17.178  0.00  0.00    +0.000 C 
ATOM     31  C   UNL     1      47.019   4.131  16.566  0.00  0.00    +0.000 C 
ENDBRANCH   1  31
TORSDOF 6
ENDMDL
MODEL 6
REMARK VINA RESULT:    -5.872      2.084      2.857
REMARK INTER + INTRA:          -9.599
REMARK INTER:                  -8.119
REMARK INTRA:                  -1.480
REMARK UNBOUND:                -1.668
REMARK  Name = 
REMARK  8 active torsions:
REMARK  status: ('A' for Active; 'I' for Inactive)
REMARK    1  A    between atoms: C_1  and  C_2
REMARK    2  A    between atoms: C_2  and  C_3
REMARK    3  A    between atoms: C_3  and  N_4
REMARK    4  A    between atoms: C_3  and  C_18
REMARK    5  A    between atoms: C_5  and  C_7
REMARK    6  A    between atoms: N_13  and  C_14
REMARK    7  A    between atoms: C_21  and  O_22
REMARK    8  A    between atoms: O_22  and  C_23
REMARK                            x       y       z     vdW  Elec       q    Type
REMARK                         _______ _______ _______ _____ _____    ______ ____
ROOT
ATOM      1  C   UNL     1      49.665   8.838  13.855  0.00  0.00    +0.000 C 
ENDROOT
BRANCH   1   2
ATOM      2  C   UNL     1      48.413   8.371  13.119  0.00  0.00    +0.000 A 
ATOM      3  C   UNL     1      47.187   8.994  13.392  0.00  0.00    +0.000 A 
ATOM      4  C   UNL     1      46.007   8.545  12.795  0.00  0.00    +0.000 A 
ATOM      5  C   UNL     1      46.036   7.482  11.889  0.00  0.00    +0.000 A 
ATOM      6  C   UNL     1      47.242   6.834  11.633  0.00  0.00    +0.000 A 
ATOM      7  C   UNL     1      48.419   7.267  12.249  0.00  0.00    +0.000 A 
BRANCH   5   8
ATOM      8  O   UNL     1      44.924   6.941  11.287  0.00  0.00    +0.000 OA
BRANCH   8   9
ATOM      9  C   UNL     1      44.504   5.674  11.668  0.00  0.00    +0.000 A 
ATOM     10  C   UNL     1      44.649   4.671  10.721  0.00  0.00    +0.000 A 
ATOM     11  C   UNL     1      44.249   3.383  11.063  0.00  0.00    +0.000 A 
ATOM     12  C   UNL     1      43.713   3.150  12.325  0.00  0.00    +0.000 A 
ATOM     13  C   UNL     1      43.583   4.222  13.194  0.00  0.00    +0.000 A 
ATOM     14  N   UNL     1      43.952   5.481  12.887  0.00  0.00    +0.000 NA
ENDBRANCH   8   9
ENDBRANCH   5   8
ENDBRANCH   1   2
BRANCH   1  15
ATOM     15  N   UNL     1      49.683   8.145  15.127  0.00  0.00    +0.000 N 
ATOM     16  C   UNL     1      49.174   8.625  16.300  0.00  0.00    +0.000 C 
ATOM     17  O   UNL     1      48.549   9.680  16.378  0.00  0.00    +0.000 OA
ATOM     18  H   UNL     1      50.334   7.374  15.165  0.00  0.00    +0.000 HD
BRANCH  16  19
ATOM     19  C   UNL     1      49.355   7.735  17.457  0.00  0.00    +0.000 A 
ATOM     20  C   UNL     1      49.876   8.217  18.649  0.00  0.00    +0.000 A 
ATOM     21  S   UNL     1      49.859   7.063  19.910  0.00  0.00    +0.000 S 
ATOM     22  C   UNL     1      49.203   5.869  18.888  0.00  0.00    +0.000 A 
ATOM     23  N   UNL     1      48.892   4.633  19.355  0.00  0.00    +0.000 NA
ATOM     24  C   UNL     1      48.417   3.826  18.462  0.00  0.00    +0.000 A 
ATOM     25  N   UNL     1      48.244   4.121  17.127  0.00  0.00    +0.000 N 
ATOM     26  C   UNL     1      47.720   3.136  16.204  0.00  0.00    +0.000 C 
ATOM     27  C   UNL     1      48.570   5.370  16.615  0.00  0.00    +0.000 A 
ATOM     28  O   UNL     1      48.445   5.649  15.425  0.00  0.00    +0.000 OA
ATOM     29  C   UNL     1      49.044   6.329  17.597  0.00  0.00    +0.000 A 
ENDBRANCH  16  19
ENDBRANCH   1  15
BRANCH   1  31
ATOM     30  C   UNL     1      51.281   9.637  12.047  0.00  0.00    +0.000 C 
ATOM     31  C   UNL     1      50.982   8.579  13.099  0.00  0.00    +0.000 C 
ENDBRANCH   1  31
TORSDOF 6
ENDMDL
MODEL 7
REMARK VINA RESULT:    -5.795      2.847      4.744
REMARK INTER + INTRA:          -9.495
REMARK INTER:                  -8.636
REMARK INTRA:                  -0.858
REMARK UNBOUND:                -1.668
REMARK  Name = 
REMARK  8 active torsions:
REMARK  status: ('A' for Active; 'I' for Inactive)
REMARK    1  A    between atoms: C_1  and  C_2
REMARK    2  A    between atoms: C_2  and  C_3
REMARK    3  A    between atoms: C_3  and  N_4
REMARK    4  A    between atoms: C_3  and  C_18
REMARK    5  A    between atoms: C_5  and  C_7
REMARK    6  A    between atoms: N_13  and  C_14
REMARK    7  A    between atoms: C_21  and  O_22
REMARK    8  A    between atoms: O_22  and  C_23
REMARK                            x       y       z     vdW  Elec       q    Type
REMARK                         _______ _______ _______ _____ _____    ______ ____
ROOT
ATOM      1  C   UNL     1      48.114   4.791  16.082  0.00  0.00    +0.000 C 
ENDROOT
BRANCH   1   2
ATOM      2  C   UNL     1      47.378   5.113  14.786  0.00  0.00    +0.000 A 
ATOM      3  C   UNL     1      46.598   4.119  14.178  0.00  0.00    +0.000 A 
ATOM      4  C   UNL     1      45.969   4.352  12.953  0.00  0.00    +0.000 A 
ATOM      5  C   UNL     1      46.084   5.595  12.326  0.00  0.00    +0.000 A 
ATOM      6  C   UNL     1      46.881   6.581  12.904  0.00  0.00    +0.000 A 
ATOM      7  C   UNL     1      47.531   6.340  14.117  0.00  0.00    +0.000 A 
BRANCH   5   8
ATOM      8  O   UNL     1      45.541   5.903  11.100  0.00  0.00    +0.000 OA
BRANCH   8   9
ATOM      9  C   UNL     1      45.257   4.873  10.215  0.00  0.00    +0.000 A 
ATOM     10  C   UNL     1      45.830   4.972   8.956  0.00  0.00    +0.000 A 
ATOM     11  C   UNL     1      45.579   3.956   8.038  0.00  0.00    +0.000 A 
ATOM     12  C   UNL     1      44.761   2.894   8.408  0.00  0.00    +0.000 A 
ATOM     13  C   UNL     1      44.212   2.896   9.679  0.00  0.00    +0.000 A 
ATOM     14  N   UNL     1      44.429   3.870  10.585  0.00  0.00    +0.000 NA
ENDBRANCH   8   9
ENDBRANCH   5   8
ENDBRANCH   1   2
BRANCH   1  15
ATOM     15  N   UNL     1      47.898   5.914  16.973  0.00  0.00    +0.000 N 
ATOM     16  C   UNL     1      48.664   6.222  18.061  0.00  0.00    +0.000 C 
ATOM     17  O   UNL     1      49.696   5.620  18.347  0.00  0.00    +0.000 OA
ATOM     18  H   UNL     1      46.978   6.324  16.900  0.00  0.00    +0.000 HD
BRANCH  16  19
ATOM     19  C   UNL     1      48.205   7.395  18.821  0.00  0.00    +0.000 A 
ATOM     20  C   UNL     1      47.683   7.253  20.099  0.00  0.00    +0.000 A 
ATOM     21  S   UNL     1      47.357   8.746  20.864  0.00  0.00    +0.000 S 
ATOM     22  C   UNL     1      47.854   9.626  19.494  0.00  0.00    +0.000 A 
ATOM     23  N   UNL     1      47.870  10.984  19.493  0.00  0.00    +0.000 NA
ATOM     24  C   UNL     1      48.256  11.515  18.378  0.00  0.00    +0.000 A 
ATOM     25  N   UNL     1      48.606  10.822  17.239  0.00  0.00    +0.000 N 
ATOM     26  C   UNL     1      49.006  11.516  16.034  0.00  0.00    +0.000 C 
ATOM     27  C   UNL     1      48.581   9.434  17.201  0.00  0.00    +0.000 A 
ATOM     28  O   UNL     1      48.867   8.795  16.192  0.00  0.00    +0.000 OA
ATOM     29  C   UNL     1      48.219   8.794  18.455  0.00  0.00    +0.000 A 
ENDBRANCH  16  19
ENDBRANCH   1  15
BRANCH   1  31
ATOM     30  C   UNL     1      48.757   2.432  16.817  0.00  0.00    +0.000 C 
ATOM     31  C   UNL     1      47.661   3.487  16.765  0.00  0.00    +0.000 C 
ENDBRANCH   1  31
TORSDOF 6
ENDMDL
MODEL 8
REMARK VINA RESULT:    -5.760      2.982      5.905
REMARK INTER + INTRA:          -9.448
REMARK INTER:                  -7.910
REMARK INTRA:                  -1.538
REMARK UNBOUND:                -1.668
REMARK  Name = 
REMARK  8 active torsions:
REMARK  status: ('A' for Active; 'I' for Inactive)
REMARK    1  A    between atoms: C_1  and  C_2
REMARK    2  A    between atoms: C_2  and  C_3
REMARK    3  A    between atoms: C_3  and  N_4
REMARK    4  A    between atoms: C_3  and  C_18
REMARK    5  A    between atoms: C_5  and  C_7
REMARK    6  A    between atoms: N_13  and  C_14
REMARK    7  A    between atoms: C_21  and  O_22
REMARK    8  A    between atoms: O_22  and  C_23
REMARK                            x       y       z     vdW  Elec       q    Type
REMARK                         _______ _______ _______ _____ _____    ______ ____
ROOT
ATOM      1  C   UNL     1      46.009   5.658  13.062  0.00  0.00    +0.000 C 
ENDROOT
BRANCH   1   2
ATOM      2  C   UNL     1      46.555   7.001  12.589  0.00  0.00    +0.000 A 
ATOM      3  C   UNL     1      47.850   7.062  12.055  0.00  0.00    +0.000 A 
ATOM      4  C   UNL     1      48.413   8.285  11.680  0.00  0.00    +0.000 A 
ATOM      5  C   UNL     1      47.678   9.467  11.806  0.00  0.00    +0.000 A 
ATOM      6  C   UNL     1      46.403   9.424  12.364  0.00  0.00    +0.000 A 
ATOM      7  C   UNL     1      45.849   8.204  12.762  0.00  0.00    +0.000 A 
BRANCH   5   8
ATOM      8  O   UNL     1      48.162  10.720  11.508  0.00  0.00    +0.000 OA
BRANCH   8   9
ATOM      9  C   UNL     1      49.508  10.986  11.717  0.00  0.00    +0.000 A 
ATOM     10  C   UNL     1      50.290  11.117  10.578  0.00  0.00    +0.000 A 
ATOM     11  C   UNL     1      51.644  11.393  10.740  0.00  0.00    +0.000 A 
ATOM     12  C   UNL     1      52.164  11.516  12.025  0.00  0.00    +0.000 A 
ATOM     13  C   UNL     1      51.309  11.342  13.101  0.00  0.00    +0.000 A 
ATOM     14  N   UNL     1      49.996  11.064  12.976  0.00  0.00    +0.000 NA
ENDBRANCH   8   9
ENDBRANCH   5   8
ENDBRANCH   1   2
BRANCH   1  15
ATOM     15  N   UNL     1      46.609   5.397  14.355  0.00  0.00    +0.000 N 
ATOM     16  C   UNL     1      47.171   4.215  14.746  0.00  0.00    +0.000 C 
ATOM     17  O   UNL     1      47.315   3.258  13.989  0.00  0.00    +0.000 OA
ATOM     18  H   UNL     1      46.358   6.069  15.067  0.00  0.00    +0.000 HD
BRANCH  16  19
ATOM     19  C   UNL     1      47.676   4.202  16.127  0.00  0.00    +0.000 A 
ATOM     20  C   UNL     1      47.228   3.257  17.038  0.00  0.00    +0.000 A 
ATOM     21  S   UNL     1      48.052   3.319  18.535  0.00  0.00    +0.000 S 
ATOM     22  C   UNL     1      48.994   4.644  18.030  0.00  0.00    +0.000 A 
ATOM     23  N   UNL     1      49.953   5.175  18.831  0.00  0.00    +0.000 NA
ATOM     24  C   UNL     1      50.578   6.187  18.321  0.00  0.00    +0.000 A 
ATOM     25  N   UNL     1      50.322   6.748  17.088  0.00  0.00    +0.000 N 
ATOM     26  C   UNL     1      51.069   7.895  16.618  0.00  0.00    +0.000 C 
ATOM     27  C   UNL     1      49.335   6.240  16.253  0.00  0.00    +0.000 A 
ATOM     28  O   UNL     1      49.074   6.736  15.160  0.00  0.00    +0.000 OA
ATOM     29  C   UNL     1      48.654   5.060  16.759  0.00  0.00    +0.000 A 
ENDBRANCH  16  19
ENDBRANCH   1  15
BRANCH   1  31
ATOM     30  C   UNL     1      43.908   4.219  12.868  0.00  0.00    +0.000 C 
ATOM     31  C   UNL     1      44.474   5.599  13.176  0.00  0.00    +0.000 C 
ENDBRANCH   1  31
TORSDOF 6
ENDMDL
MODEL 9
REMARK VINA RESULT:    -5.538      2.715      3.840
REMARK INTER + INTRA:          -9.148
REMARK INTER:                  -7.747
REMARK INTRA:                  -1.401
REMARK UNBOUND:                -1.668
REMARK  Name = 
REMARK  8 active torsions:
REMARK  status: ('A' for Active; 'I' for Inactive)
REMARK    1  A    between atoms: C_1  and  C_2
REMARK    2  A    between atoms: C_2  and  C_3
REMARK    3  A    between atoms: C_3  and  N_4
REMARK    4  A    between atoms: C_3  and  C_18
REMARK    5  A    between atoms: C_5  and  C_7
REMARK    6  A    between atoms: N_13  and  C_14
REMARK    7  A    between atoms: C_21  and  O_22
REMARK    8  A    between atoms: O_22  and  C_23
REMARK                            x       y       z     vdW  Elec       q    Type
REMARK                         _______ _______ _______ _____ _____    ______ ____
ROOT
ATOM      1  C   UNL     1      49.085   7.282  16.345  0.00  0.00    +0.000 C 
ENDROOT
BRANCH   1   2
ATOM      2  C   UNL     1      48.283   6.265  15.540  0.00  0.00    +0.000 A 
ATOM      3  C   UNL     1      47.851   5.086  16.164  0.00  0.00    +0.000 A 
ATOM      4  C   UNL     1      47.179   4.097  15.441  0.00  0.00    +0.000 A 
ATOM      5  C   UNL     1      46.901   4.283  14.084  0.00  0.00    +0.000 A 
ATOM      6  C   UNL     1      47.352   5.435  13.445  0.00  0.00    +0.000 A 
ATOM      7  C   UNL     1      48.045   6.414  14.162  0.00  0.00    +0.000 A 
BRANCH   5   8
ATOM      8  O   UNL     1      46.288   3.350  13.280  0.00  0.00    +0.000 OA
BRANCH   8   9
ATOM      9  C   UNL     1      45.172   3.727  12.545  0.00  0.00    +0.000 A 
ATOM     10  C   UNL     1      44.185   4.411  13.238  0.00  0.00    +0.000 A 
ATOM     11  C   UNL     1      43.052   4.816  12.538  0.00  0.00    +0.000 A 
ATOM     12  C   UNL     1      42.946   4.513  11.185  0.00  0.00    +0.000 A 
ATOM     13  C   UNL     1      43.972   3.802  10.586  0.00  0.00    +0.000 A 
ATOM     14  N   UNL     1      45.075   3.388  11.239  0.00  0.00    +0.000 NA
ENDBRANCH   8   9
ENDBRANCH   5   8
ENDBRANCH   1   2
BRANCH   1  15
ATOM     15  N   UNL     1      50.369   6.671  16.624  0.00  0.00    +0.000 N 
ATOM     16  C   UNL     1      50.978   6.626  17.846  0.00  0.00    +0.000 C 
ATOM     17  O   UNL     1      50.441   7.024  18.877  0.00  0.00    +0.000 OA
ATOM     18  H   UNL     1      50.929   6.499  15.801  0.00  0.00    +0.000 HD
BRANCH  16  19
ATOM     19  C   UNL     1      52.299   5.980  17.850  0.00  0.00    +0.000 A 
ATOM     20  C   UNL     1      53.458   6.734  17.948  0.00  0.00    +0.000 A 
ATOM     21  S   UNL     1      54.872   5.785  18.092  0.00  0.00    +0.000 S 
ATOM     22  C   UNL     1      53.984   4.337  17.976  0.00  0.00    +0.000 A 
ATOM     23  N   UNL     1      54.590   3.126  18.075  0.00  0.00    +0.000 NA
ATOM     24  C   UNL     1      53.791   2.115  17.953  0.00  0.00    +0.000 A 
ATOM     25  N   UNL     1      52.436   2.189  17.711  0.00  0.00    +0.000 N 
ATOM     26  C   UNL     1      51.634   0.992  17.573  0.00  0.00    +0.000 C 
ATOM     27  C   UNL     1      51.790   3.412  17.587  0.00  0.00    +0.000 A 
ATOM     28  O   UNL     1      50.588   3.503  17.350  0.00  0.00    +0.000 OA
ATOM     29  C   UNL     1      52.638   4.575  17.785  0.00  0.00    +0.000 A 
ENDBRANCH  16  19
ENDBRANCH   1  15
BRANCH   1  31
ATOM     30  C   UNL     1      50.683   8.784  15.038  0.00  0.00    +0.000 C 
ATOM     31  C   UNL     1      49.292   8.635  15.637  0.00  0.00    +0.000 C 
ENDBRANCH   1  31
TORSDOF 6
ENDMDL
