MODEL 1
REMARK VINA RESULT:    -7.571      0.000      0.000
REMARK INTER + INTRA:         -13.213
REMARK INTER:                 -11.554
REMARK INTRA:                  -1.659
REMARK UNBOUND:                -1.659
REMARK  Name = 
REMARK  10 active torsions:
REMARK  status: ('A' for Active; 'I' for Inactive)
REMARK    1  A    between atoms: C_2  and  C_3
REMARK    2  A    between atoms: C_7  and  C_8
REMARK    3  A    between atoms: C_8  and  O_9
REMARK    4  A    between atoms: O_9  and  C_10
REMARK    5  A    between atoms: C_10  and  C_11
REMARK    6  A    between atoms: C_14  and  C_15
REMARK    7  A    between atoms: C_15  and  N_16
REMARK    8  A    between atoms: C_17  and  C_19
REMARK    9  A    between atoms: C_26  and  O_27
REMARK   10  A    between atoms: O_27  and  C_28
REMARK                            x       y       z     vdW  Elec       q    Type
REMARK                         _______ _______ _______ _____ _____    ______ ____
ROOT
ATOM      1  C   UNL     1      44.808   5.605  12.810  0.00  0.00    +0.000 A 
ATOM      2  C   UNL     1      44.933   6.898  12.287  0.00  0.00    +0.000 A 
ATOM      3  C   UNL     1      46.189   7.504  12.164  0.00  0.00    +0.000 A 
ATOM      4  C   UNL     1      47.350   6.821  12.545  0.00  0.00    +0.000 A 
ATOM      5  C   UNL     1      47.221   5.537  13.093  0.00  0.00    +0.000 A 
ATOM      6  C   UNL     1      45.965   4.934  13.224  0.00  0.00    +0.000 A 
ENDROOT
BRANCH   1   7
ATOM      7  C   UNL     1      43.450   4.958  12.929  0.00  0.00    +0.000 C 
BRANCH   7   8
ATOM      8  O   UNL     1      42.986   4.621  11.624  0.00  0.00    +0.000 OA
BRANCH   8   9
ATOM      9  C   UNL     1      43.385   3.305  11.243  0.00  0.00    +0.000 C 
BRANCH   9  14
ATOM     10  C   UNL     1      45.751   2.192   8.469  0.00  0.00    +0.000 A 
ATOM     11  C   UNL     1      46.094   3.408   7.878  0.00  0.00    +0.000 A 
ATOM     12  C   UNL     1      45.565   4.598   8.378  0.00  0.00    +0.000 A 
ATOM     13  C   UNL     1      44.686   4.572   9.463  0.00  0.00    +0.000 A 
ATOM     14  C   UNL     1      44.313   3.355  10.054  0.00  0.00    +0.000 A 
ATOM     15  C   UNL     1      44.869   2.167   9.553  0.00  0.00    +0.000 A 
BRANCH  10  17
ATOM     16  C   UNL     1      46.779  -0.057   7.566  0.00  0.00    +0.000 C 
ATOM     17  C   UNL     1      46.305   0.970   7.974  0.00  0.00    +0.000 C 
ENDBRANCH  10  17
ENDBRANCH   9  14
ENDBRANCH   8   9
ENDBRANCH   7   8
ENDBRANCH   1   7
BRANCH   4  18
ATOM     18  C   UNL     1      48.711   7.454  12.394  0.00  0.00    +0.000 C 
BRANCH  18  19
ATOM     19  N   UNL     1      49.609   7.020  13.434  0.00  0.00    +0.000 N 
ATOM     20  C   UNL     1      49.574   7.560  14.695  0.00  0.00    +0.000 C 
ATOM     21  O   UNL     1      48.733   8.388  15.032  0.00  0.00    +0.000 OA
ATOM     22  H   UNL     1      50.416   6.483  13.151  0.00  0.00    +0.000 HD
BRANCH  20  23
ATOM     23  C   UNL     1      50.564   7.038  15.646  0.00  0.00    +0.000 A 
ATOM     24  C   UNL     1      51.877   7.485  15.589  0.00  0.00    +0.000 A 
ATOM     25  S   UNL     1      52.866   6.835  16.815  0.00  0.00    +0.000 S 
ATOM     26  C   UNL     1      51.586   5.895  17.420  0.00  0.00    +0.000 A 
ATOM     27  N   UNL     1      51.787   5.091  18.480  0.00  0.00    +0.000 NA
ATOM     28  C   UNL     1      50.691   4.409  18.819  0.00  0.00    +0.000 A 
ATOM     29  N   UNL     1      49.490   4.449  18.231  0.00  0.00    +0.000 NA
ATOM     30  C   UNL     1      49.340   5.268  17.168  0.00  0.00    +0.000 A 
ATOM     31  C   UNL     1      50.402   6.064  16.714  0.00  0.00    +0.000 A 
BRANCH  30  32
ATOM     32  O   UNL     1      48.121   5.324  16.528  0.00  0.00    +0.000 OA
ATOM     33  C   UNL     1      47.317   4.164  16.693  0.00  0.00    +0.000 C 
ENDBRANCH  30  32
ENDBRANCH  20  23
ENDBRANCH  18  19
ENDBRANCH   4  18
TORSDOF 9
ENDMDL
MODEL 2
REMARK VINA RESULT:    -7.343      1.784      2.105
REMARK INTER + INTRA:         -12.866
REMARK INTER:                 -11.861
REMARK INTRA:                  -1.005
REMARK UNBOUND:                -1.659
REMARK  Name = 
REMARK  10 active torsions:
REMARK  status: ('A' for Active; 'I' for Inactive)
REMARK    1  A    between atoms: C_2  and  C_3
REMARK    2  A    between atoms: C_7  and  C_8
REMARK    3  A    between atoms: C_8  and  O_9
REMARK    4  A    between atoms: O_9  and  C_10
REMARK    5  A    between atoms: C_10  and  C_11
REMARK    6  A    between atoms: C_14  and  C_15
REMARK    7  A    between atoms: C_15  and  N_16
REMARK    8  A    between atoms: C_17  and  C_19
REMARK    9  A    between atoms: C_26  and  O_27
REMARK   10  A    between atoms: O_27  and  C_28
REMARK                            x       y       z     vdW  Elec       q    Type
REMARK                         _______ _______ _______ _____ _____    ______ ____
ROOT
ATOM      1  C   UNL     1      44.522   4.030  12.525  0.00  0.00    +0.000 A 
ATOM      2  C   UNL     1      44.386   5.422  12.574  0.00  0.00    +0.000 A 
ATOM      3  C   UNL     1      45.460   6.236  12.951  0.00  0.00    +0.000 A 
ATOM      4  C   UNL     1      46.702   5.673  13.270  0.00  0.00    +0.000 A 
ATOM      5  C   UNL     1      46.829   4.277  13.245  0.00  0.00    +0.000 A 
ATOM      6  C   UNL     1      45.752   3.463  12.877  0.00  0.00    +0.000 A 
ENDROOT
BRANCH   1   7
ATOM      7  C   UNL     1      43.359   3.163  12.108  0.00  0.00    +0.000 C 
BRANCH   7   8
ATOM      8  O   UNL     1      43.519   2.809  10.736  0.00  0.00    +0.000 OA
BRANCH   8   9
ATOM      9  C   UNL     1      43.919   3.926   9.944  0.00  0.00    +0.000 C 
BRANCH   9  14
ATOM     10  C   UNL     1      46.285   1.767   7.876  0.00  0.00    +0.000 A 
ATOM     11  C   UNL     1      47.022   2.729   7.186  0.00  0.00    +0.000 A 
ATOM     12  C   UNL     1      46.761   4.084   7.389  0.00  0.00    +0.000 A 
ATOM     13  C   UNL     1      45.757   4.478   8.277  0.00  0.00    +0.000 A 
ATOM     14  C   UNL     1      44.991   3.523   8.961  0.00  0.00    +0.000 A 
ATOM     15  C   UNL     1      45.277   2.162   8.762  0.00  0.00    +0.000 A 
BRANCH  10  17
ATOM     16  C   UNL     1      46.797  -0.790   7.517  0.00  0.00    +0.000 C 
ATOM     17  C   UNL     1      46.559   0.376   7.686  0.00  0.00    +0.000 C 
ENDBRANCH  10  17
ENDBRANCH   9  14
ENDBRANCH   8   9
ENDBRANCH   7   8
ENDBRANCH   1   7
BRANCH   4  18
ATOM     18  C   UNL     1      47.875   6.541  13.653  0.00  0.00    +0.000 C 
BRANCH  18  19
ATOM     19  N   UNL     1      47.944   6.728  15.080  0.00  0.00    +0.000 N 
ATOM     20  C   UNL     1      49.140   6.790  15.747  0.00  0.00    +0.000 C 
ATOM     21  O   UNL     1      50.219   6.761  15.164  0.00  0.00    +0.000 OA
ATOM     22  H   UNL     1      47.094   6.577  15.605  0.00  0.00    +0.000 HD
BRANCH  20  23
ATOM     23  C   UNL     1      49.057   6.960  17.203  0.00  0.00    +0.000 A 
ATOM     24  C   UNL     1      49.053   8.236  17.750  0.00  0.00    +0.000 A 
ATOM     25  S   UNL     1      48.870   8.245  19.445  0.00  0.00    +0.000 S 
ATOM     26  C   UNL     1      48.849   6.547  19.502  0.00  0.00    +0.000 A 
ATOM     27  N   UNL     1      48.726   5.918  20.685  0.00  0.00    +0.000 NA
ATOM     28  C   UNL     1      48.745   4.589  20.563  0.00  0.00    +0.000 A 
ATOM     29  N   UNL     1      48.874   3.875  19.438  0.00  0.00    +0.000 NA
ATOM     30  C   UNL     1      48.998   4.553  18.277  0.00  0.00    +0.000 A 
ATOM     31  C   UNL     1      48.972   5.955  18.252  0.00  0.00    +0.000 A 
BRANCH  30  32
ATOM     32  O   UNL     1      49.148   3.851  17.100  0.00  0.00    +0.000 OA
ATOM     33  C   UNL     1      47.949   3.266  16.609  0.00  0.00    +0.000 C 
ENDBRANCH  30  32
ENDBRANCH  20  23
ENDBRANCH  18  19
ENDBRANCH   4  18
TORSDOF 9
ENDMDL
MODEL 3
REMARK VINA RESULT:    -7.031      2.476      4.331
REMARK INTER + INTRA:         -12.390
REMARK INTER:                 -10.985
REMARK INTRA:                  -1.404
REMARK UNBOUND:                -1.659
REMARK  Name = 
REMARK  10 active torsions:
REMARK  status: ('A' for Active; 'I' for Inactive)
REMARK    1  A    between atoms: C_2  and  C_3
REMARK    2  A    between atoms: C_7  and  C_8
REMARK    3  A    between atoms: C_8  and  O_9
REMARK    4  A    between atoms: O_9  and  C_10
REMARK    5  A    between atoms: C_10  and  C_11
REMARK    6  A    between atoms: C_14  and  C_15
REMARK    7  A    between atoms: C_15  and  N_16
REMARK    8  A    between atoms: C_17  and  C_19
REMARK    9  A    between atoms: C_26  and  O_27
REMARK   10  A    between atoms: O_27  and  C_28
REMARK                            x       y       z     vdW  Elec       q    Type
REMARK                         _______ _______ _______ _____ _____    ______ ____
ROOT
ATOM      1  C   UNL     1      47.436   5.649  14.056  0.00  0.00    +0.000 A 
ATOM      2  C   UNL     1      48.182   6.173  15.119  0.00  0.00    +0.000 A 
ATOM      3  C   UNL     1      48.372   5.437  16.294  0.00  0.00    +0.000 A 
ATOM      4  C   UNL     1      47.836   4.150  16.422  0.00  0.00    +0.000 A 
ATOM      5  C   UNL     1      47.068   3.637  15.368  0.00  0.00    +0.000 A 
ATOM      6  C   UNL     1      46.870   4.377  14.197  0.00  0.00    +0.000 A 
ENDROOT
BRANCH   1   7
ATOM      7  C   UNL     1      47.246   6.448  12.790  0.00  0.00    +0.000 C 
BRANCH   7   8
ATOM      8  O   UNL     1      45.866   6.781  12.659  0.00  0.00    +0.000 OA
BRANCH   8   9
ATOM      9  C   UNL     1      45.478   6.903  11.292  0.00  0.00    +0.000 C 
BRANCH   9  14
ATOM     10  C   UNL     1      45.401   3.949   8.882  0.00  0.00    +0.000 A 
ATOM     11  C   UNL     1      44.559   3.058   9.548  0.00  0.00    +0.000 A 
ATOM     12  C   UNL     1      44.006   3.410  10.779  0.00  0.00    +0.000 A 
ATOM     13  C   UNL     1      44.302   4.650  11.350  0.00  0.00    +0.000 A 
ATOM     14  C   UNL     1      45.165   5.548  10.705  0.00  0.00    +0.000 A 
ATOM     15  C   UNL     1      45.699   5.189   9.457  0.00  0.00    +0.000 A 
BRANCH  10  17
ATOM     16  C   UNL     1      46.419   3.300   6.544  0.00  0.00    +0.000 C 
ATOM     17  C   UNL     1      45.956   3.603   7.611  0.00  0.00    +0.000 C 
ENDBRANCH  10  17
ENDBRANCH   9  14
ENDBRANCH   8   9
ENDBRANCH   7   8
ENDBRANCH   1   7
BRANCH   4  18
ATOM     18  C   UNL     1      48.056   3.337  17.674  0.00  0.00    +0.000 C 
BRANCH  18  19
ATOM     19  N   UNL     1      49.459   3.110  17.911  0.00  0.00    +0.000 N 
ATOM     20  C   UNL     1      50.194   2.243  17.143  0.00  0.00    +0.000 C 
ATOM     21  O   UNL     1      49.721   1.668  16.167  0.00  0.00    +0.000 OA
ATOM     22  H   UNL     1      49.832   3.419  18.797  0.00  0.00    +0.000 HD
BRANCH  20  23
ATOM     23  C   UNL     1      51.606   2.093  17.515  0.00  0.00    +0.000 A 
ATOM     24  C   UNL     1      52.146   0.824  17.677  0.00  0.00    +0.000 A 
ATOM     25  S   UNL     1      53.813   0.838  18.029  0.00  0.00    +0.000 S 
ATOM     26  C   UNL     1      53.850   2.537  18.033  0.00  0.00    +0.000 A 
ATOM     27  N   UNL     1      55.003   3.182  18.286  0.00  0.00    +0.000 NA
ATOM     28  C   UNL     1      54.861   4.509  18.270  0.00  0.00    +0.000 A 
ATOM     29  N   UNL     1      53.741   5.207  18.046  0.00  0.00    +0.000 NA
ATOM     30  C   UNL     1      52.609   4.513  17.802  0.00  0.00    +0.000 A 
ATOM     31  C   UNL     1      52.614   3.112  17.764  0.00  0.00    +0.000 A 
BRANCH  30  32
ATOM     32  O   UNL     1      51.434   5.199  17.581  0.00  0.00    +0.000 OA
ATOM     33  C   UNL     1      51.272   6.361  18.384  0.00  0.00    +0.000 C 
ENDBRANCH  30  32
ENDBRANCH  20  23
ENDBRANCH  18  19
ENDBRANCH   4  18
TORSDOF 9
ENDMDL
MODEL 4
REMARK VINA RESULT:    -6.548      2.363      3.254
REMARK INTER + INTRA:         -11.653
REMARK INTER:                 -10.542
REMARK INTRA:                  -1.111
REMARK UNBOUND:                -1.659
REMARK  Name = 
REMARK  10 active torsions:
REMARK  status: ('A' for Active; 'I' for Inactive)
REMARK    1  A    between atoms: C_2  and  C_3
REMARK    2  A    between atoms: C_7  and  C_8
REMARK    3  A    between atoms: C_8  and  O_9
REMARK    4  A    between atoms: O_9  and  C_10
REMARK    5  A    between atoms: C_10  and  C_11
REMARK    6  A    between atoms: C_14  and  C_15
REMARK    7  A    between atoms: C_15  and  N_16
REMARK    8  A    between atoms: C_17  and  C_19
REMARK    9  A    between atoms: C_26  and  O_27
REMARK   10  A    between atoms: O_27  and  C_28
REMARK                            x       y       z     vdW  Elec       q    Type
REMARK                         _______ _______ _______ _____ _____    ______ ____
ROOT
ATOM      1  C   UNL     1      44.275   5.870  12.382  0.00  0.00    +0.000 A 
ATOM      2  C   UNL     1      44.983   7.075  12.282  0.00  0.00    +0.000 A 
ATOM      3  C   UNL     1      46.260   7.205  12.840  0.00  0.00    +0.000 A 
ATOM      4  C   UNL     1      46.865   6.125  13.495  0.00  0.00    +0.000 A 
ATOM      5  C   UNL     1      46.145   4.928  13.616  0.00  0.00    +0.000 A 
ATOM      6  C   UNL     1      44.865   4.801  13.066  0.00  0.00    +0.000 A 
ENDROOT
BRANCH   1   7
ATOM      7  C   UNL     1      42.903   5.738  11.768  0.00  0.00    +0.000 C 
BRANCH   7   8
ATOM      8  O   UNL     1      42.999   4.929  10.598  0.00  0.00    +0.000 OA
BRANCH   8   9
ATOM      9  C   UNL     1      44.183   5.212   9.855  0.00  0.00    +0.000 C 
BRANCH   9  14
ATOM     10  C   UNL     1      46.005   2.853   7.478  0.00  0.00    +0.000 A 
ATOM     11  C   UNL     1      45.767   1.611   8.068  0.00  0.00    +0.000 A 
ATOM     12  C   UNL     1      45.011   1.529   9.237  0.00  0.00    +0.000 A 
ATOM     13  C   UNL     1      44.498   2.689   9.821  0.00  0.00    +0.000 A 
ATOM     14  C   UNL     1      44.748   3.948   9.254  0.00  0.00    +0.000 A 
ATOM     15  C   UNL     1      45.495   4.014   8.067  0.00  0.00    +0.000 A 
BRANCH  10  17
ATOM     16  C   UNL     1      47.402   3.029   5.255  0.00  0.00    +0.000 C 
ATOM     17  C   UNL     1      46.764   2.942   6.269  0.00  0.00    +0.000 C 
ENDBRANCH  10  17
ENDBRANCH   9  14
ENDBRANCH   8   9
ENDBRANCH   7   8
ENDBRANCH   1   7
BRANCH   4  18
ATOM     18  C   UNL     1      48.251   6.246  14.078  0.00  0.00    +0.000 C 
BRANCH  18  19
ATOM     19  N   UNL     1      48.202   6.591  15.476  0.00  0.00    +0.000 N 
ATOM     20  C   UNL     1      48.433   5.665  16.461  0.00  0.00    +0.000 C 
ATOM     21  O   UNL     1      48.764   4.510  16.211  0.00  0.00    +0.000 OA
ATOM     22  H   UNL     1      47.764   7.469  15.718  0.00  0.00    +0.000 HD
BRANCH  20  23
ATOM     23  C   UNL     1      48.326   6.153  17.841  0.00  0.00    +0.000 A 
ATOM     24  C   UNL     1      47.454   5.535  18.727  0.00  0.00    +0.000 A 
ATOM     25  S   UNL     1      47.520   6.181  20.303  0.00  0.00    +0.000 S 
ATOM     26  C   UNL     1      48.671   7.340  19.834  0.00  0.00    +0.000 A 
ATOM     27  N   UNL     1      49.139   8.222  20.736  0.00  0.00    +0.000 NA
ATOM     28  C   UNL     1      50.019   9.074  20.208  0.00  0.00    +0.000 A 
ATOM     29  N   UNL     1      50.444   9.128  18.940  0.00  0.00    +0.000 NA
ATOM     30  C   UNL     1      49.941   8.224  18.073  0.00  0.00    +0.000 A 
ATOM     31  C   UNL     1      49.023   7.252  18.494  0.00  0.00    +0.000 A 
BRANCH  30  32
ATOM     32  O   UNL     1      50.345   8.258  16.755  0.00  0.00    +0.000 OA
ATOM     33  C   UNL     1      50.397   9.561  16.190  0.00  0.00    +0.000 C 
ENDBRANCH  30  32
ENDBRANCH  20  23
ENDBRANCH  18  19
ENDBRANCH   4  18
TORSDOF 9
ENDMDL
MODEL 5
REMARK VINA RESULT:    -6.498      1.907      2.769
REMARK INTER + INTRA:         -11.576
REMARK INTER:                 -10.687
REMARK INTRA:                  -0.890
REMARK UNBOUND:                -1.659
REMARK  Name = 
REMARK  10 active torsions:
REMARK  status: ('A' for Active; 'I' for Inactive)
REMARK    1  A    between atoms: C_2  and  C_3
REMARK    2  A    between atoms: C_7  and  C_8
REMARK    3  A    between atoms: C_8  and  O_9
REMARK    4  A    between atoms: O_9  and  C_10
REMARK    5  A    between atoms: C_10  and  C_11
REMARK    6  A    between atoms: C_14  and  C_15
REMARK    7  A    between atoms: C_15  and  N_16
REMARK    8  A    between atoms: C_17  and  C_19
REMARK    9  A    between atoms: C_26  and  O_27
REMARK   10  A    between atoms: O_27  and  C_28
REMARK                            x       y       z     vdW  Elec       q    Type
REMARK                         _______ _______ _______ _____ _____    ______ ____
ROOT
ATOM      1  C   UNL     1      47.079   6.537  12.395  0.00  0.00    +0.000 A 
ATOM      2  C   UNL     1      47.756   7.761  12.360  0.00  0.00    +0.000 A 
ATOM      3  C   UNL     1      48.564   8.165  13.429  0.00  0.00    +0.000 A 
ATOM      4  C   UNL     1      48.726   7.342  14.550  0.00  0.00    +0.000 A 
ATOM      5  C   UNL     1      48.026   6.128  14.595  0.00  0.00    +0.000 A 
ATOM      6  C   UNL     1      47.212   5.728  13.530  0.00  0.00    +0.000 A 
ENDROOT
BRANCH   1   7
ATOM      7  C   UNL     1      46.218   6.107  11.232  0.00  0.00    +0.000 C 
BRANCH   7   8
ATOM      8  O   UNL     1      44.861   6.045  11.661  0.00  0.00    +0.000 OA
BRANCH   8   9
ATOM      9  C   UNL     1      43.983   5.696  10.592  0.00  0.00    +0.000 C 
BRANCH   9  14
ATOM     10  C   UNL     1      45.492   3.193   8.145  0.00  0.00    +0.000 A 
ATOM     11  C   UNL     1      45.150   1.975   8.732  0.00  0.00    +0.000 A 
ATOM     12  C   UNL     1      44.424   1.956   9.923  0.00  0.00    +0.000 A 
ATOM     13  C   UNL     1      44.046   3.155  10.531  0.00  0.00    +0.000 A 
ATOM     14  C   UNL     1      44.402   4.389   9.966  0.00  0.00    +0.000 A 
ATOM     15  C   UNL     1      45.117   4.393   8.757  0.00  0.00    +0.000 A 
BRANCH  10  17
ATOM     16  C   UNL     1      46.822   3.240   5.874  0.00  0.00    +0.000 C 
ATOM     17  C   UNL     1      46.220   3.219   6.914  0.00  0.00    +0.000 C 
ENDBRANCH  10  17
ENDBRANCH   9  14
ENDBRANCH   8   9
ENDBRANCH   7   8
ENDBRANCH   1   7
BRANCH   4  18
ATOM     18  C   UNL     1      49.614   7.755  15.697  0.00  0.00    +0.000 C 
BRANCH  18  19
ATOM     19  N   UNL     1      50.514   6.694  16.071  0.00  0.00    +0.000 N 
ATOM     20  C   UNL     1      50.646   6.277  17.371  0.00  0.00    +0.000 C 
ATOM     21  O   UNL     1      49.955   6.730  18.279  0.00  0.00    +0.000 OA
ATOM     22  H   UNL     1      51.216   6.427  15.395  0.00  0.00    +0.000 HD
BRANCH  20  23
ATOM     23  C   UNL     1      51.619   5.204  17.607  0.00  0.00    +0.000 A 
ATOM     24  C   UNL     1      52.921   5.520  17.973  0.00  0.00    +0.000 A 
ATOM     25  S   UNL     1      53.887   4.151  18.283  0.00  0.00    +0.000 S 
ATOM     26  C   UNL     1      52.614   3.098  17.882  0.00  0.00    +0.000 A 
ATOM     27  N   UNL     1      52.804   1.767  17.935  0.00  0.00    +0.000 NA
ATOM     28  C   UNL     1      51.718   1.082  17.575  0.00  0.00    +0.000 A 
ATOM     29  N   UNL     1      50.535   1.572  17.184  0.00  0.00    +0.000 NA
ATOM     30  C   UNL     1      50.397   2.915  17.144  0.00  0.00    +0.000 A 
ATOM     31  C   UNL     1      51.450   3.761  17.518  0.00  0.00    +0.000 A 
BRANCH  30  32
ATOM     32  O   UNL     1      49.198   3.455  16.732  0.00  0.00    +0.000 OA
ATOM     33  C   UNL     1      48.187   2.497  16.450  0.00  0.00    +0.000 C 
ENDBRANCH  30  32
ENDBRANCH  20  23
ENDBRANCH  18  19
ENDBRANCH   4  18
TORSDOF 9
ENDMDL
MODEL 6
REMARK VINA RESULT:    -6.442      4.788      6.619
REMARK INTER + INTRA:         -11.490
REMARK INTER:                 -10.138
REMARK INTRA:                  -1.352
REMARK UNBOUND:                -1.659
REMARK  Name = 
REMARK  10 active torsions:
REMARK  status: ('A' for Active; 'I' for Inactive)
REMARK    1  A    between atoms: C_2  and  C_3
REMARK    2  A    between atoms: C_7  and  C_8
REMARK    3  A    between atoms: C_8  and  O_9
REMARK    4  A    between atoms: O_9  and  C_10
REMARK    5  A    between atoms: C_10  and  C_11
REMARK    6  A    between atoms: C_14  and  C_15
REMARK    7  A    between atoms: C_15  and  N_16
REMARK    8  A    between atoms: C_17  and  C_19
REMARK    9  A    between atoms: C_26  and  O_27
REMARK   10  A    between atoms: O_27  and  C_28
REMARK                            x       y       z     vdW  Elec       q    Type
REMARK                         _______ _______ _______ _____ _____    ______ ____
ROOT
ATOM      1  C   UNL     1      47.377   7.919  12.373  0.00  0.00    +0.000 A 
ATOM      2  C   UNL     1      48.409   6.976  12.298  0.00  0.00    +0.000 A 
ATOM      3  C   UNL     1      49.683   7.341  11.847  0.00  0.00    +0.000 A 
ATOM      4  C   UNL     1      49.956   8.664  11.479  0.00  0.00    +0.000 A 
ATOM      5  C   UNL     1      48.915   9.601  11.530  0.00  0.00    +0.000 A 
ATOM      6  C   UNL     1      47.639   9.234  11.972  0.00  0.00    +0.000 A 
ENDROOT
BRANCH   1   7
ATOM      7  C   UNL     1      46.010   7.517  12.870  0.00  0.00    +0.000 C 
BRANCH   7   8
ATOM      8  O   UNL     1      45.676   6.245  12.321  0.00  0.00    +0.000 OA
BRANCH   8   9
ATOM      9  C   UNL     1      45.078   6.365  11.032  0.00  0.00    +0.000 C 
BRANCH   9  14
ATOM     10  C   UNL     1      45.465   3.568   8.471  0.00  0.00    +0.000 A 
ATOM     11  C   UNL     1      44.744   2.532   9.066  0.00  0.00    +0.000 A 
ATOM     12  C   UNL     1      44.124   2.734  10.299  0.00  0.00    +0.000 A 
ATOM     13  C   UNL     1      44.231   3.970  10.941  0.00  0.00    +0.000 A 
ATOM     14  C   UNL     1      44.971   5.014  10.368  0.00  0.00    +0.000 A 
ATOM     15  C   UNL     1      45.574   4.803   9.117  0.00  0.00    +0.000 A 
BRANCH  10  17
ATOM     16  C   UNL     1      46.613   3.198   6.131  0.00  0.00    +0.000 C 
ATOM     17  C   UNL     1      46.088   3.373   7.198  0.00  0.00    +0.000 C 
ENDBRANCH  10  17
ENDBRANCH   9  14
ENDBRANCH   8   9
ENDBRANCH   7   8
ENDBRANCH   1   7
BRANCH   4  18
ATOM     18  C   UNL     1      51.332   9.074  11.016  0.00  0.00    +0.000 C 
BRANCH  18  19
ATOM     19  N   UNL     1      52.088   7.940  10.549  0.00  0.00    +0.000 N 
ATOM     20  C   UNL     1      53.434   8.018  10.299  0.00  0.00    +0.000 C 
ATOM     21  O   UNL     1      54.086   9.032  10.526  0.00  0.00    +0.000 OA
ATOM     22  H   UNL     1      51.564   7.156  10.185  0.00  0.00    +0.000 HD
BRANCH  20  23
ATOM     23  C   UNL     1      54.069   6.789   9.805  0.00  0.00    +0.000 A 
ATOM     24  C   UNL     1      55.058   6.172  10.558  0.00  0.00    +0.000 A 
ATOM     25  S   UNL     1      55.623   4.719   9.870  0.00  0.00    +0.000 S 
ATOM     26  C   UNL     1      54.608   4.903   8.520  0.00  0.00    +0.000 A 
ATOM     27  N   UNL     1      54.623   3.982   7.540  0.00  0.00    +0.000 NA
ATOM     28  C   UNL     1      53.784   4.280   6.546  0.00  0.00    +0.000 A 
ATOM     29  N   UNL     1      52.986   5.350   6.444  0.00  0.00    +0.000 NA
ATOM     30  C   UNL     1      53.011   6.247   7.452  0.00  0.00    +0.000 A 
ATOM     31  C   UNL     1      53.829   6.051   8.574  0.00  0.00    +0.000 A 
BRANCH  30  32
ATOM     32  O   UNL     1      52.214   7.369   7.374  0.00  0.00    +0.000 OA
ATOM     33  C   UNL     1      52.790   8.451   6.655  0.00  0.00    +0.000 C 
ENDBRANCH  30  32
ENDBRANCH  20  23
ENDBRANCH  18  19
ENDBRANCH   4  18
TORSDOF 9
ENDMDL
MODEL 7
REMARK VINA RESULT:    -6.428      1.638      2.239
REMARK INTER + INTRA:         -11.470
REMARK INTER:                 -10.110
REMARK INTRA:                  -1.359
REMARK UNBOUND:                -1.659
REMARK  Name = 
REMARK  10 active torsions:
REMARK  status: ('A' for Active; 'I' for Inactive)
REMARK    1  A    between atoms: C_2  and  C_3
REMARK    2  A    between atoms: C_7  and  C_8
REMARK    3  A    between atoms: C_8  and  O_9
REMARK    4  A    between atoms: O_9  and  C_10
REMARK    5  A    between atoms: C_10  and  C_11
REMARK    6  A    between atoms: C_14  and  C_15
REMARK    7  A    between atoms: C_15  and  N_16
REMARK    8  A    between atoms: C_17  and  C_19
REMARK    9  A    between atoms: C_26  and  O_27
REMARK   10  A    between atoms: O_27  and  C_28
REMARK                            x       y       z     vdW  Elec       q    Type
REMARK                         _______ _______ _______ _____ _____    ______ ____
ROOT
ATOM      1  C   UNL     1      45.172   6.423  12.368  0.00  0.00    +0.000 A 
ATOM      2  C   UNL     1      46.080   5.425  12.741  0.00  0.00    +0.000 A 
ATOM      3  C   UNL     1      47.385   5.750  13.128  0.00  0.00    +0.000 A 
ATOM      4  C   UNL     1      47.804   7.085  13.169  0.00  0.00    +0.000 A 
ATOM      5  C   UNL     1      46.901   8.081  12.771  0.00  0.00    +0.000 A 
ATOM      6  C   UNL     1      45.599   7.755  12.375  0.00  0.00    +0.000 A 
ENDROOT
BRANCH   1   7
ATOM      7  C   UNL     1      43.764   6.061  11.963  0.00  0.00    +0.000 C 
BRANCH   7   8
ATOM      8  O   UNL     1      43.795   4.835  11.237  0.00  0.00    +0.000 OA
BRANCH   8   9
ATOM      9  C   UNL     1      44.064   5.047   9.852  0.00  0.00    +0.000 C 
BRANCH   9  14
ATOM     10  C   UNL     1      46.009   2.798   7.465  0.00  0.00    +0.000 A 
ATOM     11  C   UNL     1      45.792   1.536   8.019  0.00  0.00    +0.000 A 
ATOM     12  C   UNL     1      45.011   1.404   9.167  0.00  0.00    +0.000 A 
ATOM     13  C   UNL     1      44.452   2.535   9.766  0.00  0.00    +0.000 A 
ATOM     14  C   UNL     1      44.679   3.814   9.236  0.00  0.00    +0.000 A 
ATOM     15  C   UNL     1      45.452   3.930   8.069  0.00  0.00    +0.000 A 
BRANCH  10  17
ATOM     16  C   UNL     1      47.445   3.061   5.275  0.00  0.00    +0.000 C 
ATOM     17  C   UNL     1      46.794   2.938   6.278  0.00  0.00    +0.000 C 
ENDBRANCH  10  17
ENDBRANCH   9  14
ENDBRANCH   8   9
ENDBRANCH   7   8
ENDBRANCH   1   7
BRANCH   4  18
ATOM     18  C   UNL     1      49.200   7.451  13.608  0.00  0.00    +0.000 C 
BRANCH  18  19
ATOM     19  N   UNL     1      49.382   7.220  15.019  0.00  0.00    +0.000 N 
ATOM     20  C   UNL     1      48.979   8.131  15.962  0.00  0.00    +0.000 C 
ATOM     21  O   UNL     1      48.377   9.159  15.666  0.00  0.00    +0.000 OA
ATOM     22  H   UNL     1      50.023   6.485  15.286  0.00  0.00    +0.000 HD
BRANCH  20  23
ATOM     23  C   UNL     1      49.251   7.773  17.359  0.00  0.00    +0.000 A 
ATOM     24  C   UNL     1      49.842   8.701  18.207  0.00  0.00    +0.000 A 
ATOM     25  S   UNL     1      50.008   8.143  19.809  0.00  0.00    +0.000 S 
ATOM     26  C   UNL     1      49.352   6.629  19.404  0.00  0.00    +0.000 A 
ATOM     27  N   UNL     1      49.229   5.677  20.347  0.00  0.00    +0.000 NA
ATOM     28  C   UNL     1      48.715   4.544  19.867  0.00  0.00    +0.000 A 
ATOM     29  N   UNL     1      48.340   4.287  18.607  0.00  0.00    +0.000 NA
ATOM     30  C   UNL     1      48.487   5.273  17.697  0.00  0.00    +0.000 A 
ATOM     31  C   UNL     1      48.994   6.527  18.066  0.00  0.00    +0.000 A 
BRANCH  30  32
ATOM     32  O   UNL     1      48.125   5.039  16.388  0.00  0.00    +0.000 OA
ATOM     33  C   UNL     1      47.229   3.950  16.211  0.00  0.00    +0.000 C 
ENDBRANCH  30  32
ENDBRANCH  20  23
ENDBRANCH  18  19
ENDBRANCH   4  18
TORSDOF 9
ENDMDL
MODEL 8
REMARK VINA RESULT:    -6.380      3.261      8.886
REMARK INTER + INTRA:         -11.397
REMARK INTER:                  -9.613
REMARK INTRA:                  -1.784
REMARK UNBOUND:                -1.659
REMARK  Name = 
REMARK  10 active torsions:
REMARK  status: ('A' for Active; 'I' for Inactive)
REMARK    1  A    between atoms: C_2  and  C_3
REMARK    2  A    between atoms: C_7  and  C_8
REMARK    3  A    between atoms: C_8  and  O_9
REMARK    4  A    between atoms: O_9  and  C_10
REMARK    5  A    between atoms: C_10  and  C_11
REMARK    6  A    between atoms: C_14  and  C_15
REMARK    7  A    between atoms: C_15  and  N_16
REMARK    8  A    between atoms: C_17  and  C_19
REMARK    9  A    between atoms: C_26  and  O_27
REMARK   10  A    between atoms: O_27  and  C_28
REMARK                            x       y       z     vdW  Elec       q    Type
REMARK                         _______ _______ _______ _____ _____    ______ ____
ROOT
ATOM      1  C   UNL     1      51.538   3.254  18.146  0.00  0.00    +0.000 A 
ATOM      2  C   UNL     1      50.686   4.299  18.521  0.00  0.00    +0.000 A 
ATOM      3  C   UNL     1      49.342   4.305  18.130  0.00  0.00    +0.000 A 
ATOM      4  C   UNL     1      48.817   3.254  17.369  0.00  0.00    +0.000 A 
ATOM      5  C   UNL     1      49.678   2.221  16.973  0.00  0.00    +0.000 A 
ATOM      6  C   UNL     1      51.023   2.219  17.356  0.00  0.00    +0.000 A 
ENDROOT
BRANCH   1   7
ATOM      7  C   UNL     1      52.983   3.253  18.582  0.00  0.00    +0.000 C 
BRANCH   7   8
ATOM      8  O   UNL     1      53.798   3.628  17.475  0.00  0.00    +0.000 OA
BRANCH   8   9
ATOM      9  C   UNL     1      54.440   4.883  17.693  0.00  0.00    +0.000 C 
BRANCH   9  14
ATOM     10  C   UNL     1      52.299   7.399  15.789  0.00  0.00    +0.000 A 
ATOM     11  C   UNL     1      53.125   7.722  14.712  0.00  0.00    +0.000 A 
ATOM     12  C   UNL     1      54.379   7.123  14.592  0.00  0.00    +0.000 A 
ATOM     13  C   UNL     1      54.812   6.207  15.554  0.00  0.00    +0.000 A 
ATOM     14  C   UNL     1      54.004   5.889  16.655  0.00  0.00    +0.000 A 
ATOM     15  C   UNL     1      52.735   6.485  16.753  0.00  0.00    +0.000 A 
BRANCH  10  17
ATOM     16  C   UNL     1      49.915   8.490  16.018  0.00  0.00    +0.000 C 
ATOM     17  C   UNL     1      51.005   7.995  15.908  0.00  0.00    +0.000 C 
ENDBRANCH  10  17
ENDBRANCH   9  14
ENDBRANCH   8   9
ENDBRANCH   7   8
ENDBRANCH   1   7
BRANCH   4  18
ATOM     18  C   UNL     1      47.364   3.236  16.963  0.00  0.00    +0.000 C 
BRANCH  18  19
ATOM     19  N   UNL     1      47.056   4.327  16.074  0.00  0.00    +0.000 N 
ATOM     20  C   UNL     1      47.132   4.196  14.710  0.00  0.00    +0.000 C 
ATOM     21  O   UNL     1      47.396   3.128  14.167  0.00  0.00    +0.000 OA
ATOM     22  H   UNL     1      47.013   5.252  16.478  0.00  0.00    +0.000 HD
BRANCH  20  23
ATOM     23  C   UNL     1      46.813   5.399  13.930  0.00  0.00    +0.000 A 
ATOM     24  C   UNL     1      47.680   6.483  13.947  0.00  0.00    +0.000 A 
ATOM     25  S   UNL     1      47.192   7.755  12.923  0.00  0.00    +0.000 S 
ATOM     26  C   UNL     1      45.782   6.920  12.474  0.00  0.00    +0.000 A 
ATOM     27  N   UNL     1      44.915   7.483  11.612  0.00  0.00    +0.000 NA
ATOM     28  C   UNL     1      43.854   6.711  11.377  0.00  0.00    +0.000 A 
ATOM     29  N   UNL     1      43.591   5.504  11.895  0.00  0.00    +0.000 NA
ATOM     30  C   UNL     1      44.489   4.985  12.757  0.00  0.00    +0.000 A 
ATOM     31  C   UNL     1      45.665   5.676  13.080  0.00  0.00    +0.000 A 
BRANCH  30  32
ATOM     32  O   UNL     1      44.244   3.751  13.321  0.00  0.00    +0.000 OA
ATOM     33  C   UNL     1      43.723   2.785  12.419  0.00  0.00    +0.000 C 
ENDBRANCH  30  32
ENDBRANCH  20  23
ENDBRANCH  18  19
ENDBRANCH   4  18
TORSDOF 9
ENDMDL
MODEL 9
REMARK VINA RESULT:    -6.144      1.916      2.718
REMARK INTER + INTRA:         -11.036
REMARK INTER:                  -9.639
REMARK INTRA:                  -1.397
REMARK UNBOUND:                -1.659
REMARK  Name = 
REMARK  10 active torsions:
REMARK  status: ('A' for Active; 'I' for Inactive)
REMARK    1  A    between atoms: C_2  and  C_3
REMARK    2  A    between atoms: C_7  and  C_8
REMARK    3  A    between atoms: C_8  and  O_9
REMARK    4  A    between atoms: O_9  and  C_10
REMARK    5  A    between atoms: C_10  and  C_11
REMARK    6  A    between atoms: C_14  and  C_15
REMARK    7  A    between atoms: C_15  and  N_16
REMARK    8  A    between atoms: C_17  and  C_19
REMARK    9  A    between atoms: C_26  and  O_27
REMARK   10  A    between atoms: O_27  and  C_28
REMARK                            x       y       z     vdW  Elec       q    Type
REMARK                         _______ _______ _______ _____ _____    ______ ____
ROOT
ATOM      1  C   UNL     1      46.606   7.926  12.597  0.00  0.00    +0.000 A 
ATOM      2  C   UNL     1      47.002   8.803  13.614  0.00  0.00    +0.000 A 
ATOM      3  C   UNL     1      48.263   8.690  14.210  0.00  0.00    +0.000 A 
ATOM      4  C   UNL     1      49.164   7.706  13.786  0.00  0.00    +0.000 A 
ATOM      5  C   UNL     1      48.757   6.812  12.786  0.00  0.00    +0.000 A 
ATOM      6  C   UNL     1      47.493   6.920  12.197  0.00  0.00    +0.000 A 
ENDROOT
BRANCH   1   7
ATOM      7  C   UNL     1      45.248   8.064  11.955  0.00  0.00    +0.000 C 
BRANCH   7   8
ATOM      8  O   UNL     1      45.084   7.023  10.995  0.00  0.00    +0.000 OA
BRANCH   8   9
ATOM      9  C   UNL     1      44.105   6.072  11.409  0.00  0.00    +0.000 C 
BRANCH   9  14
ATOM     10  C   UNL     1      45.229   3.504   8.826  0.00  0.00    +0.000 A 
ATOM     11  C   UNL     1      44.682   2.326   9.335  0.00  0.00    +0.000 A 
ATOM     12  C   UNL     1      43.941   2.356  10.516  0.00  0.00    +0.000 A 
ATOM     13  C   UNL     1      43.753   3.563  11.193  0.00  0.00    +0.000 A 
ATOM     14  C   UNL     1      44.316   4.752  10.708  0.00  0.00    +0.000 A 
ATOM     15  C   UNL     1      45.044   4.711   9.507  0.00  0.00    +0.000 A 
BRANCH  10  17
ATOM     16  C   UNL     1      46.604   3.454   6.582  0.00  0.00    +0.000 C 
ATOM     17  C   UNL     1      45.975   3.483   7.605  0.00  0.00    +0.000 C 
ENDBRANCH  10  17
ENDBRANCH   9  14
ENDBRANCH   8   9
ENDBRANCH   7   8
ENDBRANCH   1   7
BRANCH   4  18
ATOM     18  C   UNL     1      50.536   7.590  14.403  0.00  0.00    +0.000 C 
BRANCH  18  19
ATOM     19  N   UNL     1      50.455   7.263  15.804  0.00  0.00    +0.000 N 
ATOM     20  C   UNL     1      51.519   6.737  16.490  0.00  0.00    +0.000 C 
ATOM     21  O   UNL     1      52.621   6.581  15.973  0.00  0.00    +0.000 OA
ATOM     22  H   UNL     1      49.531   7.209  16.211  0.00  0.00    +0.000 HD
BRANCH  20  23
ATOM     23  C   UNL     1      51.284   6.431  17.907  0.00  0.00    +0.000 A 
ATOM     24  C   UNL     1      52.079   7.020  18.881  0.00  0.00    +0.000 A 
ATOM     25  S   UNL     1      51.613   6.614  20.469  0.00  0.00    +0.000 S 
ATOM     26  C   UNL     1      50.377   5.596  19.901  0.00  0.00    +0.000 A 
ATOM     27  N   UNL     1      49.602   4.929  20.776  0.00  0.00    +0.000 NA
ATOM     28  C   UNL     1      48.693   4.161  20.172  0.00  0.00    +0.000 A 
ATOM     29  N   UNL     1      48.502   4.002  18.857  0.00  0.00    +0.000 NA
ATOM     30  C   UNL     1      49.309   4.690  18.020  0.00  0.00    +0.000 A 
ATOM     31  C   UNL     1      50.295   5.555  18.515  0.00  0.00    +0.000 A 
BRANCH  30  32
ATOM     32  O   UNL     1      49.151   4.540  16.659  0.00  0.00    +0.000 OA
ATOM     33  C   UNL     1      47.835   4.797  16.188  0.00  0.00    +0.000 C 
ENDBRANCH  30  32
ENDBRANCH  20  23
ENDBRANCH  18  19
ENDBRANCH   4  18
TORSDOF 9
ENDMDL
