MODEL 1
REMARK VINA RESULT:    -6.881      0.000      0.000
REMARK INTER + INTRA:          -9.005
REMARK INTER:                  -8.692
REMARK INTRA:                  -0.314
REMARK UNBOUND:                -0.314
REMARK  Name = 
REMARK  5 active torsions:
REMARK  status: ('A' for Active; 'I' for Inactive)
REMARK    1  A    between atoms: N_1  and  C_2
REMARK    2  A    between atoms: C_2  and  C_3
REMARK    3  A    between atoms: C_7  and  C_8
REMARK    4  A    between atoms: C_8  and  C_9
REMARK    5  A    between atoms: C_9  and  N_10
REMARK                            x       y       z     vdW  Elec       q    Type
REMARK                         _______ _______ _______ _____ _____    ______ ____
ROOT
ATOM      1  C   UNL     1      46.154   4.933  13.024  0.00  0.00    +0.000 A 
ATOM      2  C   UNL     1      46.617   6.188  12.627  0.00  0.00    +0.000 A 
ATOM      3  C   UNL     1      46.276   6.647  11.368  0.00  0.00    +0.000 A 
ATOM      4  N   UNL     1      45.510   5.957  10.494  0.00  0.00    +0.000 NA
ATOM      5  C   UNL     1      45.058   4.737  10.876  0.00  0.00    +0.000 A 
ATOM      6  C   UNL     1      45.377   4.196  12.122  0.00  0.00    +0.000 A 
ENDROOT
BRANCH   1   7
ATOM      7  C   UNL     1      46.496   4.376  14.382  0.00  0.00    +0.000 C 
BRANCH   7   8
ATOM      8  N   UNL     1      47.393   3.231  14.280  0.00  0.00    +0.000 NA
ATOM      9  H   UNL     1      46.844   2.374  14.305  0.00  0.00    +0.000 HD
ATOM     10  H   UNL     1      47.993   3.210  15.104  0.00  0.00    +0.000 HD
ENDBRANCH   7   8
ENDBRANCH   1   7
BRANCH   5  11
ATOM     11  C   UNL     1      44.250   3.980   9.845  0.00  0.00    +0.000 C 
BRANCH  11  12
ATOM     12  C   UNL     1      44.677   2.520   9.648  0.00  0.00    +0.000 C 
BRANCH  12  13
ATOM     13  N   UNL     1      45.486   2.305   8.456  0.00  0.00    +0.000 N 
ATOM     14  C   UNL     1      45.834   3.452   7.681  0.00  0.00    +0.000 C 
ATOM     15  C   UNL     1      46.639   3.290   6.502  0.00  0.00    +0.000 C 
ATOM     16  C   UNL     1      47.244   2.125   6.265  0.00  0.00    +0.000 C 
ATOM     17  C   UNL     1      47.051   1.111   7.319  0.00  0.00    +0.000 C 
ATOM     18  N   UNL     1      46.253   1.196   8.337  0.00  0.00    +0.000 NA
ENDBRANCH  12  13
ENDBRANCH  11  12
ENDBRANCH   5  11
TORSDOF 5
ENDMDL
MODEL 2
REMARK VINA RESULT:    -6.754      0.886      1.320
REMARK INTER + INTRA:          -8.844
REMARK INTER:                  -8.472
REMARK INTRA:                  -0.372
REMARK UNBOUND:                -0.314
REMARK  Name = 
REMARK  5 active torsions:
REMARK  status: ('A' for Active; 'I' for Inactive)
REMARK    1  A    between atoms: N_1  and  C_2
REMARK    2  A    between atoms: C_2  and  C_3
REMARK    3  A    between atoms: C_7  and  C_8
REMARK    4  A    between atoms: C_8  and  C_9
REMARK    5  A    between atoms: C_9  and  N_10
REMARK                            x       y       z     vdW  Elec       q    Type
REMARK                         _______ _______ _______ _____ _____    ______ ____
ROOT
ATOM      1  C   UNL     1      46.320   4.867  13.316  0.00  0.00    +0.000 A 
ATOM      2  C   UNL     1      46.600   6.132  12.798  0.00  0.00    +0.000 A 
ATOM      3  C   UNL     1      46.145   6.439  11.529  0.00  0.00    +0.000 A 
ATOM      4  N   UNL     1      45.436   5.588  10.755  0.00  0.00    +0.000 NA
ATOM      5  C   UNL     1      45.163   4.357  11.254  0.00  0.00    +0.000 A 
ATOM      6  C   UNL     1      45.606   3.966  12.518  0.00  0.00    +0.000 A 
ENDROOT
BRANCH   1   7
ATOM      7  C   UNL     1      46.793   4.472  14.691  0.00  0.00    +0.000 C 
BRANCH   7   8
ATOM      8  N   UNL     1      47.520   3.208  14.665  0.00  0.00    +0.000 NA
ATOM      9  H   UNL     1      46.974   2.520  14.151  0.00  0.00    +0.000 HD
ATOM     10  H   UNL     1      47.601   2.856  15.618  0.00  0.00    +0.000 HD
ENDBRANCH   7   8
ENDBRANCH   1   7
BRANCH   5  11
ATOM     11  C   UNL     1      44.413   3.421  10.330  0.00  0.00    +0.000 C 
BRANCH  11  12
ATOM     12  C   UNL     1      44.470   3.811   8.848  0.00  0.00    +0.000 C 
BRANCH  12  13
ATOM     13  N   UNL     1      45.561   3.176   8.120  0.00  0.00    +0.000 N 
ATOM     14  C   UNL     1      45.827   1.802   8.400  0.00  0.00    +0.000 C 
ATOM     15  C   UNL     1      46.886   1.131   7.699  0.00  0.00    +0.000 C 
ATOM     16  C   UNL     1      47.456   1.712   6.642  0.00  0.00    +0.000 C 
ATOM     17  C   UNL     1      46.867   3.011   6.267  0.00  0.00    +0.000 C 
ATOM     18  N   UNL     1      45.984   3.682   6.938  0.00  0.00    +0.000 NA
ENDBRANCH  12  13
ENDBRANCH  11  12
ENDBRANCH   5  11
TORSDOF 5
ENDMDL
MODEL 3
REMARK VINA RESULT:    -6.685      1.506      5.985
REMARK INTER + INTRA:          -8.757
REMARK INTER:                  -8.384
REMARK INTRA:                  -0.373
REMARK UNBOUND:                -0.314
REMARK  Name = 
REMARK  5 active torsions:
REMARK  status: ('A' for Active; 'I' for Inactive)
REMARK    1  A    between atoms: N_1  and  C_2
REMARK    2  A    between atoms: C_2  and  C_3
REMARK    3  A    between atoms: C_7  and  C_8
REMARK    4  A    between atoms: C_8  and  C_9
REMARK    5  A    between atoms: C_9  and  N_10
REMARK                            x       y       z     vdW  Elec       q    Type
REMARK                         _______ _______ _______ _____ _____    ______ ____
ROOT
ATOM      1  C   UNL     1      46.657   2.528   6.768  0.00  0.00    +0.000 A 
ATOM      2  C   UNL     1      46.656   1.252   7.332  0.00  0.00    +0.000 A 
ATOM      3  C   UNL     1      45.890   1.032   8.461  0.00  0.00    +0.000 A 
ATOM      4  N   UNL     1      45.130   1.979   9.055  0.00  0.00    +0.000 NA
ATOM      5  C   UNL     1      45.129   3.221   8.510  0.00  0.00    +0.000 A 
ATOM      6  C   UNL     1      45.892   3.526   7.383  0.00  0.00    +0.000 A 
ENDROOT
BRANCH   1   7
ATOM      7  C   UNL     1      47.476   2.831   5.540  0.00  0.00    +0.000 C 
BRANCH   7   8
ATOM      8  N   UNL     1      48.509   1.825   5.324  0.00  0.00    +0.000 NA
ATOM      9  H   UNL     1      48.068   0.917   5.198  0.00  0.00    +0.000 HD
ATOM     10  H   UNL     1      49.079   1.752   6.166  0.00  0.00    +0.000 HD
ENDBRANCH   7   8
ENDBRANCH   1   7
BRANCH   5  11
ATOM     11  C   UNL     1      44.305   4.260   9.240  0.00  0.00    +0.000 C 
BRANCH  11  12
ATOM     12  C   UNL     1      44.059   3.951  10.721  0.00  0.00    +0.000 C 
BRANCH  12  13
ATOM     13  N   UNL     1      45.115   4.435  11.601  0.00  0.00    +0.000 N 
ATOM     14  C   UNL     1      45.706   5.696  11.288  0.00  0.00    +0.000 C 
ATOM     15  C   UNL     1      46.744   6.218  12.133  0.00  0.00    +0.000 C 
ATOM     16  C   UNL     1      46.989   5.649  13.314  0.00  0.00    +0.000 C 
ATOM     17  C   UNL     1      46.086   4.533  13.654  0.00  0.00    +0.000 C 
ATOM     18  N   UNL     1      45.212   3.980  12.872  0.00  0.00    +0.000 NA
ENDBRANCH  12  13
ENDBRANCH  11  12
ENDBRANCH   5  11
TORSDOF 5
ENDMDL
MODEL 4
REMARK VINA RESULT:    -6.647      1.580      5.553
REMARK INTER + INTRA:          -8.709
REMARK INTER:                  -8.477
REMARK INTRA:                  -0.233
REMARK UNBOUND:                -0.314
REMARK  Name = 
REMARK  5 active torsions:
REMARK  status: ('A' for Active; 'I' for Inactive)
REMARK    1  A    between atoms: N_1  and  C_2
REMARK    2  A    between atoms: C_2  and  C_3
REMARK    3  A    between atoms: C_7  and  C_8
REMARK    4  A    between atoms: C_8  and  C_9
REMARK    5  A    between atoms: C_9  and  N_10
REMARK                            x       y       z     vdW  Elec       q    Type
REMARK                         _______ _______ _______ _____ _____    ______ ____
ROOT
ATOM      1  C   UNL     1      46.499   2.216   7.695  0.00  0.00    +0.000 A 
ATOM      2  C   UNL     1      46.600   3.555   7.313  0.00  0.00    +0.000 A 
ATOM      3  C   UNL     1      45.867   4.496   8.011  0.00  0.00    +0.000 A 
ATOM      4  N   UNL     1      45.058   4.202   9.053  0.00  0.00    +0.000 NA
ATOM      5  C   UNL     1      44.955   2.902   9.427  0.00  0.00    +0.000 A 
ATOM      6  C   UNL     1      45.647   1.892   8.758  0.00  0.00    +0.000 A 
ENDROOT
BRANCH   1   7
ATOM      7  C   UNL     1      47.269   1.144   6.970  0.00  0.00    +0.000 C 
BRANCH   7   8
ATOM      8  N   UNL     1      48.397   1.701   6.232  0.00  0.00    +0.000 NA
ATOM      9  H   UNL     1      48.966   2.260   6.864  0.00  0.00    +0.000 HD
ATOM     10  H   UNL     1      48.042   2.343   5.524  0.00  0.00    +0.000 HD
ENDBRANCH   7   8
ENDBRANCH   1   7
BRANCH   5  11
ATOM     11  C   UNL     1      43.997   2.616  10.563  0.00  0.00    +0.000 C 
BRANCH  11  12
ATOM     12  C   UNL     1      43.790   3.787  11.531  0.00  0.00    +0.000 C 
BRANCH  12  13
ATOM     13  N   UNL     1      45.011   4.204  12.208  0.00  0.00    +0.000 N 
ATOM     14  C   UNL     1      45.160   5.594  12.497  0.00  0.00    +0.000 C 
ATOM     15  C   UNL     1      46.342   6.052  13.174  0.00  0.00    +0.000 C 
ATOM     16  C   UNL     1      47.175   5.168  13.727  0.00  0.00    +0.000 C 
ATOM     17  C   UNL     1      46.735   3.765  13.623  0.00  0.00    +0.000 C 
ATOM     18  N   UNL     1      45.730   3.318  12.936  0.00  0.00    +0.000 NA
ENDBRANCH  12  13
ENDBRANCH  11  12
ENDBRANCH   5  11
TORSDOF 5
ENDMDL
MODEL 5
REMARK VINA RESULT:    -6.597      1.257      2.324
REMARK INTER + INTRA:          -8.646
REMARK INTER:                  -8.283
REMARK INTRA:                  -0.362
REMARK UNBOUND:                -0.314
REMARK  Name = 
REMARK  5 active torsions:
REMARK  status: ('A' for Active; 'I' for Inactive)
REMARK    1  A    between atoms: N_1  and  C_2
REMARK    2  A    between atoms: C_2  and  C_3
REMARK    3  A    between atoms: C_7  and  C_8
REMARK    4  A    between atoms: C_8  and  C_9
REMARK    5  A    between atoms: C_9  and  N_10
REMARK                            x       y       z     vdW  Elec       q    Type
REMARK                         _______ _______ _______ _____ _____    ______ ____
ROOT
ATOM      1  C   UNL     1      45.482   6.461  12.295  0.00  0.00    +0.000 A 
ATOM      2  C   UNL     1      45.869   5.569  13.296  0.00  0.00    +0.000 A 
ATOM      3  C   UNL     1      45.705   4.215  13.070  0.00  0.00    +0.000 A 
ATOM      4  N   UNL     1      45.197   3.696  11.930  0.00  0.00    +0.000 NA
ATOM      5  C   UNL     1      44.819   4.560  10.955  0.00  0.00    +0.000 A 
ATOM      6  C   UNL     1      44.934   5.941  11.117  0.00  0.00    +0.000 A 
ENDROOT
BRANCH   1   7
ATOM      7  C   UNL     1      45.632   7.948  12.484  0.00  0.00    +0.000 C 
BRANCH   7   8
ATOM      8  N   UNL     1      44.548   8.682  11.841  0.00  0.00    +0.000 NA
ATOM      9  H   UNL     1      43.878   8.018  11.458  0.00  0.00    +0.000 HD
ATOM     10  H   UNL     1      44.926   9.197  11.046  0.00  0.00    +0.000 HD
ENDBRANCH   7   8
ENDBRANCH   1   7
BRANCH   5  11
ATOM     11  C   UNL     1      44.207   3.934   9.720  0.00  0.00    +0.000 C 
BRANCH  11  12
ATOM     12  C   UNL     1      44.584   2.465   9.499  0.00  0.00    +0.000 C 
BRANCH  12  13
ATOM     13  N   UNL     1      45.459   2.253   8.353  0.00  0.00    +0.000 N 
ATOM     14  C   UNL     1      45.800   3.394   7.566  0.00  0.00    +0.000 C 
ATOM     15  C   UNL     1      46.668   3.235   6.432  0.00  0.00    +0.000 C 
ATOM     16  C   UNL     1      47.329   2.090   6.256  0.00  0.00    +0.000 C 
ATOM     17  C   UNL     1      47.124   1.095   7.326  0.00  0.00    +0.000 C 
ATOM     18  N   UNL     1      46.273   1.173   8.301  0.00  0.00    +0.000 NA
ENDBRANCH  12  13
ENDBRANCH  11  12
ENDBRANCH   5  11
TORSDOF 5
ENDMDL
MODEL 6
REMARK VINA RESULT:    -5.833      1.709      5.669
REMARK INTER + INTRA:          -7.681
REMARK INTER:                  -7.341
REMARK INTRA:                  -0.340
REMARK UNBOUND:                -0.314
REMARK  Name = 
REMARK  5 active torsions:
REMARK  status: ('A' for Active; 'I' for Inactive)
REMARK    1  A    between atoms: N_1  and  C_2
REMARK    2  A    between atoms: C_2  and  C_3
REMARK    3  A    between atoms: C_7  and  C_8
REMARK    4  A    between atoms: C_8  and  C_9
REMARK    5  A    between atoms: C_9  and  N_10
REMARK                            x       y       z     vdW  Elec       q    Type
REMARK                         _______ _______ _______ _____ _____    ______ ____
ROOT
ATOM      1  C   UNL     1      45.772   3.614   8.260  0.00  0.00    +0.000 A 
ATOM      2  C   UNL     1      45.587   2.251   8.498  0.00  0.00    +0.000 A 
ATOM      3  C   UNL     1      44.666   1.869   9.456  0.00  0.00    +0.000 A 
ATOM      4  N   UNL     1      43.921   2.737  10.176  0.00  0.00    +0.000 NA
ATOM      5  C   UNL     1      44.098   4.063   9.948  0.00  0.00    +0.000 A 
ATOM      6  C   UNL     1      45.024   4.527   9.013  0.00  0.00    +0.000 A 
ENDROOT
BRANCH   1   7
ATOM      7  C   UNL     1      46.764   4.093   7.233  0.00  0.00    +0.000 C 
BRANCH   7   8
ATOM      8  N   UNL     1      47.590   2.998   6.736  0.00  0.00    +0.000 NA
ATOM      9  H   UNL     1      48.099   2.584   7.514  0.00  0.00    +0.000 HD
ATOM     10  H   UNL     1      48.295   3.379   6.104  0.00  0.00    +0.000 HD
ENDBRANCH   7   8
ENDBRANCH   1   7
BRANCH   5  11
ATOM     11  C   UNL     1      43.281   4.996  10.815  0.00  0.00    +0.000 C 
BRANCH  11  12
ATOM     12  C   UNL     1      44.056   6.204  11.355  0.00  0.00    +0.000 C 
BRANCH  12  13
ATOM     13  N   UNL     1      45.223   5.841  12.147  0.00  0.00    +0.000 N 
ATOM     14  C   UNL     1      46.354   6.711  12.090  0.00  0.00    +0.000 C 
ATOM     15  C   UNL     1      47.524   6.399  12.862  0.00  0.00    +0.000 C 
ATOM     16  C   UNL     1      47.471   5.444  13.793  0.00  0.00    +0.000 C 
ATOM     17  C   UNL     1      46.141   4.832  13.966  0.00  0.00    +0.000 C 
ATOM     18  N   UNL     1      45.099   5.023  13.218  0.00  0.00    +0.000 NA
ENDBRANCH  12  13
ENDBRANCH  11  12
ENDBRANCH   5  11
TORSDOF 5
ENDMDL
MODEL 7
REMARK VINA RESULT:    -5.766      1.798      6.197
REMARK INTER + INTRA:          -7.596
REMARK INTER:                  -7.267
REMARK INTRA:                  -0.329
REMARK UNBOUND:                -0.314
REMARK  Name = 
REMARK  5 active torsions:
REMARK  status: ('A' for Active; 'I' for Inactive)
REMARK    1  A    between atoms: N_1  and  C_2
REMARK    2  A    between atoms: C_2  and  C_3
REMARK    3  A    between atoms: C_7  and  C_8
REMARK    4  A    between atoms: C_8  and  C_9
REMARK    5  A    between atoms: C_9  and  N_10
REMARK                            x       y       z     vdW  Elec       q    Type
REMARK                         _______ _______ _______ _____ _____    ______ ____
ROOT
ATOM      1  C   UNL     1      46.780   2.539   6.669  0.00  0.00    +0.000 A 
ATOM      2  C   UNL     1      47.192   1.214   6.819  0.00  0.00    +0.000 A 
ATOM      3  C   UNL     1      46.630   0.460   7.833  0.00  0.00    +0.000 A 
ATOM      4  N   UNL     1      45.694   0.925   8.690  0.00  0.00    +0.000 NA
ATOM      5  C   UNL     1      45.292   2.213   8.549  0.00  0.00    +0.000 A 
ATOM      6  C   UNL     1      45.827   3.043   7.563  0.00  0.00    +0.000 A 
ENDROOT
BRANCH   1   7
ATOM      7  C   UNL     1      47.358   3.412   5.587  0.00  0.00    +0.000 C 
BRANCH   7   8
ATOM      8  N   UNL     1      48.247   2.659   4.709  0.00  0.00    +0.000 NA
ATOM      9  H   UNL     1      47.994   1.674   4.745  0.00  0.00    +0.000 HD
ATOM     10  H   UNL     1      49.198   2.723   5.072  0.00  0.00    +0.000 HD
ENDBRANCH   7   8
ENDBRANCH   1   7
BRANCH   5  11
ATOM     11  C   UNL     1      44.283   2.704   9.565  0.00  0.00    +0.000 C 
BRANCH  11  12
ATOM     12  C   UNL     1      44.890   3.147  10.901  0.00  0.00    +0.000 C 
BRANCH  12  13
ATOM     13  N   UNL     1      44.634   4.545  11.223  0.00  0.00    +0.000 N 
ATOM     14  C   UNL     1      45.732   5.453  11.134  0.00  0.00    +0.000 C 
ATOM     15  C   UNL     1      45.524   6.843  11.432  0.00  0.00    +0.000 C 
ATOM     16  C   UNL     1      44.284   7.316  11.563  0.00  0.00    +0.000 C 
ATOM     17  C   UNL     1      43.222   6.324  11.318  0.00  0.00    +0.000 C 
ATOM     18  N   UNL     1      43.379   5.048  11.148  0.00  0.00    +0.000 NA
ENDBRANCH  12  13
ENDBRANCH  11  12
ENDBRANCH   5  11
TORSDOF 5
ENDMDL
MODEL 8
REMARK VINA RESULT:    -5.527      2.268      6.104
REMARK INTER + INTRA:          -7.294
REMARK INTER:                  -6.945
REMARK INTRA:                  -0.349
REMARK UNBOUND:                -0.314
REMARK  Name = 
REMARK  5 active torsions:
REMARK  status: ('A' for Active; 'I' for Inactive)
REMARK    1  A    between atoms: N_1  and  C_2
REMARK    2  A    between atoms: C_2  and  C_3
REMARK    3  A    between atoms: C_7  and  C_8
REMARK    4  A    between atoms: C_8  and  C_9
REMARK    5  A    between atoms: C_9  and  N_10
REMARK                            x       y       z     vdW  Elec       q    Type
REMARK                         _______ _______ _______ _____ _____    ______ ____
ROOT
ATOM      1  C   UNL     1      45.232   3.613   8.678  0.00  0.00    +0.000 A 
ATOM      2  C   UNL     1      44.438   2.653   9.306  0.00  0.00    +0.000 A 
ATOM      3  C   UNL     1      44.040   2.879  10.610  0.00  0.00    +0.000 A 
ATOM      4  N   UNL     1      44.367   3.982  11.320  0.00  0.00    +0.000 NA
ATOM      5  C   UNL     1      45.140   4.918  10.713  0.00  0.00    +0.000 A 
ATOM      6  C   UNL     1      45.598   4.752   9.406  0.00  0.00    +0.000 A 
ENDROOT
BRANCH   1   7
ATOM      7  C   UNL     1      45.701   3.422   7.259  0.00  0.00    +0.000 C 
BRANCH   7   8
ATOM      8  N   UNL     1      46.876   4.236   6.969  0.00  0.00    +0.000 NA
ATOM      9  H   UNL     1      46.698   5.194   7.262  0.00  0.00    +0.000 HD
ATOM     10  H   UNL     1      47.014   4.266   5.959  0.00  0.00    +0.000 HD
ENDBRANCH   7   8
ENDBRANCH   1   7
BRANCH   5  11
ATOM     11  C   UNL     1      45.524   6.109  11.564  0.00  0.00    +0.000 C 
BRANCH  11  12
ATOM     12  C   UNL     1      46.335   5.760  12.817  0.00  0.00    +0.000 C 
BRANCH  12  13
ATOM     13  N   UNL     1      47.641   6.406  12.865  0.00  0.00    +0.000 N 
ATOM     14  C   UNL     1      47.951   7.340  11.832  0.00  0.00    +0.000 C 
ATOM     15  C   UNL     1      49.222   8.009  11.843  0.00  0.00    +0.000 C 
ATOM     16  C   UNL     1      50.003   7.935  12.923  0.00  0.00    +0.000 C 
ATOM     17  C   UNL     1      49.417   7.186  14.050  0.00  0.00    +0.000 C 
ATOM     18  N   UNL     1      48.322   6.492  14.032  0.00  0.00    +0.000 NA
ENDBRANCH  12  13
ENDBRANCH  11  12
ENDBRANCH   5  11
TORSDOF 5
ENDMDL
MODEL 9
REMARK VINA RESULT:    -5.448      2.449      6.896
REMARK INTER + INTRA:          -7.194
REMARK INTER:                  -6.924
REMARK INTRA:                  -0.270
REMARK UNBOUND:                -0.314
REMARK  Name = 
REMARK  5 active torsions:
REMARK  status: ('A' for Active; 'I' for Inactive)
REMARK    1  A    between atoms: N_1  and  C_2
REMARK    2  A    between atoms: C_2  and  C_3
REMARK    3  A    between atoms: C_7  and  C_8
REMARK    4  A    between atoms: C_8  and  C_9
REMARK    5  A    between atoms: C_9  and  N_10
REMARK                            x       y       z     vdW  Elec       q    Type
REMARK                         _______ _______ _______ _____ _____    ______ ____
ROOT
ATOM      1  C   UNL     1      44.449   4.053  10.827  0.00  0.00    +0.000 A 
ATOM      2  C   UNL     1      43.196   4.597  11.109  0.00  0.00    +0.000 A 
ATOM      3  C   UNL     1      43.000   5.191  12.342  0.00  0.00    +0.000 A 
ATOM      4  N   UNL     1      43.953   5.286  13.296  0.00  0.00    +0.000 NA
ATOM      5  C   UNL     1      45.172   4.756  13.025  0.00  0.00    +0.000 A 
ATOM      6  C   UNL     1      45.441   4.122  11.812  0.00  0.00    +0.000 A 
ENDROOT
BRANCH   1   7
ATOM      7  C   UNL     1      44.723   3.388   9.503  0.00  0.00    +0.000 C 
BRANCH   7   8
ATOM      8  N   UNL     1      44.172   4.157   8.393  0.00  0.00    +0.000 NA
ATOM      9  H   UNL     1      44.332   3.650   7.525  0.00  0.00    +0.000 HD
ATOM     10  H   UNL     1      44.689   5.033   8.311  0.00  0.00    +0.000 HD
ENDBRANCH   7   8
ENDBRANCH   1   7
BRANCH   5  11
ATOM     11  C   UNL     1      46.190   4.839  14.143  0.00  0.00    +0.000 C 
BRANCH  11  12
ATOM     12  C   UNL     1      47.101   3.612  14.264  0.00  0.00    +0.000 C 
BRANCH  12  13
ATOM     13  N   UNL     1      47.760   3.501  15.559  0.00  0.00    +0.000 N 
ATOM     14  C   UNL     1      47.132   4.135  16.673  0.00  0.00    +0.000 C 
ATOM     15  C   UNL     1      47.739   4.044  17.972  0.00  0.00    +0.000 C 
ATOM     16  C   UNL     1      48.743   3.190  18.177  0.00  0.00    +0.000 C 
ATOM     17  C   UNL     1      49.090   2.361  17.008  0.00  0.00    +0.000 C 
ATOM     18  N   UNL     1      48.629   2.492  15.803  0.00  0.00    +0.000 NA
ENDBRANCH  12  13
ENDBRANCH  11  12
ENDBRANCH   5  11
TORSDOF 5
ENDMDL
