MODEL 1
REMARK VINA RESULT:    -7.809      0.000      0.000
REMARK INTER + INTRA:         -10.612
REMARK INTER:                 -10.319
REMARK INTRA:                  -0.293
REMARK UNBOUND:                -0.293
REMARK  Name = 
REMARK  8 active torsions:
REMARK  status: ('A' for Active; 'I' for Inactive)
REMARK    1  A    between atoms: C_1  and  C_2
REMARK    2  A    between atoms: C_2  and  C_3
REMARK    3  A    between atoms: C_2  and  N_4
REMARK    4  A    between atoms: C_2  and  C_5
REMARK    5  A    between atoms: C_5  and  C_6
REMARK    6  A    between atoms: C_9  and  C_10
REMARK    7  A    between atoms: C_10  and  N_11
REMARK    8  A    between atoms: C_18  and  C_19
REMARK                            x       y       z     vdW  Elec       q    Type
REMARK                         _______ _______ _______ _____ _____    ______ ____
ROOT
ATOM      1  C   UNL     1      44.570   5.392  12.551  0.00  0.00    +0.000 C 
ENDROOT
BRANCH   1   2
ATOM      2  N   UNL     1      45.511   6.454  12.889  0.00  0.00    +0.000 N 
ATOM      3  C   UNL     1      45.289   7.754  12.494  0.00  0.00    +0.000 A 
ATOM      4  N   UNL     1      46.265   8.552  12.841  0.00  0.00    +0.000 NA
ATOM      5  C   UNL     1      47.148   7.750  13.497  0.00  0.00    +0.000 A 
ATOM      6  N   UNL     1      48.305   8.204  14.011  0.00  0.00    +0.000 NA
ATOM      7  C   UNL     1      49.014   7.269  14.636  0.00  0.00    +0.000 A 
ATOM      8  N   UNL     1      48.679   5.984  14.808  0.00  0.00    +0.000 NA
ATOM      9  C   UNL     1      47.502   5.533  14.281  0.00  0.00    +0.000 A 
ATOM     10  C   UNL     1      46.703   6.431  13.584  0.00  0.00    +0.000 A 
BRANCH   9  11
ATOM     11  C   UNL     1      47.200   4.101  14.566  0.00  0.00    +0.000 C 
ATOM     12  N   UNL     1      46.947   3.800  15.880  0.00  0.00    +0.000 N 
ATOM     13  O   UNL     1      47.145   3.222  13.721  0.00  0.00    +0.000 OA
ATOM     14  H   UNL     1      46.874   4.543  16.564  0.00  0.00    +0.000 HD
ATOM     15  H   UNL     1      46.683   2.856  16.122  0.00  0.00    +0.000 HD
ENDBRANCH   9  11
ENDBRANCH   1   2
BRANCH   1  19
ATOM     16  C   UNL     1      45.299   3.660   8.644  0.00  0.00    +0.000 A 
ATOM     17  C   UNL     1      45.671   4.980   8.918  0.00  0.00    +0.000 A 
ATOM     18  C   UNL     1      45.480   5.524  10.189  0.00  0.00    +0.000 A 
ATOM     19  C   UNL     1      44.903   4.768  11.215  0.00  0.00    +0.000 A 
ATOM     20  C   UNL     1      44.582   3.428  10.953  0.00  0.00    +0.000 A 
ATOM     21  C   UNL     1      44.779   2.880   9.683  0.00  0.00    +0.000 A 
BRANCH  16  22
ATOM     22  C   UNL     1      45.380   3.117   7.236  0.00  0.00    +0.000 C 
BRANCH  22  24
ATOM     23  C   UNL     1      46.794   2.561   5.183  0.00  0.00    +0.000 C 
ATOM     24  C   UNL     1      46.769   2.674   6.710  0.00  0.00    +0.000 C 
ATOM     25  C   UNL     1      47.232   1.349   7.335  0.00  0.00    +0.000 C 
BRANCH  24  26
ATOM     26  N   UNL     1      47.740   3.728   7.081  0.00  0.00    +0.000 NA
ATOM     27  H   UNL     1      47.256   4.612   7.236  0.00  0.00    +0.000 HD
ATOM     28  H   UNL     1      48.393   3.891   6.316  0.00  0.00    +0.000 HD
ENDBRANCH  24  26
ENDBRANCH  22  24
ENDBRANCH  16  22
ENDBRANCH   1  19
TORSDOF 6
ENDMDL
MODEL 2
REMARK VINA RESULT:    -7.622      1.473      2.852
REMARK INTER + INTRA:         -10.366
REMARK INTER:                 -10.132
REMARK INTRA:                  -0.234
REMARK UNBOUND:                -0.293
REMARK  Name = 
REMARK  8 active torsions:
REMARK  status: ('A' for Active; 'I' for Inactive)
REMARK    1  A    between atoms: C_1  and  C_2
REMARK    2  A    between atoms: C_2  and  C_3
REMARK    3  A    between atoms: C_2  and  N_4
REMARK    4  A    between atoms: C_2  and  C_5
REMARK    5  A    between atoms: C_5  and  C_6
REMARK    6  A    between atoms: C_9  and  C_10
REMARK    7  A    between atoms: C_10  and  N_11
REMARK    8  A    between atoms: C_18  and  C_19
REMARK                            x       y       z     vdW  Elec       q    Type
REMARK                         _______ _______ _______ _____ _____    ______ ____
ROOT
ATOM      1  C   UNL     1      44.433   4.727  12.180  0.00  0.00    +0.000 C 
ENDROOT
BRANCH   1   2
ATOM      2  N   UNL     1      45.716   4.871  12.857  0.00  0.00    +0.000 N 
ATOM      3  C   UNL     1      46.427   3.769  13.275  0.00  0.00    +0.000 A 
ATOM      4  N   UNL     1      47.523   4.097  13.909  0.00  0.00    +0.000 NA
ATOM      5  C   UNL     1      47.536   5.458  13.892  0.00  0.00    +0.000 A 
ATOM      6  N   UNL     1      48.515   6.187  14.459  0.00  0.00    +0.000 NA
ATOM      7  C   UNL     1      48.356   7.498  14.311  0.00  0.00    +0.000 A 
ATOM      8  N   UNL     1      47.367   8.123  13.659  0.00  0.00    +0.000 NA
ATOM      9  C   UNL     1      46.378   7.373  13.088  0.00  0.00    +0.000 A 
ATOM     10  C   UNL     1      46.440   5.991  13.213  0.00  0.00    +0.000 A 
BRANCH   9  11
ATOM     11  C   UNL     1      45.349   8.159  12.347  0.00  0.00    +0.000 C 
ATOM     12  N   UNL     1      44.935   9.314  12.958  0.00  0.00    +0.000 N 
ATOM     13  O   UNL     1      44.894   7.852  11.258  0.00  0.00    +0.000 OA
ATOM     14  H   UNL     1      45.395   9.634  13.802  0.00  0.00    +0.000 HD
ATOM     15  H   UNL     1      44.280   9.913  12.476  0.00  0.00    +0.000 HD
ENDBRANCH   9  11
ENDBRANCH   1   2
BRANCH   1  19
ATOM     16  C   UNL     1      45.173   3.410   8.117  0.00  0.00    +0.000 A 
ATOM     17  C   UNL     1      44.450   2.607   9.004  0.00  0.00    +0.000 A 
ATOM     18  C   UNL     1      44.170   3.050  10.298  0.00  0.00    +0.000 A 
ATOM     19  C   UNL     1      44.615   4.300  10.742  0.00  0.00    +0.000 A 
ATOM     20  C   UNL     1      45.292   5.126   9.832  0.00  0.00    +0.000 A 
ATOM     21  C   UNL     1      45.566   4.686   8.534  0.00  0.00    +0.000 A 
BRANCH  16  22
ATOM     22  C   UNL     1      45.592   2.875   6.766  0.00  0.00    +0.000 C 
BRANCH  22  24
ATOM     23  C   UNL     1      47.442   2.359   5.083  0.00  0.00    +0.000 C 
ATOM     24  C   UNL     1      47.084   2.508   6.564  0.00  0.00    +0.000 C 
ATOM     25  C   UNL     1      47.477   1.231   7.323  0.00  0.00    +0.000 C 
BRANCH  24  26
ATOM     26  N   UNL     1      47.892   3.630   7.093  0.00  0.00    +0.000 NA
ATOM     27  H   UNL     1      47.434   4.039   7.906  0.00  0.00    +0.000 HD
ATOM     28  H   UNL     1      47.958   4.375   6.400  0.00  0.00    +0.000 HD
ENDBRANCH  24  26
ENDBRANCH  22  24
ENDBRANCH  16  22
ENDBRANCH   1  19
TORSDOF 6
ENDMDL
MODEL 3
REMARK VINA RESULT:    -6.394      2.341      7.207
REMARK INTER + INTRA:          -8.742
REMARK INTER:                  -7.981
REMARK INTRA:                  -0.762
REMARK UNBOUND:                -0.293
REMARK  Name = 
REMARK  8 active torsions:
REMARK  status: ('A' for Active; 'I' for Inactive)
REMARK    1  A    between atoms: C_1  and  C_2
REMARK    2  A    between atoms: C_2  and  C_3
REMARK    3  A    between atoms: C_2  and  N_4
REMARK    4  A    between atoms: C_2  and  C_5
REMARK    5  A    between atoms: C_5  and  C_6
REMARK    6  A    between atoms: C_9  and  C_10
REMARK    7  A    between atoms: C_10  and  N_11
REMARK    8  A    between atoms: C_18  and  C_19
REMARK                            x       y       z     vdW  Elec       q    Type
REMARK                         _______ _______ _______ _____ _____    ______ ____
ROOT
ATOM      1  C   UNL     1      45.379   6.557  10.920  0.00  0.00    +0.000 C 
ENDROOT
BRANCH   1   2
ATOM      2  N   UNL     1      45.509   5.453   9.976  0.00  0.00    +0.000 N 
ATOM      3  C   UNL     1      46.296   5.567   8.852  0.00  0.00    +0.000 A 
ATOM      4  N   UNL     1      46.245   4.499   8.100  0.00  0.00    +0.000 NA
ATOM      5  C   UNL     1      45.408   3.653   8.760  0.00  0.00    +0.000 A 
ATOM      6  N   UNL     1      45.089   2.431   8.296  0.00  0.00    +0.000 NA
ATOM      7  C   UNL     1      44.278   1.751   9.101  0.00  0.00    +0.000 A 
ATOM      8  N   UNL     1      43.795   2.150  10.284  0.00  0.00    +0.000 NA
ATOM      9  C   UNL     1      44.125   3.393  10.745  0.00  0.00    +0.000 A 
ATOM     10  C   UNL     1      44.947   4.193   9.961  0.00  0.00    +0.000 A 
BRANCH   9  11
ATOM     11  C   UNL     1      43.575   3.724  12.092  0.00  0.00    +0.000 C 
ATOM     12  N   UNL     1      42.592   4.680  12.110  0.00  0.00    +0.000 N 
ATOM     13  O   UNL     1      43.924   3.192  13.133  0.00  0.00    +0.000 OA
ATOM     14  H   UNL     1      42.216   5.036  11.240  0.00  0.00    +0.000 HD
ATOM     15  H   UNL     1      42.146   4.904  12.989  0.00  0.00    +0.000 HD
ENDBRANCH   9  11
ENDBRANCH   1   2
BRANCH   1  19
ATOM     16  C   UNL     1      48.533   6.765  13.887  0.00  0.00    +0.000 A 
ATOM     17  C   UNL     1      47.523   5.804  13.989  0.00  0.00    +0.000 A 
ATOM     18  C   UNL     1      46.533   5.705  13.010  0.00  0.00    +0.000 A 
ATOM     19  C   UNL     1      46.521   6.570  11.910  0.00  0.00    +0.000 A 
ATOM     20  C   UNL     1      47.567   7.495  11.781  0.00  0.00    +0.000 A 
ATOM     21  C   UNL     1      48.563   7.591  12.758  0.00  0.00    +0.000 A 
BRANCH  16  22
ATOM     22  C   UNL     1      49.523   6.960  15.012  0.00  0.00    +0.000 C 
BRANCH  22  24
ATOM     23  C   UNL     1      48.194   9.020  15.733  0.00  0.00    +0.000 C 
ATOM     24  C   UNL     1      49.106   7.877  16.190  0.00  0.00    +0.000 C 
ATOM     25  C   UNL     1      50.320   8.452  16.938  0.00  0.00    +0.000 C 
BRANCH  24  26
ATOM     26  N   UNL     1      48.324   7.053  17.139  0.00  0.00    +0.000 NA
ATOM     27  H   UNL     1      47.404   7.467  17.287  0.00  0.00    +0.000 HD
ATOM     28  H   UNL     1      48.778   7.037  18.051  0.00  0.00    +0.000 HD
ENDBRANCH  24  26
ENDBRANCH  22  24
ENDBRANCH  16  22
ENDBRANCH   1  19
TORSDOF 6
ENDMDL
MODEL 4
REMARK VINA RESULT:    -6.185      2.594      7.047
REMARK INTER + INTRA:          -8.467
REMARK INTER:                  -7.969
REMARK INTRA:                  -0.497
REMARK UNBOUND:                -0.293
REMARK  Name = 
REMARK  8 active torsions:
REMARK  status: ('A' for Active; 'I' for Inactive)
REMARK    1  A    between atoms: C_1  and  C_2
REMARK    2  A    between atoms: C_2  and  C_3
REMARK    3  A    between atoms: C_2  and  N_4
REMARK    4  A    between atoms: C_2  and  C_5
REMARK    5  A    between atoms: C_5  and  C_6
REMARK    6  A    between atoms: C_9  and  C_10
REMARK    7  A    between atoms: C_10  and  N_11
REMARK    8  A    between atoms: C_18  and  C_19
REMARK                            x       y       z     vdW  Elec       q    Type
REMARK                         _______ _______ _______ _____ _____    ______ ____
ROOT
ATOM      1  C   UNL     1      44.863   7.040  11.097  0.00  0.00    +0.000 C 
ENDROOT
BRANCH   1   2
ATOM      2  N   UNL     1      44.183   5.819  11.512  0.00  0.00    +0.000 N 
ATOM      3  C   UNL     1      43.378   5.796  12.628  0.00  0.00    +0.000 A 
ATOM      4  N   UNL     1      42.900   4.603  12.872  0.00  0.00    +0.000 NA
ATOM      5  C   UNL     1      43.398   3.823  11.874  0.00  0.00    +0.000 A 
ATOM      6  N   UNL     1      43.136   2.507  11.776  0.00  0.00    +0.000 NA
ATOM      7  C   UNL     1      43.694   1.931  10.716  0.00  0.00    +0.000 A 
ATOM      8  N   UNL     1      44.438   2.524   9.774  0.00  0.00    +0.000 NA
ATOM      9  C   UNL     1      44.699   3.861   9.884  0.00  0.00    +0.000 A 
ATOM     10  C   UNL     1      44.181   4.547  10.975  0.00  0.00    +0.000 A 
BRANCH   9  11
ATOM     11  C   UNL     1      45.496   4.434   8.762  0.00  0.00    +0.000 C 
ATOM     12  N   UNL     1      45.570   3.660   7.632  0.00  0.00    +0.000 N 
ATOM     13  O   UNL     1      46.043   5.525   8.786  0.00  0.00    +0.000 OA
ATOM     14  H   UNL     1      45.020   2.813   7.563  0.00  0.00    +0.000 HD
ATOM     15  H   UNL     1      46.051   4.024   6.822  0.00  0.00    +0.000 HD
ENDBRANCH   9  11
ENDBRANCH   1   2
BRANCH   1  19
ATOM     16  C   UNL     1      48.313   7.611  13.659  0.00  0.00    +0.000 A 
ATOM     17  C   UNL     1      48.341   6.668  12.627  0.00  0.00    +0.000 A 
ATOM     18  C   UNL     1      47.249   6.516  11.772  0.00  0.00    +0.000 A 
ATOM     19  C   UNL     1      46.097   7.293  11.932  0.00  0.00    +0.000 A 
ATOM     20  C   UNL     1      46.093   8.277  12.933  0.00  0.00    +0.000 A 
ATOM     21  C   UNL     1      47.189   8.435  13.785  0.00  0.00    +0.000 A 
BRANCH  16  22
ATOM     22  C   UNL     1      49.438   7.680  14.665  0.00  0.00    +0.000 C 
BRANCH  22  24
ATOM     23  C   UNL     1      48.257   5.750  15.850  0.00  0.00    +0.000 C 
ATOM     24  C   UNL     1      49.279   6.883  15.985  0.00  0.00    +0.000 C 
ATOM     25  C   UNL     1      48.897   7.786  17.168  0.00  0.00    +0.000 C 
BRANCH  24  26
ATOM     26  N   UNL     1      50.585   6.254  16.283  0.00  0.00    +0.000 NA
ATOM     27  H   UNL     1      51.344   6.838  15.934  0.00  0.00    +0.000 HD
ATOM     28  H   UNL     1      50.667   5.362  15.795  0.00  0.00    +0.000 HD
ENDBRANCH  24  26
ENDBRANCH  22  24
ENDBRANCH  16  22
ENDBRANCH   1  19
TORSDOF 6
ENDMDL
MODEL 5
REMARK VINA RESULT:    -6.088      3.211      5.283
REMARK INTER + INTRA:          -8.338
REMARK INTER:                  -7.547
REMARK INTRA:                  -0.791
REMARK UNBOUND:                -0.293
REMARK  Name = 
REMARK  8 active torsions:
REMARK  status: ('A' for Active; 'I' for Inactive)
REMARK    1  A    between atoms: C_1  and  C_2
REMARK    2  A    between atoms: C_2  and  C_3
REMARK    3  A    between atoms: C_2  and  N_4
REMARK    4  A    between atoms: C_2  and  C_5
REMARK    5  A    between atoms: C_5  and  C_6
REMARK    6  A    between atoms: C_9  and  C_10
REMARK    7  A    between atoms: C_10  and  N_11
REMARK    8  A    between atoms: C_18  and  C_19
REMARK                            x       y       z     vdW  Elec       q    Type
REMARK                         _______ _______ _______ _____ _____    ______ ____
ROOT
ATOM      1  C   UNL     1      49.556   7.165  14.914  0.00  0.00    +0.000 C 
ENDROOT
BRANCH   1   2
ATOM      2  N   UNL     1      49.126   7.460  16.276  0.00  0.00    +0.000 N 
ATOM      3  C   UNL     1      49.348   8.697  16.839  0.00  0.00    +0.000 A 
ATOM      4  N   UNL     1      48.944   8.757  18.081  0.00  0.00    +0.000 NA
ATOM      5  C   UNL     1      48.428   7.522  18.334  0.00  0.00    +0.000 A 
ATOM      6  N   UNL     1      47.909   7.178  19.527  0.00  0.00    +0.000 NA
ATOM      7  C   UNL     1      47.435   5.937  19.563  0.00  0.00    +0.000 A 
ATOM      8  N   UNL     1      47.410   5.053  18.556  0.00  0.00    +0.000 NA
ATOM      9  C   UNL     1      47.941   5.414  17.350  0.00  0.00    +0.000 A 
ATOM     10  C   UNL     1      48.488   6.684  17.222  0.00  0.00    +0.000 A 
BRANCH   9  11
ATOM     11  C   UNL     1      47.824   4.377  16.284  0.00  0.00    +0.000 C 
ATOM     12  N   UNL     1      46.732   4.494  15.464  0.00  0.00    +0.000 N 
ATOM     13  O   UNL     1      48.631   3.481  16.096  0.00  0.00    +0.000 OA
ATOM     14  H   UNL     1      46.126   5.302  15.539  0.00  0.00    +0.000 HD
ATOM     15  H   UNL     1      46.631   3.851  14.691  0.00  0.00    +0.000 HD
ENDBRANCH   9  11
ENDBRANCH   1   2
BRANCH   1  19
ATOM     16  C   UNL     1      46.151   7.418  12.242  0.00  0.00    +0.000 A 
ATOM     17  C   UNL     1      46.329   8.360  13.260  0.00  0.00    +0.000 A 
ATOM     18  C   UNL     1      47.448   8.308  14.091  0.00  0.00    +0.000 A 
ATOM     19  C   UNL     1      48.413   7.307  13.935  0.00  0.00    +0.000 A 
ATOM     20  C   UNL     1      48.261   6.397  12.878  0.00  0.00    +0.000 A 
ATOM     21  C   UNL     1      47.143   6.452  12.041  0.00  0.00    +0.000 A 
BRANCH  16  22
ATOM     22  C   UNL     1      44.874   7.393  11.434  0.00  0.00    +0.000 C 
BRANCH  22  24
ATOM     23  C   UNL     1      43.956   5.538  12.930  0.00  0.00    +0.000 C 
ATOM     24  C   UNL     1      43.990   6.123  11.515  0.00  0.00    +0.000 C 
ATOM     25  C   UNL     1      44.434   5.040  10.518  0.00  0.00    +0.000 C 
BRANCH  24  26
ATOM     26  N   UNL     1      42.606   6.524  11.179  0.00  0.00    +0.000 NA
ATOM     27  H   UNL     1      41.955   6.148  11.868  0.00  0.00    +0.000 HD
ATOM     28  H   UNL     1      42.331   6.126  10.282  0.00  0.00    +0.000 HD
ENDBRANCH  24  26
ENDBRANCH  22  24
ENDBRANCH  16  22
ENDBRANCH   1  19
TORSDOF 6
ENDMDL
MODEL 6
REMARK VINA RESULT:    -6.008      2.654      4.478
REMARK INTER + INTRA:          -8.233
REMARK INTER:                  -7.502
REMARK INTRA:                  -0.731
REMARK UNBOUND:                -0.293
REMARK  Name = 
REMARK  8 active torsions:
REMARK  status: ('A' for Active; 'I' for Inactive)
REMARK    1  A    between atoms: C_1  and  C_2
REMARK    2  A    between atoms: C_2  and  C_3
REMARK    3  A    between atoms: C_2  and  N_4
REMARK    4  A    between atoms: C_2  and  C_5
REMARK    5  A    between atoms: C_5  and  C_6
REMARK    6  A    between atoms: C_9  and  C_10
REMARK    7  A    between atoms: C_10  and  N_11
REMARK    8  A    between atoms: C_18  and  C_19
REMARK                            x       y       z     vdW  Elec       q    Type
REMARK                         _______ _______ _______ _____ _____    ______ ____
ROOT
ATOM      1  C   UNL     1      48.957   6.650  14.635  0.00  0.00    +0.000 C 
ENDROOT
BRANCH   1   2
ATOM      2  N   UNL     1      48.693   7.268  15.929  0.00  0.00    +0.000 N 
ATOM      3  C   UNL     1      48.658   8.637  16.070  0.00  0.00    +0.000 A 
ATOM      4  N   UNL     1      48.462   9.004  17.310  0.00  0.00    +0.000 NA
ATOM      5  C   UNL     1      48.351   7.835  18.000  0.00  0.00    +0.000 A 
ATOM      6  N   UNL     1      48.147   7.789  19.329  0.00  0.00    +0.000 NA
ATOM      7  C   UNL     1      48.041   6.554  19.809  0.00  0.00    +0.000 A 
ATOM      8  N   UNL     1      48.093   5.411  19.112  0.00  0.00    +0.000 NA
ATOM      9  C   UNL     1      48.302   5.470  17.763  0.00  0.00    +0.000 A 
ATOM     10  C   UNL     1      48.454   6.718  17.172  0.00  0.00    +0.000 A 
BRANCH   9  11
ATOM     11  C   UNL     1      48.298   4.148  17.074  0.00  0.00    +0.000 C 
ATOM     12  N   UNL     1      47.089   3.501  17.041  0.00  0.00    +0.000 N 
ATOM     13  O   UNL     1      49.271   3.642  16.538  0.00  0.00    +0.000 OA
ATOM     14  H   UNL     1      46.256   3.969  17.377  0.00  0.00    +0.000 HD
ATOM     15  H   UNL     1      47.017   2.627  16.539  0.00  0.00    +0.000 HD
ENDBRANCH   9  11
ENDBRANCH   1   2
BRANCH   1  19
ATOM     16  C   UNL     1      45.404   5.609  12.380  0.00  0.00    +0.000 A 
ATOM     17  C   UNL     1      46.055   4.651  13.164  0.00  0.00    +0.000 A 
ATOM     18  C   UNL     1      47.172   4.996  13.927  0.00  0.00    +0.000 A 
ATOM     19  C   UNL     1      47.673   6.303  13.919  0.00  0.00    +0.000 A 
ATOM     20  C   UNL     1      46.984   7.273  13.176  0.00  0.00    +0.000 A 
ATOM     21  C   UNL     1      45.862   6.930  12.416  0.00  0.00    +0.000 A 
BRANCH  16  22
ATOM     22  C   UNL     1      44.282   5.205  11.451  0.00  0.00    +0.000 C 
BRANCH  22  24
ATOM     23  C   UNL     1      44.967   3.078  10.213  0.00  0.00    +0.000 C 
ATOM     24  C   UNL     1      44.664   4.574  10.088  0.00  0.00    +0.000 C 
ATOM     25  C   UNL     1      45.852   5.290   9.427  0.00  0.00    +0.000 C 
BRANCH  24  26
ATOM     26  N   UNL     1      43.489   4.703   9.196  0.00  0.00    +0.000 NA
ATOM     27  H   UNL     1      43.790   4.739   8.223  0.00  0.00    +0.000 HD
ATOM     28  H   UNL     1      43.005   5.582   9.375  0.00  0.00    +0.000 HD
ENDBRANCH  24  26
ENDBRANCH  22  24
ENDBRANCH  16  22
ENDBRANCH   1  19
TORSDOF 6
ENDMDL
MODEL 7
REMARK VINA RESULT:    -5.978      3.415      6.518
REMARK INTER + INTRA:          -8.193
REMARK INTER:                  -7.663
REMARK INTRA:                  -0.530
REMARK UNBOUND:                -0.293
REMARK  Name = 
REMARK  8 active torsions:
REMARK  status: ('A' for Active; 'I' for Inactive)
REMARK    1  A    between atoms: C_1  and  C_2
REMARK    2  A    between atoms: C_2  and  C_3
REMARK    3  A    between atoms: C_2  and  N_4
REMARK    4  A    between atoms: C_2  and  C_5
REMARK    5  A    between atoms: C_5  and  C_6
REMARK    6  A    between atoms: C_9  and  C_10
REMARK    7  A    between atoms: C_10  and  N_11
REMARK    8  A    between atoms: C_18  and  C_19
REMARK                            x       y       z     vdW  Elec       q    Type
REMARK                         _______ _______ _______ _____ _____    ______ ____
ROOT
ATOM      1  C   UNL     1      46.758   7.039  13.695  0.00  0.00    +0.000 C 
ENDROOT
BRANCH   1   2
ATOM      2  N   UNL     1      46.376   5.677  13.341  0.00  0.00    +0.000 N 
ATOM      3  C   UNL     1      46.979   4.591  13.936  0.00  0.00    +0.000 A 
ATOM      4  N   UNL     1      46.546   3.456  13.453  0.00  0.00    +0.000 NA
ATOM      5  C   UNL     1      45.618   3.810  12.521  0.00  0.00    +0.000 A 
ATOM      6  N   UNL     1      44.939   2.910  11.787  0.00  0.00    +0.000 NA
ATOM      7  C   UNL     1      44.061   3.457  10.953  0.00  0.00    +0.000 A 
ATOM      8  N   UNL     1      43.793   4.761  10.805  0.00  0.00    +0.000 NA
ATOM      9  C   UNL     1      44.489   5.666  11.555  0.00  0.00    +0.000 A 
ATOM     10  C   UNL     1      45.451   5.192  12.439  0.00  0.00    +0.000 A 
BRANCH   9  11
ATOM     11  C   UNL     1      44.084   7.087  11.351  0.00  0.00    +0.000 C 
ATOM     12  N   UNL     1      42.736   7.305  11.221  0.00  0.00    +0.000 N 
ATOM     13  O   UNL     1      44.857   8.031  11.320  0.00  0.00    +0.000 OA
ATOM     14  H   UNL     1      42.085   6.544  11.365  0.00  0.00    +0.000 HD
ATOM     15  H   UNL     1      42.402   8.254  11.135  0.00  0.00    +0.000 HD
ENDBRANCH   9  11
ENDBRANCH   1   2
BRANCH   1  19
ATOM     16  C   UNL     1      50.555   8.314  12.036  0.00  0.00    +0.000 A 
ATOM     17  C   UNL     1      50.429   8.047  13.403  0.00  0.00    +0.000 A 
ATOM     18  C   UNL     1      49.220   7.592  13.931  0.00  0.00    +0.000 A 
ATOM     19  C   UNL     1      48.103   7.401  13.110  0.00  0.00    +0.000 A 
ATOM     20  C   UNL     1      48.249   7.616  11.731  0.00  0.00    +0.000 A 
ATOM     21  C   UNL     1      49.461   8.065  11.200  0.00  0.00    +0.000 A 
BRANCH  16  22
ATOM     22  C   UNL     1      51.819   8.935  11.489  0.00  0.00    +0.000 C 
BRANCH  22  24
ATOM     23  C   UNL     1      53.967   8.749  10.118  0.00  0.00    +0.000 C 
ATOM     24  C   UNL     1      52.900   7.987  10.910  0.00  0.00    +0.000 C 
ATOM     25  C   UNL     1      52.294   6.882  10.031  0.00  0.00    +0.000 C 
BRANCH  24  26
ATOM     26  N   UNL     1      53.586   7.346  12.054  0.00  0.00    +0.000 NA
ATOM     27  H   UNL     1      52.901   6.999  12.725  0.00  0.00    +0.000 HD
ATOM     28  H   UNL     1      54.152   8.031  12.555  0.00  0.00    +0.000 HD
ENDBRANCH  24  26
ENDBRANCH  22  24
ENDBRANCH  16  22
ENDBRANCH   1  19
TORSDOF 6
ENDMDL
MODEL 8
REMARK VINA RESULT:    -5.938      3.370      6.302
REMARK INTER + INTRA:          -8.140
REMARK INTER:                  -7.533
REMARK INTRA:                  -0.606
REMARK UNBOUND:                -0.293
REMARK  Name = 
REMARK  8 active torsions:
REMARK  status: ('A' for Active; 'I' for Inactive)
REMARK    1  A    between atoms: C_1  and  C_2
REMARK    2  A    between atoms: C_2  and  C_3
REMARK    3  A    between atoms: C_2  and  N_4
REMARK    4  A    between atoms: C_2  and  C_5
REMARK    5  A    between atoms: C_5  and  C_6
REMARK    6  A    between atoms: C_9  and  C_10
REMARK    7  A    between atoms: C_10  and  N_11
REMARK    8  A    between atoms: C_18  and  C_19
REMARK                            x       y       z     vdW  Elec       q    Type
REMARK                         _______ _______ _______ _____ _____    ______ ____
ROOT
ATOM      1  C   UNL     1      47.077   7.688  13.664  0.00  0.00    +0.000 C 
ENDROOT
BRANCH   1   2
ATOM      2  N   UNL     1      45.994   7.116  12.872  0.00  0.00    +0.000 N 
ATOM      3  C   UNL     1      45.263   7.893  12.001  0.00  0.00    +0.000 A 
ATOM      4  N   UNL     1      44.303   7.220  11.422  0.00  0.00    +0.000 NA
ATOM      5  C   UNL     1      44.419   5.958  11.920  0.00  0.00    +0.000 A 
ATOM      6  N   UNL     1      43.594   4.955  11.568  0.00  0.00    +0.000 NA
ATOM      7  C   UNL     1      43.890   3.795  12.145  0.00  0.00    +0.000 A 
ATOM      8  N   UNL     1      44.902   3.548  12.987  0.00  0.00    +0.000 NA
ATOM      9  C   UNL     1      45.733   4.574  13.338  0.00  0.00    +0.000 A 
ATOM     10  C   UNL     1      45.487   5.834  12.807  0.00  0.00    +0.000 A 
BRANCH   9  11
ATOM     11  C   UNL     1      46.854   4.186  14.242  0.00  0.00    +0.000 C 
ATOM     12  N   UNL     1      46.863   4.798  15.469  0.00  0.00    +0.000 N 
ATOM     13  O   UNL     1      47.715   3.367  13.966  0.00  0.00    +0.000 OA
ATOM     14  H   UNL     1      46.086   5.385  15.747  0.00  0.00    +0.000 HD
ATOM     15  H   UNL     1      47.568   4.532  16.142  0.00  0.00    +0.000 HD
ENDBRANCH   9  11
ENDBRANCH   1   2
BRANCH   1  19
ATOM     16  C   UNL     1      50.568   8.825  11.359  0.00  0.00    +0.000 A 
ATOM     17  C   UNL     1      50.175   7.486  11.440  0.00  0.00    +0.000 A 
ATOM     18  C   UNL     1      49.024   7.123  12.143  0.00  0.00    +0.000 A 
ATOM     19  C   UNL     1      48.245   8.087  12.792  0.00  0.00    +0.000 A 
ATOM     20  C   UNL     1      48.611   9.435  12.662  0.00  0.00    +0.000 A 
ATOM     21  C   UNL     1      49.759   9.800  11.953  0.00  0.00    +0.000 A 
BRANCH  16  22
ATOM     22  C   UNL     1      51.884   9.200  10.716  0.00  0.00    +0.000 C 
BRANCH  22  24
ATOM     23  C   UNL     1      53.048   9.026  12.983  0.00  0.00    +0.000 C 
ATOM     24  C   UNL     1      53.188   8.835  11.470  0.00  0.00    +0.000 C 
ATOM     25  C   UNL     1      54.398   9.632  10.958  0.00  0.00    +0.000 C 
BRANCH  24  26
ATOM     26  N   UNL     1      53.446   7.396  11.238  0.00  0.00    +0.000 NA
ATOM     27  H   UNL     1      52.694   6.990  10.683  0.00  0.00    +0.000 HD
ATOM     28  H   UNL     1      53.451   6.891  12.123  0.00  0.00    +0.000 HD
ENDBRANCH  24  26
ENDBRANCH  22  24
ENDBRANCH  16  22
ENDBRANCH   1  19
TORSDOF 6
ENDMDL
MODEL 9
REMARK VINA RESULT:    -5.909      3.684      6.236
REMARK INTER + INTRA:          -8.102
REMARK INTER:                  -7.950
REMARK INTRA:                  -0.152
REMARK UNBOUND:                -0.293
REMARK  Name = 
REMARK  8 active torsions:
REMARK  status: ('A' for Active; 'I' for Inactive)
REMARK    1  A    between atoms: C_1  and  C_2
REMARK    2  A    between atoms: C_2  and  C_3
REMARK    3  A    between atoms: C_2  and  N_4
REMARK    4  A    between atoms: C_2  and  C_5
REMARK    5  A    between atoms: C_5  and  C_6
REMARK    6  A    between atoms: C_9  and  C_10
REMARK    7  A    between atoms: C_10  and  N_11
REMARK    8  A    between atoms: C_18  and  C_19
REMARK                            x       y       z     vdW  Elec       q    Type
REMARK                         _______ _______ _______ _____ _____    ______ ____
ROOT
ATOM      1  C   UNL     1      47.947   3.925  17.359  0.00  0.00    +0.000 C 
ENDROOT
BRANCH   1   2
ATOM      2  N   UNL     1      49.092   4.565  17.996  0.00  0.00    +0.000 N 
ATOM      3  C   UNL     1      48.963   5.775  18.639  0.00  0.00    +0.000 A 
ATOM      4  N   UNL     1      50.105   6.217  19.100  0.00  0.00    +0.000 NA
ATOM      5  C   UNL     1      51.007   5.256  18.759  0.00  0.00    +0.000 A 
ATOM      6  N   UNL     1      52.316   5.346  19.056  0.00  0.00    +0.000 NA
ATOM      7  C   UNL     1      53.025   4.294  18.660  0.00  0.00    +0.000 A 
ATOM      8  N   UNL     1      52.566   3.197  18.043  0.00  0.00    +0.000 NA
ATOM      9  C   UNL     1      51.235   3.117  17.746  0.00  0.00    +0.000 A 
ATOM     10  C   UNL     1      50.414   4.183  18.096  0.00  0.00    +0.000 A 
BRANCH   9  11
ATOM     11  C   UNL     1      50.816   1.839  17.102  0.00  0.00    +0.000 C 
ATOM     12  N   UNL     1      51.284   0.696  17.697  0.00  0.00    +0.000 N 
ATOM     13  O   UNL     1      50.087   1.760  16.126  0.00  0.00    +0.000 OA
ATOM     14  H   UNL     1      51.788   0.752  18.574  0.00  0.00    +0.000 HD
ATOM     15  H   UNL     1      50.987  -0.200  17.335  0.00  0.00    +0.000 HD
ENDBRANCH   9  11
ENDBRANCH   1   2
BRANCH   1  19
ATOM     16  C   UNL     1      47.119   5.515  13.412  0.00  0.00    +0.000 A 
ATOM     17  C   UNL     1      47.854   6.260  14.339  0.00  0.00    +0.000 A 
ATOM     18  C   UNL     1      48.162   5.731  15.593  0.00  0.00    +0.000 A 
ATOM     19  C   UNL     1      47.734   4.449  15.958  0.00  0.00    +0.000 A 
ATOM     20  C   UNL     1      47.046   3.683  15.005  0.00  0.00    +0.000 A 
ATOM     21  C   UNL     1      46.743   4.209  13.746  0.00  0.00    +0.000 A 
BRANCH  16  22
ATOM     22  C   UNL     1      46.671   6.138  12.110  0.00  0.00    +0.000 C 
BRANCH  22  24
ATOM     23  C   UNL     1      44.464   5.374  11.074  0.00  0.00    +0.000 C 
ATOM     24  C   UNL     1      45.160   6.435  11.932  0.00  0.00    +0.000 C 
ATOM     25  C   UNL     1      44.907   7.829  11.338  0.00  0.00    +0.000 C 
BRANCH  24  26
ATOM     26  N   UNL     1      44.537   6.382  13.274  0.00  0.00    +0.000 NA
ATOM     27  H   UNL     1      45.207   6.677  13.984  0.00  0.00    +0.000 HD
ATOM     28  H   UNL     1      44.281   5.423  13.507  0.00  0.00    +0.000 HD
ENDBRANCH  24  26
ENDBRANCH  22  24
ENDBRANCH  16  22
ENDBRANCH   1  19
TORSDOF 6
ENDMDL
