MODEL 1
REMARK VINA RESULT:    -8.800      0.000      0.000
REMARK INTER + INTRA:         -11.474
REMARK INTER:                 -10.858
REMARK INTRA:                  -0.616
REMARK UNBOUND:                -0.616
REMARK  Name = 
REMARK  4 active torsions:
REMARK  status: ('A' for Active; 'I' for Inactive)
REMARK    1  A    between atoms: C_2  and  C_4
REMARK    2  A    between atoms: C_7  and  C_8
REMARK    3  A    between atoms: C_8  and  N_9
REMARK    4  A    between atoms: C_14  and  C_15
REMARK                            x       y       z     vdW  Elec       q    Type
REMARK                         _______ _______ _______ _____ _____    ______ ____
ROOT
ATOM      1  N   UNL     1      44.063   4.728  11.541  0.00  0.00    +0.000 N 
ATOM      2  C   UNL     1      45.054   5.609  11.946  0.00  0.00    +0.000 A 
ATOM      3  C   UNL     1      45.264   6.869  11.388  0.00  0.00    +0.000 A 
ATOM      4  N   UNL     1      46.197   7.747  11.829  0.00  0.00    +0.000 NA
ATOM      5  C   UNL     1      46.911   7.323  12.895  0.00  0.00    +0.000 A 
ATOM      6  C   UNL     1      46.718   6.083  13.502  0.00  0.00    +0.000 A 
ATOM      7  N   UNL     1      45.794   5.211  13.007  0.00  0.00    +0.000 NA
ATOM      8  H   UNL     1      44.255   3.820  11.958  0.00  0.00    +0.000 HD
ENDROOT
BRANCH   6   9
ATOM      9  C   UNL     1      47.468   5.643  14.690  0.00  0.00    +0.000 A 
ATOM     10  C   UNL     1      48.616   6.303  15.138  0.00  0.00    +0.000 A 
ATOM     11  N   UNL     1      49.362   5.936  16.212  0.00  0.00    +0.000 NA
ATOM     12  C   UNL     1      48.935   4.851  16.897  0.00  0.00    +0.000 A 
ATOM     13  C   UNL     1      47.802   4.130  16.560  0.00  0.00    +0.000 A 
ATOM     14 CL   UNL     1      47.322   2.765  17.482  0.00  0.00    +0.000 Cl
ATOM     15  C   UNL     1      47.063   4.534  15.450  0.00  0.00    +0.000 A 
ENDBRANCH   6   9
BRANCH   1  16
ATOM     16  C   UNL     1      43.692   4.685  10.132  0.00  0.00    +0.000 C 
BRANCH  16  20
ATOM     17  C   UNL     1      46.409   2.405   7.744  0.00  0.00    +0.000 A 
ATOM     18  C   UNL     1      45.633   1.742   8.693  0.00  0.00    +0.000 A 
ATOM     19  C   UNL     1      44.758   2.478   9.493  0.00  0.00    +0.000 A 
ATOM     20  C   UNL     1      44.680   3.863   9.324  0.00  0.00    +0.000 A 
ATOM     21  N   UNL     1      45.441   4.523   8.416  0.00  0.00    +0.000 NA
ATOM     22  C   UNL     1      46.292   3.785   7.657  0.00  0.00    +0.000 A 
BRANCH  17  24
ATOM     23  N   UNL     1      48.439   2.427   6.406  0.00  0.00    +0.000 N 
ATOM     24  C   UNL     1      47.355   1.717   6.840  0.00  0.00    +0.000 C 
ATOM     25  O   UNL     1      47.198   0.546   6.522  0.00  0.00    +0.000 OA
ATOM     26  H   UNL     1      49.131   1.908   5.878  0.00  0.00    +0.000 HD
ATOM     27  H   UNL     1      48.737   3.291   6.837  0.00  0.00    +0.000 HD
ENDBRANCH  17  24
ENDBRANCH  16  20
ENDBRANCH   1  16
TORSDOF 4
ENDMDL
MODEL 2
REMARK VINA RESULT:    -7.900      2.236      2.729
REMARK INTER + INTRA:         -10.363
REMARK INTER:                  -9.870
REMARK INTRA:                  -0.493
REMARK UNBOUND:                -0.616
REMARK  Name = 
REMARK  4 active torsions:
REMARK  status: ('A' for Active; 'I' for Inactive)
REMARK    1  A    between atoms: C_2  and  C_4
REMARK    2  A    between atoms: C_7  and  C_8
REMARK    3  A    between atoms: C_8  and  N_9
REMARK    4  A    between atoms: C_14  and  C_15
REMARK                            x       y       z     vdW  Elec       q    Type
REMARK                         _______ _______ _______ _____ _____    ______ ____
ROOT
ATOM      1  N   UNL     1      44.577   4.262  11.797  0.00  0.00    +0.000 N 
ATOM      2  C   UNL     1      44.983   5.584  11.896  0.00  0.00    +0.000 A 
ATOM      3  C   UNL     1      44.253   6.670  11.415  0.00  0.00    +0.000 A 
ATOM      4  N   UNL     1      44.628   7.962  11.569  0.00  0.00    +0.000 NA
ATOM      5  C   UNL     1      45.772   8.139  12.264  0.00  0.00    +0.000 A 
ATOM      6  C   UNL     1      46.521   7.086  12.787  0.00  0.00    +0.000 A 
ATOM      7  N   UNL     1      46.131   5.796  12.581  0.00  0.00    +0.000 NA
ATOM      8  H   UNL     1      45.370   3.669  12.035  0.00  0.00    +0.000 HD
ENDROOT
BRANCH   6   9
ATOM      9  C   UNL     1      47.744   7.285  13.582  0.00  0.00    +0.000 A 
ATOM     10  C   UNL     1      48.223   6.320  14.474  0.00  0.00    +0.000 A 
ATOM     11  N   UNL     1      49.330   6.451  15.249  0.00  0.00    +0.000 NA
ATOM     12  C   UNL     1      50.018   7.608  15.124  0.00  0.00    +0.000 A 
ATOM     13  C   UNL     1      49.652   8.626  14.259  0.00  0.00    +0.000 A 
ATOM     14 CL   UNL     1      50.580  10.065  14.153  0.00  0.00    +0.000 Cl
ATOM     15  C   UNL     1      48.508   8.459  13.482  0.00  0.00    +0.000 A 
ENDBRANCH   6   9
BRANCH   1  16
ATOM     16  C   UNL     1      43.833   3.840  10.617  0.00  0.00    +0.000 C 
BRANCH  16  20
ATOM     17  C   UNL     1      46.544   2.665   7.527  0.00  0.00    +0.000 A 
ATOM     18  C   UNL     1      46.214   4.014   7.651  0.00  0.00    +0.000 A 
ATOM     19  C   UNL     1      45.314   4.407   8.643  0.00  0.00    +0.000 A 
ATOM     20  C   UNL     1      44.764   3.440   9.487  0.00  0.00    +0.000 A 
ATOM     21  N   UNL     1      45.063   2.122   9.367  0.00  0.00    +0.000 NA
ATOM     22  C   UNL     1      45.934   1.764   8.387  0.00  0.00    +0.000 A 
BRANCH  17  24
ATOM     23  N   UNL     1      47.794   2.961   5.462  0.00  0.00    +0.000 N 
ATOM     24  C   UNL     1      47.495   2.148   6.520  0.00  0.00    +0.000 C 
ATOM     25  O   UNL     1      48.026   1.054   6.646  0.00  0.00    +0.000 OA
ATOM     26  H   UNL     1      48.526   2.635   4.842  0.00  0.00    +0.000 HD
ATOM     27  H   UNL     1      47.582   3.948   5.452  0.00  0.00    +0.000 HD
ENDBRANCH  17  24
ENDBRANCH  16  20
ENDBRANCH   1  16
TORSDOF 4
ENDMDL
MODEL 3
REMARK VINA RESULT:    -7.236      3.792      7.781
REMARK INTER + INTRA:          -9.544
REMARK INTER:                  -9.141
REMARK INTRA:                  -0.403
REMARK UNBOUND:                -0.616
REMARK  Name = 
REMARK  4 active torsions:
REMARK  status: ('A' for Active; 'I' for Inactive)
REMARK    1  A    between atoms: C_2  and  C_4
REMARK    2  A    between atoms: C_7  and  C_8
REMARK    3  A    between atoms: C_8  and  N_9
REMARK    4  A    between atoms: C_14  and  C_15
REMARK                            x       y       z     vdW  Elec       q    Type
REMARK                         _______ _______ _______ _____ _____    ______ ____
ROOT
ATOM      1  N   UNL     1      44.929   6.821  10.789  0.00  0.00    +0.000 N 
ATOM      2  C   UNL     1      44.565   5.485  10.725  0.00  0.00    +0.000 A 
ATOM      3  C   UNL     1      43.522   4.916  11.456  0.00  0.00    +0.000 A 
ATOM      4  N   UNL     1      43.134   3.624  11.343  0.00  0.00    +0.000 NA
ATOM      5  C   UNL     1      43.821   2.906  10.428  0.00  0.00    +0.000 A 
ATOM      6  C   UNL     1      44.852   3.438   9.655  0.00  0.00    +0.000 A 
ATOM      7  N   UNL     1      45.239   4.735   9.822  0.00  0.00    +0.000 NA
ATOM      8  H   UNL     1      45.829   6.926  10.326  0.00  0.00    +0.000 HD
ENDROOT
BRANCH   6   9
ATOM      9  C   UNL     1      45.569   2.665   8.628  0.00  0.00    +0.000 A 
ATOM     10  C   UNL     1      45.834   1.299   8.766  0.00  0.00    +0.000 A 
ATOM     11  N   UNL     1      46.507   0.536   7.867  0.00  0.00    +0.000 NA
ATOM     12  C   UNL     1      46.934   1.163   6.748  0.00  0.00    +0.000 A 
ATOM     13  C   UNL     1      46.713   2.506   6.491  0.00  0.00    +0.000 A 
ATOM     14 CL   UNL     1      47.284   3.230   5.044  0.00  0.00    +0.000 Cl
ATOM     15  C   UNL     1      46.023   3.259   7.439  0.00  0.00    +0.000 A 
ENDBRANCH   6   9
BRANCH   1  16
ATOM     16  C   UNL     1      44.813   7.522  12.062  0.00  0.00    +0.000 C 
BRANCH  16  20
ATOM     17  C   UNL     1      48.412   7.310  14.361  0.00  0.00    +0.000 A 
ATOM     18  C   UNL     1      47.876   8.563  14.070  0.00  0.00    +0.000 A 
ATOM     19  C   UNL     1      46.713   8.646  13.303  0.00  0.00    +0.000 A 
ATOM     20  C   UNL     1      46.114   7.471  12.843  0.00  0.00    +0.000 A 
ATOM     21  N   UNL     1      46.634   6.246  13.104  0.00  0.00    +0.000 NA
ATOM     22  C   UNL     1      47.772   6.193  13.844  0.00  0.00    +0.000 A 
BRANCH  17  24
ATOM     23  N   UNL     1      50.571   8.105  15.148  0.00  0.00    +0.000 N 
ATOM     24  C   UNL     1      49.630   7.114  15.174  0.00  0.00    +0.000 C 
ATOM     25  O   UNL     1      49.777   6.123  15.877  0.00  0.00    +0.000 OA
ATOM     26  H   UNL     1      51.346   8.003  15.792  0.00  0.00    +0.000 HD
ATOM     27  H   UNL     1      50.381   9.031  14.793  0.00  0.00    +0.000 HD
ENDBRANCH  17  24
ENDBRANCH  16  20
ENDBRANCH   1  16
TORSDOF 4
ENDMDL
MODEL 4
REMARK VINA RESULT:    -6.752      4.104      8.183
REMARK INTER + INTRA:          -8.947
REMARK INTER:                  -8.472
REMARK INTRA:                  -0.475
REMARK UNBOUND:                -0.616
REMARK  Name = 
REMARK  4 active torsions:
REMARK  status: ('A' for Active; 'I' for Inactive)
REMARK    1  A    between atoms: C_2  and  C_4
REMARK    2  A    between atoms: C_7  and  C_8
REMARK    3  A    between atoms: C_8  and  N_9
REMARK    4  A    between atoms: C_14  and  C_15
REMARK                            x       y       z     vdW  Elec       q    Type
REMARK                         _______ _______ _______ _____ _____    ______ ____
ROOT
ATOM      1  N   UNL     1      48.371   7.127  13.251  0.00  0.00    +0.000 N 
ATOM      2  C   UNL     1      47.115   7.207  12.670  0.00  0.00    +0.000 A 
ATOM      3  C   UNL     1      46.306   8.343  12.696  0.00  0.00    +0.000 A 
ATOM      4  N   UNL     1      45.106   8.432  12.076  0.00  0.00    +0.000 NA
ATOM      5  C   UNL     1      44.744   7.329  11.385  0.00  0.00    +0.000 A 
ATOM      6  C   UNL     1      45.531   6.182  11.308  0.00  0.00    +0.000 A 
ATOM      7  N   UNL     1      46.719   6.116  11.975  0.00  0.00    +0.000 NA
ATOM      8  H   UNL     1      48.651   6.148  13.266  0.00  0.00    +0.000 HD
ENDROOT
BRANCH   6   9
ATOM      9  C   UNL     1      45.154   4.999  10.518  0.00  0.00    +0.000 A 
ATOM     10  C   UNL     1      44.285   4.017  11.005  0.00  0.00    +0.000 A 
ATOM     11  N   UNL     1      43.916   2.895  10.335  0.00  0.00    +0.000 NA
ATOM     12  C   UNL     1      44.429   2.741   9.094  0.00  0.00    +0.000 A 
ATOM     13  C   UNL     1      45.282   3.655   8.499  0.00  0.00    +0.000 A 
ATOM     14 CL   UNL     1      45.890   3.389   6.916  0.00  0.00    +0.000 Cl
ATOM     15  C   UNL     1      45.643   4.792   9.217  0.00  0.00    +0.000 A 
ENDBRANCH   6   9
BRANCH   1  16
ATOM     16  C   UNL     1      48.623   7.852  14.489  0.00  0.00    +0.000 C 
BRANCH  16  20
ATOM     17  C   UNL     1      48.597   5.193  17.837  0.00  0.00    +0.000 A 
ATOM     18  C   UNL     1      48.984   6.517  18.037  0.00  0.00    +0.000 A 
ATOM     19  C   UNL     1      49.016   7.390  16.948  0.00  0.00    +0.000 A 
ATOM     20  C   UNL     1      48.661   6.915  15.683  0.00  0.00    +0.000 A 
ATOM     21  N   UNL     1      48.299   5.625  15.471  0.00  0.00    +0.000 NA
ATOM     22  C   UNL     1      48.286   4.794  16.545  0.00  0.00    +0.000 A 
BRANCH  17  24
ATOM     23  N   UNL     1      47.911   3.002  18.640  0.00  0.00    +0.000 N 
ATOM     24  C   UNL     1      48.517   4.194  18.924  0.00  0.00    +0.000 C 
ATOM     25  O   UNL     1      49.008   4.407  20.024  0.00  0.00    +0.000 OA
ATOM     26  H   UNL     1      47.962   2.292  19.361  0.00  0.00    +0.000 HD
ATOM     27  H   UNL     1      47.725   2.693  17.697  0.00  0.00    +0.000 HD
ENDBRANCH  17  24
ENDBRANCH  16  20
ENDBRANCH   1  16
TORSDOF 4
ENDMDL
MODEL 5
REMARK VINA RESULT:    -6.737      4.423      8.396
REMARK INTER + INTRA:          -8.929
REMARK INTER:                  -8.497
REMARK INTRA:                  -0.432
REMARK UNBOUND:                -0.616
REMARK  Name = 
REMARK  4 active torsions:
REMARK  status: ('A' for Active; 'I' for Inactive)
REMARK    1  A    between atoms: C_2  and  C_4
REMARK    2  A    between atoms: C_7  and  C_8
REMARK    3  A    between atoms: C_8  and  N_9
REMARK    4  A    between atoms: C_14  and  C_15
REMARK                            x       y       z     vdW  Elec       q    Type
REMARK                         _______ _______ _______ _____ _____    ______ ____
ROOT
ATOM      1  N   UNL     1      47.495   3.249  16.196  0.00  0.00    +0.000 N 
ATOM      2  C   UNL     1      47.357   4.335  15.346  0.00  0.00    +0.000 A 
ATOM      3  C   UNL     1      48.256   5.399  15.275  0.00  0.00    +0.000 A 
ATOM      4  N   UNL     1      48.146   6.427  14.400  0.00  0.00    +0.000 NA
ATOM      5  C   UNL     1      47.096   6.338  13.554  0.00  0.00    +0.000 A 
ATOM      6  C   UNL     1      46.188   5.281  13.570  0.00  0.00    +0.000 A 
ATOM      7  N   UNL     1      46.311   4.281  14.489  0.00  0.00    +0.000 NA
ATOM      8  H   UNL     1      46.617   2.733  16.196  0.00  0.00    +0.000 HD
ENDROOT
BRANCH   6   9
ATOM      9  C   UNL     1      45.071   5.165  12.618  0.00  0.00    +0.000 A 
ATOM     10  C   UNL     1      43.749   5.448  12.975  0.00  0.00    +0.000 A 
ATOM     11  N   UNL     1      42.675   5.341  12.151  0.00  0.00    +0.000 NA
ATOM     12  C   UNL     1      42.927   4.941  10.885  0.00  0.00    +0.000 A 
ATOM     13  C   UNL     1      44.195   4.652  10.412  0.00  0.00    +0.000 A 
ATOM     14 CL   UNL     1      44.435   4.152   8.788  0.00  0.00    +0.000 Cl
ATOM     15  C   UNL     1      45.274   4.769  11.286  0.00  0.00    +0.000 A 
ENDBRANCH   6   9
BRANCH   1  16
ATOM     16  C   UNL     1      48.079   3.457  17.515  0.00  0.00    +0.000 C 
BRANCH  16  20
ATOM     17  C   UNL     1      52.143   2.141  17.705  0.00  0.00    +0.000 A 
ATOM     18  C   UNL     1      51.840   3.440  18.108  0.00  0.00    +0.000 A 
ATOM     19  C   UNL     1      50.521   3.888  18.032  0.00  0.00    +0.000 A 
ATOM     20  C   UNL     1      49.534   3.024  17.551  0.00  0.00    +0.000 A 
ATOM     21  N   UNL     1      49.817   1.763  17.138  0.00  0.00    +0.000 NA
ATOM     22  C   UNL     1      51.110   1.355  17.214  0.00  0.00    +0.000 A 
BRANCH  17  24
ATOM     23  N   UNL     1      53.665   0.393  18.440  0.00  0.00    +0.000 N 
ATOM     24  C   UNL     1      53.504   1.567  17.758  0.00  0.00    +0.000 C 
ATOM     25  O   UNL     1      54.444   2.098  17.184  0.00  0.00    +0.000 OA
ATOM     26  H   UNL     1      54.579  -0.040  18.375  0.00  0.00    +0.000 HD
ATOM     27  H   UNL     1      52.890  -0.198  18.705  0.00  0.00    +0.000 HD
ENDBRANCH  17  24
ENDBRANCH  16  20
ENDBRANCH   1  16
TORSDOF 4
ENDMDL
MODEL 6
REMARK VINA RESULT:    -6.138      2.878      4.968
REMARK INTER + INTRA:          -8.190
REMARK INTER:                  -7.769
REMARK INTRA:                  -0.421
REMARK UNBOUND:                -0.616
REMARK  Name = 
REMARK  4 active torsions:
REMARK  status: ('A' for Active; 'I' for Inactive)
REMARK    1  A    between atoms: C_2  and  C_4
REMARK    2  A    between atoms: C_7  and  C_8
REMARK    3  A    between atoms: C_8  and  N_9
REMARK    4  A    between atoms: C_14  and  C_15
REMARK                            x       y       z     vdW  Elec       q    Type
REMARK                         _______ _______ _______ _____ _____    ______ ____
ROOT
ATOM      1  N   UNL     1      47.831   5.487  14.417  0.00  0.00    +0.000 N 
ATOM      2  C   UNL     1      47.823   4.785  15.613  0.00  0.00    +0.000 A 
ATOM      3  C   UNL     1      46.733   4.061  16.094  0.00  0.00    +0.000 A 
ATOM      4  N   UNL     1      46.754   3.330  17.234  0.00  0.00    +0.000 NA
ATOM      5  C   UNL     1      47.941   3.322  17.878  0.00  0.00    +0.000 A 
ATOM      6  C   UNL     1      49.065   4.008  17.420  0.00  0.00    +0.000 A 
ATOM      7  N   UNL     1      48.996   4.763  16.287  0.00  0.00    +0.000 NA
ATOM      8  H   UNL     1      48.656   6.082  14.404  0.00  0.00    +0.000 HD
ENDROOT
BRANCH   6   9
ATOM      9  C   UNL     1      50.370   3.961  18.101  0.00  0.00    +0.000 A 
ATOM     10  C   UNL     1      50.675   4.779  19.193  0.00  0.00    +0.000 A 
ATOM     11  N   UNL     1      51.864   4.798  19.849  0.00  0.00    +0.000 NA
ATOM     12  C   UNL     1      52.809   3.939  19.405  0.00  0.00    +0.000 A 
ATOM     13  C   UNL     1      52.614   3.067  18.347  0.00  0.00    +0.000 A 
ATOM     14 CL   UNL     1      53.863   2.004  17.844  0.00  0.00    +0.000 Cl
ATOM     15  C   UNL     1      51.384   3.078  17.694  0.00  0.00    +0.000 A 
ENDBRANCH   6   9
BRANCH   1  16
ATOM     16  C   UNL     1      46.604   6.137  13.974  0.00  0.00    +0.000 C 
BRANCH  16  20
ATOM     17  C   UNL     1      45.120   4.177  10.476  0.00  0.00    +0.000 A 
ATOM     18  C   UNL     1      45.680   5.446  10.345  0.00  0.00    +0.000 A 
ATOM     19  C   UNL     1      46.150   6.105  11.483  0.00  0.00    +0.000 A 
ATOM     20  C   UNL     1      46.045   5.477  12.726  0.00  0.00    +0.000 A 
ATOM     21  N   UNL     1      45.487   4.249  12.870  0.00  0.00    +0.000 NA
ATOM     22  C   UNL     1      45.029   3.634  11.749  0.00  0.00    +0.000 A 
BRANCH  17  24
ATOM     23  N   UNL     1      44.531   2.035   9.487  0.00  0.00    +0.000 N 
ATOM     24  C   UNL     1      44.607   3.391   9.334  0.00  0.00    +0.000 C 
ATOM     25  O   UNL     1      44.227   3.933   8.305  0.00  0.00    +0.000 OA
ATOM     26  H   UNL     1      44.078   1.526   8.737  0.00  0.00    +0.000 HD
ATOM     27  H   UNL     1      44.591   1.581  10.387  0.00  0.00    +0.000 HD
ENDBRANCH  17  24
ENDBRANCH  16  20
ENDBRANCH   1  16
TORSDOF 4
ENDMDL
MODEL 7
REMARK VINA RESULT:    -6.123      3.100      5.510
REMARK INTER + INTRA:          -8.171
REMARK INTER:                  -7.751
REMARK INTRA:                  -0.420
REMARK UNBOUND:                -0.616
REMARK  Name = 
REMARK  4 active torsions:
REMARK  status: ('A' for Active; 'I' for Inactive)
REMARK    1  A    between atoms: C_2  and  C_4
REMARK    2  A    between atoms: C_7  and  C_8
REMARK    3  A    between atoms: C_8  and  N_9
REMARK    4  A    between atoms: C_14  and  C_15
REMARK                            x       y       z     vdW  Elec       q    Type
REMARK                         _______ _______ _______ _____ _____    ______ ____
ROOT
ATOM      1  N   UNL     1      48.088   5.874  14.936  0.00  0.00    +0.000 N 
ATOM      2  C   UNL     1      48.894   6.323  15.971  0.00  0.00    +0.000 A 
ATOM      3  C   UNL     1      48.758   7.563  16.594  0.00  0.00    +0.000 A 
ATOM      4  N   UNL     1      49.511   7.970  17.644  0.00  0.00    +0.000 NA
ATOM      5  C   UNL     1      50.407   7.059  18.082  0.00  0.00    +0.000 A 
ATOM      6  C   UNL     1      50.560   5.798  17.509  0.00  0.00    +0.000 A 
ATOM      7  N   UNL     1      49.808   5.437  16.430  0.00  0.00    +0.000 NA
ATOM      8  H   UNL     1      48.521   5.045  14.535  0.00  0.00    +0.000 HD
ENDROOT
BRANCH   6   9
ATOM      9  C   UNL     1      51.506   4.792  18.017  0.00  0.00    +0.000 A 
ATOM     10  C   UNL     1      52.547   5.117  18.893  0.00  0.00    +0.000 A 
ATOM     11  N   UNL     1      53.464   4.241  19.380  0.00  0.00    +0.000 NA
ATOM     12  C   UNL     1      53.333   2.954  18.986  0.00  0.00    +0.000 A 
ATOM     13  C   UNL     1      52.331   2.511  18.139  0.00  0.00    +0.000 A 
ATOM     14 CL   UNL     1      52.229   0.859  17.688  0.00  0.00    +0.000 Cl
ATOM     15  C   UNL     1      51.411   3.438  17.655  0.00  0.00    +0.000 A 
ENDBRANCH   6   9
BRANCH   1  16
ATOM     16  C   UNL     1      47.595   6.837  13.960  0.00  0.00    +0.000 C 
BRANCH  16  20
ATOM     17  C   UNL     1      44.798   4.950  11.333  0.00  0.00    +0.000 A 
ATOM     18  C   UNL     1      45.491   6.072  10.880  0.00  0.00    +0.000 A 
ATOM     19  C   UNL     1      46.391   6.709  11.735  0.00  0.00    +0.000 A 
ATOM     20  C   UNL     1      46.576   6.208  13.026  0.00  0.00    +0.000 A 
ATOM     21  N   UNL     1      45.896   5.128  13.486  0.00  0.00    +0.000 NA
ATOM     22  C   UNL     1      45.019   4.532  12.637  0.00  0.00    +0.000 A 
BRANCH  17  24
ATOM     23  N   UNL     1      43.923   4.345   9.147  0.00  0.00    +0.000 N 
ATOM     24  C   UNL     1      43.834   4.198  10.503  0.00  0.00    +0.000 C 
ATOM     25  O   UNL     1      43.014   3.441  11.004  0.00  0.00    +0.000 OA
ATOM     26  H   UNL     1      43.328   3.741   8.592  0.00  0.00    +0.000 HD
ATOM     27  H   UNL     1      44.728   4.749   8.691  0.00  0.00    +0.000 HD
ENDBRANCH  17  24
ENDBRANCH  16  20
ENDBRANCH   1  16
TORSDOF 4
ENDMDL
MODEL 8
REMARK VINA RESULT:    -6.069      4.925      7.970
REMARK INTER + INTRA:          -8.105
REMARK INTER:                  -7.641
REMARK INTRA:                  -0.464
REMARK UNBOUND:                -0.616
REMARK  Name = 
REMARK  4 active torsions:
REMARK  status: ('A' for Active; 'I' for Inactive)
REMARK    1  A    between atoms: C_2  and  C_4
REMARK    2  A    between atoms: C_7  and  C_8
REMARK    3  A    between atoms: C_8  and  N_9
REMARK    4  A    between atoms: C_14  and  C_15
REMARK                            x       y       z     vdW  Elec       q    Type
REMARK                         _______ _______ _______ _____ _____    ______ ____
ROOT
ATOM      1  N   UNL     1      47.520   5.069  15.906  0.00  0.00    +0.000 N 
ATOM      2  C   UNL     1      47.236   5.352  14.579  0.00  0.00    +0.000 A 
ATOM      3  C   UNL     1      46.300   4.662  13.809  0.00  0.00    +0.000 A 
ATOM      4  N   UNL     1      45.986   4.983  12.532  0.00  0.00    +0.000 NA
ATOM      5  C   UNL     1      46.633   6.065  12.046  0.00  0.00    +0.000 A 
ATOM      6  C   UNL     1      47.555   6.802  12.787  0.00  0.00    +0.000 A 
ATOM      7  N   UNL     1      47.873   6.427  14.059  0.00  0.00    +0.000 NA
ATOM      8  H   UNL     1      48.367   5.572  16.163  0.00  0.00    +0.000 HD
ENDROOT
BRANCH   6   9
ATOM      9  C   UNL     1      48.224   8.007  12.270  0.00  0.00    +0.000 A 
ATOM     10  C   UNL     1      47.578   9.244  12.182  0.00  0.00    +0.000 A 
ATOM     11  N   UNL     1      48.132  10.384  11.696  0.00  0.00    +0.000 NA
ATOM     12  C   UNL     1      49.417  10.299  11.283  0.00  0.00    +0.000 A 
ATOM     13  C   UNL     1      50.164   9.135  11.341  0.00  0.00    +0.000 A 
ATOM     14 CL   UNL     1      51.792   9.108  10.801  0.00  0.00    +0.000 Cl
ATOM     15  C   UNL     1      49.561   7.983  11.841  0.00  0.00    +0.000 A 
ENDBRANCH   6   9
BRANCH   1  16
ATOM     16  C   UNL     1      47.475   3.683  16.356  0.00  0.00    +0.000 C 
BRANCH  16  20
ATOM     17  C   UNL     1      51.295   2.172  17.540  0.00  0.00    +0.000 A 
ATOM     18  C   UNL     1      50.904   3.432  17.990  0.00  0.00    +0.000 A 
ATOM     19  C   UNL     1      49.668   3.945  17.594  0.00  0.00    +0.000 A 
ATOM     20  C   UNL     1      48.852   3.184  16.754  0.00  0.00    +0.000 A 
ATOM     21  N   UNL     1      49.227   1.964  16.294  0.00  0.00    +0.000 NA
ATOM     22  C   UNL     1      50.438   1.492  16.687  0.00  0.00    +0.000 A 
BRANCH  17  24
ATOM     23  N   UNL     1      52.979   0.456  17.175  0.00  0.00    +0.000 N 
ATOM     24  C   UNL     1      52.576   1.535  17.912  0.00  0.00    +0.000 C 
ATOM     25  O   UNL     1      53.270   1.977  18.817  0.00  0.00    +0.000 OA
ATOM     26  H   UNL     1      53.906   0.101  17.374  0.00  0.00    +0.000 HD
ATOM     27  H   UNL     1      52.573   0.221  16.281  0.00  0.00    +0.000 HD
ENDBRANCH  17  24
ENDBRANCH  16  20
ENDBRANCH   1  16
TORSDOF 4
ENDMDL
MODEL 9
REMARK VINA RESULT:    -6.066      3.145      4.739
REMARK INTER + INTRA:          -8.101
REMARK INTER:                  -7.638
REMARK INTRA:                  -0.463
REMARK UNBOUND:                -0.616
REMARK  Name = 
REMARK  4 active torsions:
REMARK  status: ('A' for Active; 'I' for Inactive)
REMARK    1  A    between atoms: C_2  and  C_4
REMARK    2  A    between atoms: C_7  and  C_8
REMARK    3  A    between atoms: C_8  and  N_9
REMARK    4  A    between atoms: C_14  and  C_15
REMARK                            x       y       z     vdW  Elec       q    Type
REMARK                         _______ _______ _______ _____ _____    ______ ____
ROOT
ATOM      1  N   UNL     1      47.529   7.194  14.136  0.00  0.00    +0.000 N 
ATOM      2  C   UNL     1      48.860   7.245  14.521  0.00  0.00    +0.000 A 
ATOM      3  C   UNL     1      49.837   8.005  13.879  0.00  0.00    +0.000 A 
ATOM      4  N   UNL     1      51.121   8.097  14.297  0.00  0.00    +0.000 NA
ATOM      5  C   UNL     1      51.398   7.409  15.427  0.00  0.00    +0.000 A 
ATOM      6  C   UNL     1      50.448   6.658  16.117  0.00  0.00    +0.000 A 
ATOM      7  N   UNL     1      49.172   6.561  15.646  0.00  0.00    +0.000 NA
ATOM      8  H   UNL     1      47.085   6.423  14.632  0.00  0.00    +0.000 HD
ENDROOT
BRANCH   6   9
ATOM      9  C   UNL     1      50.742   5.946  17.372  0.00  0.00    +0.000 A 
ATOM     10  C   UNL     1      50.173   6.316  18.595  0.00  0.00    +0.000 A 
ATOM     11  N   UNL     1      50.419   5.714  19.787  0.00  0.00    +0.000 NA
ATOM     12  C   UNL     1      51.273   4.667  19.766  0.00  0.00    +0.000 A 
ATOM     13  C   UNL     1      51.881   4.198  18.614  0.00  0.00    +0.000 A 
ATOM     14 CL   UNL     1      52.953   2.859  18.669  0.00  0.00    +0.000 Cl
ATOM     15  C   UNL     1      51.609   4.842  17.409  0.00  0.00    +0.000 A 
ENDBRANCH   6   9
BRANCH   1  16
ATOM     16  C   UNL     1      47.203   7.274  12.718  0.00  0.00    +0.000 C 
BRANCH  16  20
ATOM     17  C   UNL     1      44.860   3.946  11.409  0.00  0.00    +0.000 A 
ATOM     18  C   UNL     1      45.325   3.962  12.723  0.00  0.00    +0.000 A 
ATOM     19  C   UNL     1      46.108   5.033  13.156  0.00  0.00    +0.000 A 
ATOM     20  C   UNL     1      46.408   6.064  12.262  0.00  0.00    +0.000 A 
ATOM     21  N   UNL     1      45.977   6.053  10.976  0.00  0.00    +0.000 NA
ATOM     22  C   UNL     1      45.225   4.994  10.577  0.00  0.00    +0.000 A 
BRANCH  17  24
ATOM     23  N   UNL     1      44.490   2.190   9.768  0.00  0.00    +0.000 N 
ATOM     24  C   UNL     1      44.015   2.866  10.857  0.00  0.00    +0.000 C 
ATOM     25  O   UNL     1      42.950   2.560  11.375  0.00  0.00    +0.000 OA
ATOM     26  H   UNL     1      43.949   1.386   9.470  0.00  0.00    +0.000 HD
ATOM     27  H   UNL     1      45.454   2.237   9.471  0.00  0.00    +0.000 HD
ENDBRANCH  17  24
ENDBRANCH  16  20
ENDBRANCH   1  16
TORSDOF 4
ENDMDL
