MODEL 1
REMARK VINA RESULT:    -8.109      0.000      0.000
REMARK INTER + INTRA:         -11.684
REMARK INTER:                 -10.953
REMARK INTRA:                  -0.731
REMARK UNBOUND:                -0.731
REMARK  Name = 
REMARK  6 active torsions:
REMARK  status: ('A' for Active; 'I' for Inactive)
REMARK    1  A    between atoms: C_2  and  C_25
REMARK    2  A    between atoms: N_3  and  C_4
REMARK    3  A    between atoms: C_4  and  C_5
REMARK    4  A    between atoms: C_8  and  C_9
REMARK    5  A    between atoms: C_9  and  N_10
REMARK    6  A    between atoms: C_11  and  C_13
REMARK                            x       y       z     vdW  Elec       q    Type
REMARK                         _______ _______ _______ _____ _____    ______ ____
ROOT
ATOM      1  C   UNL     1      44.648   5.611  11.357  0.00  0.00    +0.000 A 
ATOM      2  C   UNL     1      45.699   5.040  12.086  0.00  0.00    +0.000 A 
ATOM      3  C   UNL     1      46.589   5.843  12.814  0.00  0.00    +0.000 A 
ATOM      4  C   UNL     1      46.436   7.237  12.847  0.00  0.00    +0.000 A 
ATOM      5  C   UNL     1      45.380   7.803  12.117  0.00  0.00    +0.000 A 
ATOM      6  C   UNL     1      44.489   7.001  11.391  0.00  0.00    +0.000 A 
ENDROOT
BRANCH   1   7
ATOM      7  C   UNL     1      43.745   4.746  10.520  0.00  0.00    +0.000 C 
BRANCH   7  10
ATOM      8  O   UNL     1      45.498   5.133   8.418  0.00  0.00    +0.000 OA
ATOM      9  C   UNL     1      45.299   3.985   8.808  0.00  0.00    +0.000 C 
ATOM     10  N   UNL     1      44.431   3.680   9.836  0.00  0.00    +0.000 N 
ATOM     11  H   UNL     1      44.332   2.711  10.124  0.00  0.00    +0.000 HD
BRANCH   9  12
ATOM     12  C   UNL     1      46.012   2.843   8.176  0.00  0.00    +0.000 A 
ATOM     13  C   UNL     1      45.703   1.550   8.581  0.00  0.00    +0.000 A 
ATOM     14  N   UNL     1      46.306   0.457   8.051  0.00  0.00    +0.000 NA
ATOM     15  C   UNL     1      47.238   0.718   7.107  0.00  0.00    +0.000 A 
ATOM     16  C   UNL     1      47.553   2.011   6.707  0.00  0.00    +0.000 A 
ATOM     17  N   UNL     1      46.946   3.110   7.221  0.00  0.00    +0.000 NA
ENDBRANCH   9  12
ENDBRANCH   7  10
ENDBRANCH   1   7
BRANCH   4  18
ATOM     18  C   UNL     1      47.362   8.132  13.643  0.00  0.00    +0.000 C 
BRANCH  18  19
ATOM     19  N   UNL     1      47.822   7.512  14.858  0.00  0.00    +0.000 N 
ATOM     20  C   UNL     1      49.107   7.022  14.986  0.00  0.00    +0.000 C 
ATOM     21  O   UNL     1      49.936   7.095  14.087  0.00  0.00    +0.000 OA
ATOM     22  H   UNL     1      47.109   7.130  15.469  0.00  0.00    +0.000 HD
BRANCH  20  23
ATOM     23  C   UNL     1      49.438   6.466  16.308  0.00  0.00    +0.000 A 
ATOM     24  C   UNL     1      50.401   7.074  17.102  0.00  0.00    +0.000 A 
ATOM     25  S   UNL     1      50.614   6.313  18.615  0.00  0.00    +0.000 S 
ATOM     26  C   UNL     1      49.460   5.118  18.245  0.00  0.00    +0.000 A 
ATOM     27  N   UNL     1      49.178   4.115  19.118  0.00  0.00    +0.000 NA
ATOM     28  C   UNL     1      48.309   3.261  18.687  0.00  0.00    +0.000 A 
ATOM     29  N   UNL     1      47.686   3.325  17.471  0.00  0.00    +0.000 N 
ATOM     30  C   UNL     1      47.893   4.355  16.583  0.00  0.00    +0.000 A 
ATOM     31  O   UNL     1      47.246   4.438  15.545  0.00  0.00    +0.000 OA
ATOM     32  C   UNL     1      48.897   5.319  16.996  0.00  0.00    +0.000 A 
ATOM     33  H   UNL     1      46.994   2.642  17.201  0.00  0.00    +0.000 HD
ENDBRANCH  20  23
ENDBRANCH  18  19
ENDBRANCH   4  18
TORSDOF 6
ENDMDL
MODEL 2
REMARK VINA RESULT:    -7.689      1.319      1.587
REMARK INTER + INTRA:         -11.117
REMARK INTER:                 -10.134
REMARK INTRA:                  -0.983
REMARK UNBOUND:                -0.731
REMARK  Name = 
REMARK  6 active torsions:
REMARK  status: ('A' for Active; 'I' for Inactive)
REMARK    1  A    between atoms: C_2  and  C_25
REMARK    2  A    between atoms: N_3  and  C_4
REMARK    3  A    between atoms: C_4  and  C_5
REMARK    4  A    between atoms: C_8  and  C_9
REMARK    5  A    between atoms: C_9  and  N_10
REMARK    6  A    between atoms: C_11  and  C_13
REMARK                            x       y       z     vdW  Elec       q    Type
REMARK                         _______ _______ _______ _____ _____    ______ ____
ROOT
ATOM      1  C   UNL     1      45.182   6.394  11.534  0.00  0.00    +0.000 A 
ATOM      2  C   UNL     1      46.306   5.856  12.173  0.00  0.00    +0.000 A 
ATOM      3  C   UNL     1      47.116   6.652  12.997  0.00  0.00    +0.000 A 
ATOM      4  C   UNL     1      46.808   8.002  13.216  0.00  0.00    +0.000 A 
ATOM      5  C   UNL     1      45.679   8.536  12.575  0.00  0.00    +0.000 A 
ATOM      6  C   UNL     1      44.868   7.740  11.754  0.00  0.00    +0.000 A 
ENDROOT
BRANCH   1   7
ATOM      7  C   UNL     1      44.364   5.550  10.594  0.00  0.00    +0.000 C 
BRANCH   7  10
ATOM      8  O   UNL     1      43.853   2.925   9.898  0.00  0.00    +0.000 OA
ATOM      9  C   UNL     1      44.801   3.495   9.364  0.00  0.00    +0.000 C 
ATOM     10  N   UNL     1      45.153   4.798   9.653  0.00  0.00    +0.000 N 
ATOM     11  H   UNL     1      45.936   5.216   9.157  0.00  0.00    +0.000 HD
BRANCH   9  12
ATOM     12  C   UNL     1      45.628   2.790   8.349  0.00  0.00    +0.000 A 
ATOM     13  C   UNL     1      45.984   3.463   7.187  0.00  0.00    +0.000 A 
ATOM     14  N   UNL     1      46.738   2.889   6.216  0.00  0.00    +0.000 NA
ATOM     15  C   UNL     1      47.108   1.611   6.457  0.00  0.00    +0.000 A 
ATOM     16  C   UNL     1      46.746   0.936   7.616  0.00  0.00    +0.000 A 
ATOM     17  N   UNL     1      46.003   1.504   8.599  0.00  0.00    +0.000 NA
ENDBRANCH   9  12
ENDBRANCH   7  10
ENDBRANCH   1   7
BRANCH   4  18
ATOM     18  C   UNL     1      47.644   8.885  14.119  0.00  0.00    +0.000 C 
BRANCH  18  19
ATOM     19  N   UNL     1      47.873   8.294  15.412  0.00  0.00    +0.000 N 
ATOM     20  C   UNL     1      49.120   8.298  16.005  0.00  0.00    +0.000 C 
ATOM     21  O   UNL     1      50.101   8.813  15.481  0.00  0.00    +0.000 OA
ATOM     22  H   UNL     1      47.213   7.585  15.709  0.00  0.00    +0.000 HD
BRANCH  20  23
ATOM     23  C   UNL     1      49.178   7.702  17.350  0.00  0.00    +0.000 A 
ATOM     24  C   UNL     1      49.475   8.491  18.453  0.00  0.00    +0.000 A 
ATOM     25  S   UNL     1      49.451   7.633  19.929  0.00  0.00    +0.000 S 
ATOM     26  C   UNL     1      49.087   6.169  19.141  0.00  0.00    +0.000 A 
ATOM     27  N   UNL     1      48.961   5.007  19.835  0.00  0.00    +0.000 NA
ATOM     28  C   UNL     1      48.720   3.971  19.102  0.00  0.00    +0.000 A 
ATOM     29  N   UNL     1      48.581   3.991  17.741  0.00  0.00    +0.000 N 
ATOM     30  C   UNL     1      48.638   5.151  17.005  0.00  0.00    +0.000 A 
ATOM     31  O   UNL     1      48.409   5.152  15.800  0.00  0.00    +0.000 OA
ATOM     32  C   UNL     1      48.954   6.342  17.774  0.00  0.00    +0.000 A 
ATOM     33  H   UNL     1      48.365   3.151  17.224  0.00  0.00    +0.000 HD
ENDBRANCH  20  23
ENDBRANCH  18  19
ENDBRANCH   4  18
TORSDOF 6
ENDMDL
MODEL 3
REMARK VINA RESULT:    -7.488      1.830      1.994
REMARK INTER + INTRA:         -10.845
REMARK INTER:                  -9.912
REMARK INTRA:                  -0.933
REMARK UNBOUND:                -0.731
REMARK  Name = 
REMARK  6 active torsions:
REMARK  status: ('A' for Active; 'I' for Inactive)
REMARK    1  A    between atoms: C_2  and  C_25
REMARK    2  A    between atoms: N_3  and  C_4
REMARK    3  A    between atoms: C_4  and  C_5
REMARK    4  A    between atoms: C_8  and  C_9
REMARK    5  A    between atoms: C_9  and  N_10
REMARK    6  A    between atoms: C_11  and  C_13
REMARK                            x       y       z     vdW  Elec       q    Type
REMARK                         _______ _______ _______ _____ _____    ______ ____
ROOT
ATOM      1  C   UNL     1      45.447   4.457  12.280  0.00  0.00    +0.000 A 
ATOM      2  C   UNL     1      46.367   4.089  13.270  0.00  0.00    +0.000 A 
ATOM      3  C   UNL     1      47.164   5.052  13.906  0.00  0.00    +0.000 A 
ATOM      4  C   UNL     1      47.045   6.410  13.580  0.00  0.00    +0.000 A 
ATOM      5  C   UNL     1      46.121   6.774  12.590  0.00  0.00    +0.000 A 
ATOM      6  C   UNL     1      45.322   5.813  11.956  0.00  0.00    +0.000 A 
ENDROOT
BRANCH   1   7
ATOM      7  C   UNL     1      44.651   3.408  11.553  0.00  0.00    +0.000 C 
BRANCH   7  10
ATOM      8  O   UNL     1      44.254   4.262   8.955  0.00  0.00    +0.000 OA
ATOM      9  C   UNL     1      45.069   3.366   9.155  0.00  0.00    +0.000 C 
ATOM     10  N   UNL     1      45.329   2.854  10.409  0.00  0.00    +0.000 N 
ATOM     11  H   UNL     1      46.034   2.127  10.506  0.00  0.00    +0.000 HD
BRANCH   9  12
ATOM     12  C   UNL     1      45.837   2.782   8.023  0.00  0.00    +0.000 A 
ATOM     13  C   UNL     1      46.313   1.481   8.134  0.00  0.00    +0.000 A 
ATOM     14  N   UNL     1      47.019   0.877   7.145  0.00  0.00    +0.000 NA
ATOM     15  C   UNL     1      47.235   1.638   6.048  0.00  0.00    +0.000 A 
ATOM     16  C   UNL     1      46.765   2.941   5.941  0.00  0.00    +0.000 A 
ATOM     17  N   UNL     1      46.048   3.550   6.917  0.00  0.00    +0.000 NA
ENDBRANCH   9  12
ENDBRANCH   7  10
ENDBRANCH   1   7
BRANCH   4  18
ATOM     18  C   UNL     1      47.871   7.480  14.265  0.00  0.00    +0.000 C 
BRANCH  18  19
ATOM     19  N   UNL     1      49.098   6.965  14.814  0.00  0.00    +0.000 N 
ATOM     20  C   UNL     1      49.319   6.907  16.176  0.00  0.00    +0.000 C 
ATOM     21  O   UNL     1      48.488   7.272  16.998  0.00  0.00    +0.000 OA
ATOM     22  H   UNL     1      49.908   6.981  14.205  0.00  0.00    +0.000 HD
BRANCH  20  23
ATOM     23  C   UNL     1      50.601   6.304  16.578  0.00  0.00    +0.000 A 
ATOM     24  C   UNL     1      51.785   7.014  16.429  0.00  0.00    +0.000 A 
ATOM     25  S   UNL     1      53.159   6.171  16.991  0.00  0.00    +0.000 S 
ATOM     26  C   UNL     1      52.226   4.811  17.412  0.00  0.00    +0.000 A 
ATOM     27  N   UNL     1      52.802   3.693  17.929  0.00  0.00    +0.000 NA
ATOM     28  C   UNL     1      51.976   2.728  18.167  0.00  0.00    +0.000 A 
ATOM     29  N   UNL     1      50.626   2.783  17.947  0.00  0.00    +0.000 N 
ATOM     30  C   UNL     1      49.993   3.912  17.485  0.00  0.00    +0.000 A 
ATOM     31  O   UNL     1      48.771   3.963  17.394  0.00  0.00    +0.000 OA
ATOM     32  C   UNL     1      50.881   5.013  17.156  0.00  0.00    +0.000 A 
ATOM     33  H   UNL     1      50.027   2.004  18.179  0.00  0.00    +0.000 HD
ENDBRANCH  20  23
ENDBRANCH  18  19
ENDBRANCH   4  18
TORSDOF 6
ENDMDL
MODEL 4
REMARK VINA RESULT:    -7.205      2.243      2.963
REMARK INTER + INTRA:         -10.463
REMARK INTER:                  -9.839
REMARK INTRA:                  -0.623
REMARK UNBOUND:                -0.731
REMARK  Name = 
REMARK  6 active torsions:
REMARK  status: ('A' for Active; 'I' for Inactive)
REMARK    1  A    between atoms: C_2  and  C_25
REMARK    2  A    between atoms: N_3  and  C_4
REMARK    3  A    between atoms: C_4  and  C_5
REMARK    4  A    between atoms: C_8  and  C_9
REMARK    5  A    between atoms: C_9  and  N_10
REMARK    6  A    between atoms: C_11  and  C_13
REMARK                            x       y       z     vdW  Elec       q    Type
REMARK                         _______ _______ _______ _____ _____    ______ ____
ROOT
ATOM      1  C   UNL     1      44.624   4.716  11.950  0.00  0.00    +0.000 A 
ATOM      2  C   UNL     1      45.542   4.769  13.006  0.00  0.00    +0.000 A 
ATOM      3  C   UNL     1      46.079   5.993  13.431  0.00  0.00    +0.000 A 
ATOM      4  C   UNL     1      45.695   7.196  12.821  0.00  0.00    +0.000 A 
ATOM      5  C   UNL     1      44.773   7.137  11.765  0.00  0.00    +0.000 A 
ATOM      6  C   UNL     1      44.234   5.914  11.342  0.00  0.00    +0.000 A 
ENDROOT
BRANCH   1   7
ATOM      7  C   UNL     1      44.112   3.391  11.453  0.00  0.00    +0.000 C 
BRANCH   7  10
ATOM      8  O   UNL     1      44.141   3.985   8.754  0.00  0.00    +0.000 OA
ATOM      9  C   UNL     1      44.925   3.137   9.173  0.00  0.00    +0.000 C 
ATOM     10  N   UNL     1      44.980   2.753  10.497  0.00  0.00    +0.000 N 
ATOM     11  H   UNL     1      45.669   2.062  10.780  0.00  0.00    +0.000 HD
BRANCH   9  12
ATOM     12  C   UNL     1      45.881   2.474   8.247  0.00  0.00    +0.000 A 
ATOM     13  C   UNL     1      46.541   3.243   7.297  0.00  0.00    +0.000 A 
ATOM     14  N   UNL     1      47.429   2.713   6.419  0.00  0.00    +0.000 NA
ATOM     15  C   UNL     1      47.616   1.379   6.529  0.00  0.00    +0.000 A 
ATOM     16  C   UNL     1      46.951   0.608   7.473  0.00  0.00    +0.000 A 
ATOM     17  N   UNL     1      46.071   1.129   8.364  0.00  0.00    +0.000 NA
ENDBRANCH   9  12
ENDBRANCH   7  10
ENDBRANCH   1   7
BRANCH   4  18
ATOM     18  C   UNL     1      46.235   8.538  13.271  0.00  0.00    +0.000 C 
BRANCH  18  19
ATOM     19  N   UNL     1      47.607   8.467  13.699  0.00  0.00    +0.000 N 
ATOM     20  C   UNL     1      48.640   8.261  12.806  0.00  0.00    +0.000 C 
ATOM     21  O   UNL     1      48.459   8.139  11.601  0.00  0.00    +0.000 OA
ATOM     22  H   UNL     1      47.766   8.220  14.669  0.00  0.00    +0.000 HD
BRANCH  20  23
ATOM     23  C   UNL     1      49.990   8.267  13.395  0.00  0.00    +0.000 A 
ATOM     24  C   UNL     1      51.017   8.972  12.782  0.00  0.00    +0.000 A 
ATOM     25  S   UNL     1      52.494   8.899  13.634  0.00  0.00    +0.000 S 
ATOM     26  C   UNL     1      51.825   7.886  14.827  0.00  0.00    +0.000 A 
ATOM     27  N   UNL     1      52.578   7.414  15.855  0.00  0.00    +0.000 NA
ATOM     28  C   UNL     1      51.946   6.628  16.664  0.00  0.00    +0.000 A 
ATOM     29  N   UNL     1      50.628   6.281  16.545  0.00  0.00    +0.000 N 
ATOM     30  C   UNL     1      49.813   6.783  15.559  0.00  0.00    +0.000 A 
ATOM     31  O   UNL     1      48.613   6.534  15.538  0.00  0.00    +0.000 OA
ATOM     32  C   UNL     1      50.484   7.635  14.594  0.00  0.00    +0.000 A 
ATOM     33  H   UNL     1      50.182   5.684  17.225  0.00  0.00    +0.000 HD
ENDBRANCH  20  23
ENDBRANCH  18  19
ENDBRANCH   4  18
TORSDOF 6
ENDMDL
MODEL 5
REMARK VINA RESULT:    -7.040      1.930      2.622
REMARK INTER + INTRA:         -10.240
REMARK INTER:                  -9.505
REMARK INTRA:                  -0.735
REMARK UNBOUND:                -0.731
REMARK  Name = 
REMARK  6 active torsions:
REMARK  status: ('A' for Active; 'I' for Inactive)
REMARK    1  A    between atoms: C_2  and  C_25
REMARK    2  A    between atoms: N_3  and  C_4
REMARK    3  A    between atoms: C_4  and  C_5
REMARK    4  A    between atoms: C_8  and  C_9
REMARK    5  A    between atoms: C_9  and  N_10
REMARK    6  A    between atoms: C_11  and  C_13
REMARK                            x       y       z     vdW  Elec       q    Type
REMARK                         _______ _______ _______ _____ _____    ______ ____
ROOT
ATOM      1  C   UNL     1      45.064   5.533  11.600  0.00  0.00    +0.000 A 
ATOM      2  C   UNL     1      45.631   4.861  12.691  0.00  0.00    +0.000 A 
ATOM      3  C   UNL     1      46.570   5.496  13.517  0.00  0.00    +0.000 A 
ATOM      4  C   UNL     1      46.950   6.825  13.282  0.00  0.00    +0.000 A 
ATOM      5  C   UNL     1      46.378   7.493  12.190  0.00  0.00    +0.000 A 
ATOM      6  C   UNL     1      45.437   6.861  11.365  0.00  0.00    +0.000 A 
ENDROOT
BRANCH   1   7
ATOM      7  C   UNL     1      44.115   4.818  10.676  0.00  0.00    +0.000 C 
BRANCH   7  10
ATOM      8  O   UNL     1      45.659   5.183   8.413  0.00  0.00    +0.000 OA
ATOM      9  C   UNL     1      45.490   4.038   8.825  0.00  0.00    +0.000 C 
ATOM     10  N   UNL     1      44.723   3.744   9.934  0.00  0.00    +0.000 N 
ATOM     11  H   UNL     1      44.645   2.776  10.234  0.00  0.00    +0.000 HD
BRANCH   9  12
ATOM     12  C   UNL     1      46.129   2.888   8.133  0.00  0.00    +0.000 A 
ATOM     13  C   UNL     1      45.828   1.598   8.552  0.00  0.00    +0.000 A 
ATOM     14  N   UNL     1      46.367   0.498   7.970  0.00  0.00    +0.000 NA
ATOM     15  C   UNL     1      47.228   0.749   6.958  0.00  0.00    +0.000 A 
ATOM     16  C   UNL     1      47.535   2.039   6.543  0.00  0.00    +0.000 A 
ATOM     17  N   UNL     1      46.992   3.145   7.109  0.00  0.00    +0.000 NA
ENDBRANCH   9  12
ENDBRANCH   7  10
ENDBRANCH   1   7
BRANCH   4  18
ATOM     18  C   UNL     1      47.941   7.550  14.170  0.00  0.00    +0.000 C 
BRANCH  18  19
ATOM     19  N   UNL     1      48.792   6.647  14.901  0.00  0.00    +0.000 N 
ATOM     20  C   UNL     1      49.106   6.857  16.229  0.00  0.00    +0.000 C 
ATOM     21  O   UNL     1      48.675   7.807  16.870  0.00  0.00    +0.000 OA
ATOM     22  H   UNL     1      49.424   6.076  14.351  0.00  0.00    +0.000 HD
BRANCH  20  23
ATOM     23  C   UNL     1      49.944   5.815  16.847  0.00  0.00    +0.000 A 
ATOM     24  C   UNL     1      49.359   4.687  17.406  0.00  0.00    +0.000 A 
ATOM     25  S   UNL     1      50.491   3.573  18.032  0.00  0.00    +0.000 S 
ATOM     26  C   UNL     1      51.800   4.580  17.620  0.00  0.00    +0.000 A 
ATOM     27  N   UNL     1      53.080   4.230  17.915  0.00  0.00    +0.000 NA
ATOM     28  C   UNL     1      53.965   5.108  17.575  0.00  0.00    +0.000 A 
ATOM     29  N   UNL     1      53.690   6.297  16.956  0.00  0.00    +0.000 N 
ATOM     30  C   UNL     1      52.419   6.664  16.583  0.00  0.00    +0.000 A 
ATOM     31  O   UNL     1      52.216   7.688  15.940  0.00  0.00    +0.000 OA
ATOM     32  C   UNL     1      51.378   5.735  16.983  0.00  0.00    +0.000 A 
ATOM     33  H   UNL     1      54.429   6.930  16.690  0.00  0.00    +0.000 HD
ENDBRANCH  20  23
ENDBRANCH  18  19
ENDBRANCH   4  18
TORSDOF 6
ENDMDL
MODEL 6
REMARK VINA RESULT:    -7.005      3.587      4.552
REMARK INTER + INTRA:         -10.193
REMARK INTER:                  -9.187
REMARK INTRA:                  -1.006
REMARK UNBOUND:                -0.731
REMARK  Name = 
REMARK  6 active torsions:
REMARK  status: ('A' for Active; 'I' for Inactive)
REMARK    1  A    between atoms: C_2  and  C_25
REMARK    2  A    between atoms: N_3  and  C_4
REMARK    3  A    between atoms: C_4  and  C_5
REMARK    4  A    between atoms: C_8  and  C_9
REMARK    5  A    between atoms: C_9  and  N_10
REMARK    6  A    between atoms: C_11  and  C_13
REMARK                            x       y       z     vdW  Elec       q    Type
REMARK                         _______ _______ _______ _____ _____    ______ ____
ROOT
ATOM      1  C   UNL     1      44.783   4.817  11.907  0.00  0.00    +0.000 A 
ATOM      2  C   UNL     1      45.837   4.826  12.829  0.00  0.00    +0.000 A 
ATOM      3  C   UNL     1      46.382   6.034  13.288  0.00  0.00    +0.000 A 
ATOM      4  C   UNL     1      45.872   7.264  12.847  0.00  0.00    +0.000 A 
ATOM      5  C   UNL     1      44.815   7.249  11.925  0.00  0.00    +0.000 A 
ATOM      6  C   UNL     1      44.268   6.042  11.469  0.00  0.00    +0.000 A 
ENDROOT
BRANCH   1   7
ATOM      7  C   UNL     1      44.256   3.516  11.366  0.00  0.00    +0.000 C 
BRANCH   7  10
ATOM      8  O   UNL     1      44.093   4.082   8.666  0.00  0.00    +0.000 OA
ATOM      9  C   UNL     1      44.947   3.284   9.043  0.00  0.00    +0.000 C 
ATOM     10  N   UNL     1      45.101   2.918  10.365  0.00  0.00    +0.000 N 
ATOM     11  H   UNL     1      45.844   2.269  10.611  0.00  0.00    +0.000 HD
BRANCH   9  12
ATOM     12  C   UNL     1      45.882   2.666   8.066  0.00  0.00    +0.000 A 
ATOM     13  C   UNL     1      46.308   3.415   6.977  0.00  0.00    +0.000 A 
ATOM     14  N   UNL     1      47.163   2.923   6.044  0.00  0.00    +0.000 NA
ATOM     15  C   UNL     1      47.560   1.647   6.248  0.00  0.00    +0.000 A 
ATOM     16  C   UNL     1      47.128   0.895   7.333  0.00  0.00    +0.000 A 
ATOM     17  N   UNL     1      46.285   1.381   8.278  0.00  0.00    +0.000 NA
ENDBRANCH   9  12
ENDBRANCH   7  10
ENDBRANCH   1   7
BRANCH   4  18
ATOM     18  C   UNL     1      46.419   8.588  13.341  0.00  0.00    +0.000 C 
BRANCH  18  19
ATOM     19  N   UNL     1      47.846   8.692  13.177  0.00  0.00    +0.000 N 
ATOM     20  C   UNL     1      48.457   9.887  12.852  0.00  0.00    +0.000 C 
ATOM     21  O   UNL     1      47.833  10.929  12.696  0.00  0.00    +0.000 OA
ATOM     22  H   UNL     1      48.340   7.835  12.959  0.00  0.00    +0.000 HD
BRANCH  20  23
ATOM     23  C   UNL     1      49.927   9.839  12.774  0.00  0.00    +0.000 A 
ATOM     24  C   UNL     1      50.693  10.786  13.439  0.00  0.00    +0.000 A 
ATOM     25  S   UNL     1      52.374  10.542  13.269  0.00  0.00    +0.000 S 
ATOM     26  C   UNL     1      52.136   9.189  12.263  0.00  0.00    +0.000 A 
ATOM     27  N   UNL     1      53.188   8.514  11.729  0.00  0.00    +0.000 NA
ATOM     28  C   UNL     1      52.855   7.532  10.957  0.00  0.00    +0.000 A 
ATOM     29  N   UNL     1      51.569   7.155  10.682  0.00  0.00    +0.000 N 
ATOM     30  C   UNL     1      50.477   7.768  11.249  0.00  0.00    +0.000 A 
ATOM     31  O   UNL     1      49.342   7.344  11.063  0.00  0.00    +0.000 OA
ATOM     32  C   UNL     1      50.792   8.910  12.089  0.00  0.00    +0.000 A 
ATOM     33  H   UNL     1      51.372   6.360  10.092  0.00  0.00    +0.000 HD
ENDBRANCH  20  23
ENDBRANCH  18  19
ENDBRANCH   4  18
TORSDOF 6
ENDMDL
MODEL 7
REMARK VINA RESULT:    -6.914      4.640      7.647
REMARK INTER + INTRA:         -10.070
REMARK INTER:                  -9.103
REMARK INTRA:                  -0.968
REMARK UNBOUND:                -0.731
REMARK  Name = 
REMARK  6 active torsions:
REMARK  status: ('A' for Active; 'I' for Inactive)
REMARK    1  A    between atoms: C_2  and  C_25
REMARK    2  A    between atoms: N_3  and  C_4
REMARK    3  A    between atoms: C_4  and  C_5
REMARK    4  A    between atoms: C_8  and  C_9
REMARK    5  A    between atoms: C_9  and  N_10
REMARK    6  A    between atoms: C_11  and  C_13
REMARK                            x       y       z     vdW  Elec       q    Type
REMARK                         _______ _______ _______ _____ _____    ______ ____
ROOT
ATOM      1  C   UNL     1      50.342   8.824  11.647  0.00  0.00    +0.000 A 
ATOM      2  C   UNL     1      49.681   9.790  12.417  0.00  0.00    +0.000 A 
ATOM      3  C   UNL     1      48.367   9.582  12.859  0.00  0.00    +0.000 A 
ATOM      4  C   UNL     1      47.688   8.392  12.557  0.00  0.00    +0.000 A 
ATOM      5  C   UNL     1      48.355   7.427  11.787  0.00  0.00    +0.000 A 
ATOM      6  C   UNL     1      49.670   7.634  11.348  0.00  0.00    +0.000 A 
ENDROOT
BRANCH   1   7
ATOM      7  C   UNL     1      51.724   9.090  11.116  0.00  0.00    +0.000 C 
BRANCH   7  10
ATOM      8  O   UNL     1      53.776   7.240  11.183  0.00  0.00    +0.000 OA
ATOM      9  C   UNL     1      53.123   7.348  10.149  0.00  0.00    +0.000 C 
ATOM     10  N   UNL     1      52.091   8.252  10.004  0.00  0.00    +0.000 N 
ATOM     11  H   UNL     1      51.576   8.273   9.128  0.00  0.00    +0.000 HD
BRANCH   9  12
ATOM     12  C   UNL     1      53.419   6.480   8.978  0.00  0.00    +0.000 A 
ATOM     13  C   UNL     1      52.657   6.623   7.826  0.00  0.00    +0.000 A 
ATOM     14  N   UNL     1      52.867   5.871   6.716  0.00  0.00    +0.000 NA
ATOM     15  C   UNL     1      53.866   4.966   6.818  0.00  0.00    +0.000 A 
ATOM     16  C   UNL     1      54.623   4.818   7.973  0.00  0.00    +0.000 A 
ATOM     17  N   UNL     1      54.431   5.573   9.083  0.00  0.00    +0.000 NA
ENDBRANCH   9  12
ENDBRANCH   7  10
ENDBRANCH   1   7
BRANCH   4  18
ATOM     18  C   UNL     1      46.277   8.122  13.040  0.00  0.00    +0.000 C 
BRANCH  18  19
ATOM     19  N   UNL     1      45.815   6.805  12.689  0.00  0.00    +0.000 N 
ATOM     20  C   UNL     1      44.795   6.608  11.780  0.00  0.00    +0.000 C 
ATOM     21  O   UNL     1      44.231   7.532  11.207  0.00  0.00    +0.000 OA
ATOM     22  H   UNL     1      45.996   6.068  13.361  0.00  0.00    +0.000 HD
BRANCH  20  23
ATOM     23  C   UNL     1      44.475   5.200  11.489  0.00  0.00    +0.000 A 
ATOM     24  C   UNL     1      43.728   4.452  12.388  0.00  0.00    +0.000 A 
ATOM     25  S   UNL     1      43.422   2.859  11.858  0.00  0.00    +0.000 S 
ATOM     26  C   UNL     1      44.316   3.098  10.429  0.00  0.00    +0.000 A 
ATOM     27  N   UNL     1      44.484   2.097   9.526  0.00  0.00    +0.000 NA
ATOM     28  C   UNL     1      45.216   2.413   8.508  0.00  0.00    +0.000 A 
ATOM     29  N   UNL     1      45.783   3.641   8.305  0.00  0.00    +0.000 N 
ATOM     30  C   UNL     1      45.588   4.701   9.159  0.00  0.00    +0.000 A 
ATOM     31  O   UNL     1      46.026   5.816   8.898  0.00  0.00    +0.000 OA
ATOM     32  C   UNL     1      44.812   4.388  10.345  0.00  0.00    +0.000 A 
ATOM     33  H   UNL     1      46.323   3.836   7.475  0.00  0.00    +0.000 HD
ENDBRANCH  20  23
ENDBRANCH  18  19
ENDBRANCH   4  18
TORSDOF 6
ENDMDL
MODEL 8
REMARK VINA RESULT:    -6.674      5.411      8.034
REMARK INTER + INTRA:          -9.745
REMARK INTER:                  -8.945
REMARK INTRA:                  -0.801
REMARK UNBOUND:                -0.731
REMARK  Name = 
REMARK  6 active torsions:
REMARK  status: ('A' for Active; 'I' for Inactive)
REMARK    1  A    between atoms: C_2  and  C_25
REMARK    2  A    between atoms: N_3  and  C_4
REMARK    3  A    between atoms: C_4  and  C_5
REMARK    4  A    between atoms: C_8  and  C_9
REMARK    5  A    between atoms: C_9  and  N_10
REMARK    6  A    between atoms: C_11  and  C_13
REMARK                            x       y       z     vdW  Elec       q    Type
REMARK                         _______ _______ _______ _____ _____    ______ ____
ROOT
ATOM      1  C   UNL     1      49.057   7.018  13.893  0.00  0.00    +0.000 A 
ATOM      2  C   UNL     1      49.035   7.050  12.493  0.00  0.00    +0.000 A 
ATOM      3  C   UNL     1      49.919   7.870  11.778  0.00  0.00    +0.000 A 
ATOM      4  C   UNL     1      50.862   8.664  12.447  0.00  0.00    +0.000 A 
ATOM      5  C   UNL     1      50.882   8.626  13.849  0.00  0.00    +0.000 A 
ATOM      6  C   UNL     1      50.000   7.805  14.564  0.00  0.00    +0.000 A 
ENDROOT
BRANCH   1   7
ATOM      7  C   UNL     1      48.055   6.192  14.652  0.00  0.00    +0.000 C 
BRANCH   7  10
ATOM      8  O   UNL     1      47.411   3.674  13.711  0.00  0.00    +0.000 OA
ATOM      9  C   UNL     1      46.629   4.595  13.492  0.00  0.00    +0.000 C 
ATOM     10  N   UNL     1      46.862   5.892  13.902  0.00  0.00    +0.000 N 
ATOM     11  H   UNL     1      46.161   6.602  13.707  0.00  0.00    +0.000 HD
BRANCH   9  12
ATOM     12  C   UNL     1      45.357   4.345  12.764  0.00  0.00    +0.000 A 
ATOM     13  C   UNL     1      44.807   5.366  12.000  0.00  0.00    +0.000 A 
ATOM     14  N   UNL     1      43.652   5.215  11.304  0.00  0.00    +0.000 NA
ATOM     15  C   UNL     1      43.069   4.000  11.418  0.00  0.00    +0.000 A 
ATOM     16  C   UNL     1      43.615   2.981  12.188  0.00  0.00    +0.000 A 
ATOM     17  N   UNL     1      44.776   3.117  12.876  0.00  0.00    +0.000 NA
ENDBRANCH   9  12
ENDBRANCH   7  10
ENDBRANCH   1   7
BRANCH   4  18
ATOM     18  C   UNL     1      51.850   9.542  11.706  0.00  0.00    +0.000 C 
BRANCH  18  19
ATOM     19  N   UNL     1      52.088   9.092  10.359  0.00  0.00    +0.000 N 
ATOM     20  C   UNL     1      53.297   8.547   9.975  0.00  0.00    +0.000 C 
ATOM     21  O   UNL     1      54.233   8.398  10.751  0.00  0.00    +0.000 OA
ATOM     22  H   UNL     1      51.502   9.497   9.637  0.00  0.00    +0.000 HD
BRANCH  20  23
ATOM     23  C   UNL     1      53.362   8.087   8.578  0.00  0.00    +0.000 A 
ATOM     24  C   UNL     1      53.225   8.993   7.535  0.00  0.00    +0.000 A 
ATOM     25  S   UNL     1      53.375   8.282   5.991  0.00  0.00    +0.000 S 
ATOM     26  C   UNL     1      53.583   6.730   6.660  0.00  0.00    +0.000 A 
ATOM     27  N   UNL     1      53.733   5.635   5.869  0.00  0.00    +0.000 NA
ATOM     28  C   UNL     1      53.845   4.521   6.515  0.00  0.00    +0.000 A 
ATOM     29  N   UNL     1      53.833   4.403   7.878  0.00  0.00    +0.000 N 
ATOM     30  C   UNL     1      53.746   5.489   8.717  0.00  0.00    +0.000 A 
ATOM     31  O   UNL     1      53.839   5.361   9.933  0.00  0.00    +0.000 OA
ATOM     32  C   UNL     1      53.571   6.763   8.044  0.00  0.00    +0.000 A 
ATOM     33  H   UNL     1      53.952   3.507   8.326  0.00  0.00    +0.000 HD
ENDBRANCH  20  23
ENDBRANCH  18  19
ENDBRANCH   4  18
TORSDOF 6
ENDMDL
MODEL 9
REMARK VINA RESULT:    -6.669      3.264      8.851
REMARK INTER + INTRA:          -9.739
REMARK INTER:                  -8.810
REMARK INTRA:                  -0.929
REMARK UNBOUND:                -0.731
REMARK  Name = 
REMARK  6 active torsions:
REMARK  status: ('A' for Active; 'I' for Inactive)
REMARK    1  A    between atoms: C_2  and  C_25
REMARK    2  A    between atoms: N_3  and  C_4
REMARK    3  A    between atoms: C_4  and  C_5
REMARK    4  A    between atoms: C_8  and  C_9
REMARK    5  A    between atoms: C_9  and  N_10
REMARK    6  A    between atoms: C_11  and  C_13
REMARK                            x       y       z     vdW  Elec       q    Type
REMARK                         _______ _______ _______ _____ _____    ______ ____
ROOT
ATOM      1  C   UNL     1      50.476   7.554  15.035  0.00  0.00    +0.000 A 
ATOM      2  C   UNL     1      49.208   6.985  15.209  0.00  0.00    +0.000 A 
ATOM      3  C   UNL     1      48.242   7.055  14.195  0.00  0.00    +0.000 A 
ATOM      4  C   UNL     1      48.529   7.681  12.973  0.00  0.00    +0.000 A 
ATOM      5  C   UNL     1      49.801   8.247  12.803  0.00  0.00    +0.000 A 
ATOM      6  C   UNL     1      50.768   8.174  13.815  0.00  0.00    +0.000 A 
ENDROOT
BRANCH   1   7
ATOM      7  C   UNL     1      51.477   7.537  16.157  0.00  0.00    +0.000 C 
BRANCH   7  10
ATOM      8  O   UNL     1      50.648   5.890  18.216  0.00  0.00    +0.000 OA
ATOM      9  C   UNL     1      51.534   5.486  17.468  0.00  0.00    +0.000 C 
ATOM     10  N   UNL     1      52.033   6.235  16.421  0.00  0.00    +0.000 N 
ATOM     11  H   UNL     1      52.751   5.830  15.826  0.00  0.00    +0.000 HD
BRANCH   9  12
ATOM     12  C   UNL     1      52.118   4.132  17.657  0.00  0.00    +0.000 A 
ATOM     13  C   UNL     1      51.291   3.021  17.547  0.00  0.00    +0.000 A 
ATOM     14  N   UNL     1      51.749   1.754  17.703  0.00  0.00    +0.000 NA
ATOM     15  C   UNL     1      53.067   1.651  17.984  0.00  0.00    +0.000 A 
ATOM     16  C   UNL     1      53.893   2.762  18.101  0.00  0.00    +0.000 A 
ATOM     17  N   UNL     1      53.449   4.033  17.934  0.00  0.00    +0.000 NA
ENDBRANCH   9  12
ENDBRANCH   7  10
ENDBRANCH   1   7
BRANCH   4  18
ATOM     18  C   UNL     1      47.519   7.753  11.846  0.00  0.00    +0.000 C 
BRANCH  18  19
ATOM     19  N   UNL     1      46.798   6.519  11.669  0.00  0.00    +0.000 N 
ATOM     20  C   UNL     1      45.419   6.479  11.640  0.00  0.00    +0.000 C 
ATOM     21  O   UNL     1      44.724   7.482  11.749  0.00  0.00    +0.000 OA
ATOM     22  H   UNL     1      47.290   5.668  11.918  0.00  0.00    +0.000 HD
BRANCH  20  23
ATOM     23  C   UNL     1      44.834   5.149  11.398  0.00  0.00    +0.000 A 
ATOM     24  C   UNL     1      44.065   4.534  12.377  0.00  0.00    +0.000 A 
ATOM     25  S   UNL     1      43.437   3.021  11.896  0.00  0.00    +0.000 S 
ATOM     26  C   UNL     1      44.209   3.114  10.382  0.00  0.00    +0.000 A 
ATOM     27  N   UNL     1      44.109   2.105   9.476  0.00  0.00    +0.000 NA
ATOM     28  C   UNL     1      44.776   2.298   8.386  0.00  0.00    +0.000 A 
ATOM     29  N   UNL     1      45.522   3.412   8.114  0.00  0.00    +0.000 N 
ATOM     30  C   UNL     1      45.601   4.483   8.972  0.00  0.00    +0.000 A 
ATOM     31  O   UNL     1      46.195   5.508   8.657  0.00  0.00    +0.000 OA
ATOM     32  C   UNL     1      44.908   4.299  10.235  0.00  0.00    +0.000 A 
ATOM     33  H   UNL     1      46.000   3.518   7.231  0.00  0.00    +0.000 HD
ENDBRANCH  20  23
ENDBRANCH  18  19
ENDBRANCH   4  18
TORSDOF 6
ENDMDL
